MODEL 1
REMARK VINA RESULT:      -4.1      0.000      0.000
REMARK  Name = 
REMARK  3 active torsions:
REMARK  status: ('A' for Active; 'I' for Inactive)
REMARK    1  A    between atoms: N_1  and  C_2
REMARK    2  A    between atoms: C_2  and  C_7
REMARK    3  A    between atoms: C_7  and  O_8
REMARK                            x       y       z     vdW  Elec       q    Type
REMARK                         _______ _______ _______ _____ _____    ______ ____
ROOT
ATOM      1  C   UNL     1       9.447   0.083  22.416  0.00  0.00    +0.115 C 
ATOM      2  C   UNL     1      10.586   0.236  23.427  0.00  0.00    +0.033 C 
ATOM      3  C   UNL     1       9.919   0.453  24.789  0.00  0.00    +0.002 C 
ATOM      4  C   UNL     1       8.414   0.339  24.569  0.00  0.00    +0.002 C 
ATOM      5  C   UNL     1       8.262  -0.409  23.248  0.00  0.00    +0.033 C 
ENDROOT
BRANCH   1   6
ATOM      6  N   UNL     1       9.798  -0.882  21.331  0.00  0.00    -0.316 NA
ATOM      7  H   UNL     1      10.266  -1.688  21.761  0.00  0.00    +0.119 HD
ATOM      8  H   UNL     1       8.929  -1.275  20.955  0.00  0.00    +0.119 HD
ENDBRANCH   1   6
BRANCH   1   9
ATOM      9  C   UNL     1       9.112   1.441  21.739  0.00  0.00    +0.325 C 
ATOM     10  O   UNL     1       8.008   1.809  21.369  0.00  0.00    -0.249 OA
BRANCH   9  11
ATOM     11  O   UNL     1      10.232   2.201  21.597  0.00  0.00    -0.479 OA
ATOM     12  H   UNL     1       9.924   3.138  21.694  0.00  0.00    +0.295 HD
ENDBRANCH   9  11
ENDBRANCH   1   9
TORSDOF 3
ENDMDL
MODEL 2
REMARK VINA RESULT:      -4.0      1.797      2.226
REMARK  Name = 
REMARK  3 active torsions:
REMARK  status: ('A' for Active; 'I' for Inactive)
REMARK    1  A    between atoms: N_1  and  C_2
REMARK    2  A    between atoms: C_2  and  C_7
REMARK    3  A    between atoms: C_7  and  O_8
REMARK                            x       y       z     vdW  Elec       q    Type
REMARK                         _______ _______ _______ _____ _____    ______ ____
ROOT
ATOM      1  C   UNL     1       8.937   1.239  23.320  0.00  0.00    +0.115 C 
ATOM      2  C   UNL     1       8.600  -0.129  23.920  0.00  0.00    +0.033 C 
ATOM      3  C   UNL     1       9.824  -0.546  24.741  0.00  0.00    +0.002 C 
ATOM      4  C   UNL     1      10.814   0.612  24.680  0.00  0.00    +0.002 C 
ATOM      5  C   UNL     1       9.984   1.823  24.269  0.00  0.00    +0.033 C 
ENDROOT
BRANCH   1   6
ATOM      6  N   UNL     1       7.729   2.112  23.224  0.00  0.00    -0.316 NA
ATOM      7  H   UNL     1       7.364   2.256  24.173  0.00  0.00    +0.119 HD
ATOM      8  H   UNL     1       8.030   3.047  22.933  0.00  0.00    +0.119 HD
ENDBRANCH   1   6
BRANCH   1   9
ATOM      9  C   UNL     1       9.520   1.094  21.887  0.00  0.00    +0.325 C 
ATOM     10  O   UNL     1       9.408   0.119  21.159  0.00  0.00    -0.249 OA
BRANCH   9  11
ATOM     11  O   UNL     1      10.199   2.215  21.523  0.00  0.00    -0.479 OA
ATOM     12  H   UNL     1       9.514   2.823  21.146  0.00  0.00    +0.295 HD
ENDBRANCH   9  11
ENDBRANCH   1   9
TORSDOF 3
ENDMDL
MODEL 3
REMARK VINA RESULT:      -3.9      1.828      2.592
REMARK  Name = 
REMARK  3 active torsions:
REMARK  status: ('A' for Active; 'I' for Inactive)
REMARK    1  A    between atoms: N_1  and  C_2
REMARK    2  A    between atoms: C_2  and  C_7
REMARK    3  A    between atoms: C_7  and  O_8
REMARK                            x       y       z     vdW  Elec       q    Type
REMARK                         _______ _______ _______ _____ _____    ______ ____
ROOT
ATOM      1  C   UNL     1       9.669  -0.299  22.503  0.00  0.00    +0.115 C 
ATOM      2  C   UNL     1       9.672   1.003  21.699  0.00  0.00    +0.033 C 
ATOM      3  C   UNL     1      10.083   2.107  22.679  0.00  0.00    +0.002 C 
ATOM      4  C   UNL     1      10.394   1.427  24.007  0.00  0.00    +0.002 C 
ATOM      5  C   UNL     1      10.639  -0.037  23.656  0.00  0.00    +0.033 C 
ENDROOT
BRANCH   1   6
ATOM      6  N   UNL     1      10.102  -1.463  21.671  0.00  0.00    -0.316 NA
ATOM      7  H   UNL     1       9.740  -2.318  22.108  0.00  0.00    +0.119 HD
ATOM      8  H   UNL     1       9.608  -1.418  20.774  0.00  0.00    +0.119 HD
ENDBRANCH   1   6
BRANCH   1   9
ATOM      9  C   UNL     1       8.249  -0.619  23.046  0.00  0.00    +0.325 C 
ATOM     10  O   UNL     1       7.218  -0.034  22.753  0.00  0.00    -0.249 OA
BRANCH   9  11
ATOM     11  O   UNL     1       8.287  -1.660  23.921  0.00  0.00    -0.479 OA
ATOM     12  H   UNL     1       7.979  -2.447  23.402  0.00  0.00    +0.295 HD
ENDBRANCH   9  11
ENDBRANCH   1   9
TORSDOF 3
ENDMDL
MODEL 4
REMARK VINA RESULT:      -3.9      2.410      2.946
REMARK  Name = 
REMARK  3 active torsions:
REMARK  status: ('A' for Active; 'I' for Inactive)
REMARK    1  A    between atoms: N_1  and  C_2
REMARK    2  A    between atoms: C_2  and  C_7
REMARK    3  A    between atoms: C_7  and  O_8
REMARK                            x       y       z     vdW  Elec       q    Type
REMARK                         _______ _______ _______ _____ _____    ______ ____
ROOT
ATOM      1  C   UNL     1       8.763  -0.151  22.800  0.00  0.00    +0.115 C 
ATOM      2  C   UNL     1       9.108   0.653  24.057  0.00  0.00    +0.033 C 
ATOM      3  C   UNL     1      10.028   1.788  23.596  0.00  0.00    +0.002 C 
ATOM      4  C   UNL     1      10.136   1.683  22.079  0.00  0.00    +0.002 C 
ATOM      5  C   UNL     1       8.935   0.845  21.653  0.00  0.00    +0.033 C 
ENDROOT
BRANCH   1   6
ATOM      6  N   UNL     1       7.372  -0.694  22.857  0.00  0.00    -0.316 NA
ATOM      7  H   UNL     1       7.429  -1.718  22.822  0.00  0.00    +0.119 HD
ATOM      8  H   UNL     1       6.990  -0.502  23.788  0.00  0.00    +0.119 HD
ENDBRANCH   1   6
BRANCH   1   9
ATOM      9  C   UNL     1       9.727  -1.358  22.626  0.00  0.00    +0.325 C 
ATOM     10  O   UNL     1      10.207  -2.031  23.524  0.00  0.00    -0.249 OA
BRANCH   9  11
ATOM     11  O   UNL     1       9.987  -1.584  21.310  0.00  0.00    -0.479 OA
ATOM     12  H   UNL     1      10.116  -0.685  20.913  0.00  0.00    +0.295 HD
ENDBRANCH   9  11
ENDBRANCH   1   9
TORSDOF 3
ENDMDL
MODEL 5
REMARK VINA RESULT:      -3.9      2.510      3.051
REMARK  Name = 
REMARK  3 active torsions:
REMARK  status: ('A' for Active; 'I' for Inactive)
REMARK    1  A    between atoms: N_1  and  C_2
REMARK    2  A    between atoms: C_2  and  C_7
REMARK    3  A    between atoms: C_7  and  O_8
REMARK                            x       y       z     vdW  Elec       q    Type
REMARK                         _______ _______ _______ _____ _____    ______ ____
ROOT
ATOM      1  C   UNL     1       9.928   0.157  23.271  0.00  0.00    +0.115 C 
ATOM      2  C   UNL     1       9.978   1.044  22.024  0.00  0.00    +0.033 C 
ATOM      3  C   UNL     1       8.523   1.257  21.596  0.00  0.00    +0.002 C 
ATOM      4  C   UNL     1       7.648   0.570  22.639  0.00  0.00    +0.002 C 
ATOM      5  C   UNL     1       8.542   0.412  23.864  0.00  0.00    +0.033 C 
ENDROOT
BRANCH   1   6
ATOM      6  N   UNL     1      11.015   0.501  24.237  0.00  0.00    -0.316 NA
ATOM      7  H   UNL     1      11.369  -0.373  24.642  0.00  0.00    +0.119 HD
ATOM      8  H   UNL     1      11.812   0.867  23.707  0.00  0.00    +0.119 HD
ENDBRANCH   1   6
BRANCH   1   9
ATOM      9  C   UNL     1      10.095  -1.342  22.898  0.00  0.00    +0.325 C 
ATOM     10  O   UNL     1      10.003  -2.289  23.664  0.00  0.00    -0.249 OA
BRANCH   9  11
ATOM     11  O   UNL     1      10.370  -1.485  21.574  0.00  0.00    -0.479 OA
ATOM     12  H   UNL     1      10.116  -0.621  21.161  0.00  0.00    +0.295 HD
ENDBRANCH   9  11
ENDBRANCH   1   9
TORSDOF 3
ENDMDL
MODEL 6
REMARK VINA RESULT:      -3.8      2.013      2.490
REMARK  Name = 
REMARK  3 active torsions:
REMARK  status: ('A' for Active; 'I' for Inactive)
REMARK    1  A    between atoms: N_1  and  C_2
REMARK    2  A    between atoms: C_2  and  C_7
REMARK    3  A    between atoms: C_7  and  O_8
REMARK                            x       y       z     vdW  Elec       q    Type
REMARK                         _______ _______ _______ _____ _____    ______ ____
ROOT
ATOM      1  C   UNL     1       9.349   0.387  22.633  0.00  0.00    +0.115 C 
ATOM      2  C   UNL     1       8.215   0.815  23.568  0.00  0.00    +0.033 C 
ATOM      3  C   UNL     1       8.710   0.538  24.991  0.00  0.00    +0.002 C 
ATOM      4  C   UNL     1      10.145   0.037  24.871  0.00  0.00    +0.002 C 
ATOM      5  C   UNL     1      10.610   0.491  23.491  0.00  0.00    +0.033 C 
ENDROOT
BRANCH   1   6
ATOM      6  N   UNL     1       9.429   1.264  21.425  0.00  0.00    -0.316 NA
ATOM      7  H   UNL     1       9.760   2.188  21.724  0.00  0.00    +0.119 HD
ATOM      8  H   UNL     1      10.182   0.916  20.825  0.00  0.00    +0.119 HD
ENDBRANCH   1   6
BRANCH   1   9
ATOM      9  C   UNL     1       9.145  -1.071  22.136  0.00  0.00    +0.325 C 
ATOM     10  O   UNL     1       8.134  -1.743  22.271  0.00  0.00    -0.249 OA
BRANCH   9  11
ATOM     11  O   UNL     1      10.264  -1.533  21.515  0.00  0.00    -0.479 OA
ATOM     12  H   UNL     1      10.670  -2.172  22.153  0.00  0.00    +0.295 HD
ENDBRANCH   9  11
ENDBRANCH   1   9
TORSDOF 3
ENDMDL
MODEL 7
REMARK VINA RESULT:      -3.8      1.949      2.061
REMARK  Name = 
REMARK  3 active torsions:
REMARK  status: ('A' for Active; 'I' for Inactive)
REMARK    1  A    between atoms: N_1  and  C_2
REMARK    2  A    between atoms: C_2  and  C_7
REMARK    3  A    between atoms: C_7  and  O_8
REMARK                            x       y       z     vdW  Elec       q    Type
REMARK                         _______ _______ _______ _____ _____    ______ ____
ROOT
ATOM      1  C   UNL     1       9.697   1.364  22.771  0.00  0.00    +0.115 C 
ATOM      2  C   UNL     1      10.487   1.720  24.033  0.00  0.00    +0.033 C 
ATOM      3  C   UNL     1      10.682   0.407  24.796  0.00  0.00    +0.002 C 
ATOM      4  C   UNL     1      10.083  -0.700  23.935  0.00  0.00    +0.002 C 
ATOM      5  C   UNL     1      10.010  -0.113  22.530  0.00  0.00    +0.033 C 
ENDROOT
BRANCH   1   6
ATOM      6  N   UNL     1      10.102   2.212  21.609  0.00  0.00    -0.316 NA
ATOM      7  H   UNL     1       9.391   2.108  20.875  0.00  0.00    +0.119 HD
ATOM      8  H   UNL     1      10.026   3.196  21.886  0.00  0.00    +0.119 HD
ENDBRANCH   1   6
BRANCH   1   9
ATOM      9  C   UNL     1       8.172   1.571  22.987  0.00  0.00    +0.325 C 
ATOM     10  O   UNL     1       7.275   0.976  22.411  0.00  0.00    -0.249 OA
BRANCH   9  11
ATOM     11  O   UNL     1       7.941   2.531  23.924  0.00  0.00    -0.479 OA
ATOM     12  H   UNL     1       7.603   2.043  24.718  0.00  0.00    +0.295 HD
ENDBRANCH   9  11
ENDBRANCH   1   9
TORSDOF 3
ENDMDL
MODEL 8
REMARK VINA RESULT:      -3.8      2.127      2.719
REMARK  Name = 
REMARK  3 active torsions:
REMARK  status: ('A' for Active; 'I' for Inactive)
REMARK    1  A    between atoms: N_1  and  C_2
REMARK    2  A    between atoms: C_2  and  C_7
REMARK    3  A    between atoms: C_7  and  O_8
REMARK                            x       y       z     vdW  Elec       q    Type
REMARK                         _______ _______ _______ _____ _____    ______ ____
ROOT
ATOM      1  C   UNL     1       9.566   1.090  22.468  0.00  0.00    +0.115 C 
ATOM      2  C   UNL     1       9.948  -0.264  21.863  0.00  0.00    +0.033 C 
ATOM      3  C   UNL     1       8.779  -1.208  22.164  0.00  0.00    +0.002 C 
ATOM      4  C   UNL     1       7.705  -0.377  22.858  0.00  0.00    +0.002 C 
ATOM      5  C   UNL     1       8.038   1.070  22.511  0.00  0.00    +0.033 C 
ENDROOT
BRANCH   1   6
ATOM      6  N   UNL     1      10.081   2.226  21.645  0.00  0.00    -0.316 NA
ATOM      7  H   UNL     1       9.410   2.402  20.889  0.00  0.00    +0.119 HD
ATOM      8  H   UNL     1      10.040   3.079  22.213  0.00  0.00    +0.119 HD
ENDBRANCH   1   6
BRANCH   1   9
ATOM      9  C   UNL     1      10.151   1.249  23.899  0.00  0.00    +0.325 C 
ATOM     10  O   UNL     1      11.035   0.568  24.395  0.00  0.00    -0.249 OA
BRANCH   9  11
ATOM     11  O   UNL     1       9.542   2.269  24.561  0.00  0.00    -0.479 OA
ATOM     12  H   UNL     1       8.580   2.032  24.575  0.00  0.00    +0.295 HD
ENDBRANCH   9  11
ENDBRANCH   1   9
TORSDOF 3
ENDMDL
MODEL 9
REMARK VINA RESULT:      -3.8      5.935      6.446
REMARK  Name = 
REMARK  3 active torsions:
REMARK  status: ('A' for Active; 'I' for Inactive)
REMARK    1  A    between atoms: N_1  and  C_2
REMARK    2  A    between atoms: C_2  and  C_7
REMARK    3  A    between atoms: C_7  and  O_8
REMARK                            x       y       z     vdW  Elec       q    Type
REMARK                         _______ _______ _______ _____ _____    ______ ____
ROOT
ATOM      1  C   UNL     1       8.091  -4.780  26.077  0.00  0.00    +0.115 C 
ATOM      2  C   UNL     1       8.523  -3.376  26.511  0.00  0.00    +0.033 C 
ATOM      3  C   UNL     1       7.697  -2.398  25.670  0.00  0.00    +0.002 C 
ATOM      4  C   UNL     1       6.742  -3.236  24.826  0.00  0.00    +0.002 C 
ATOM      5  C   UNL     1       6.677  -4.589  25.526  0.00  0.00    +0.033 C 
ENDROOT
BRANCH   1   6
ATOM      6  N   UNL     1       8.114  -5.743  27.219  0.00  0.00    -0.316 NA
ATOM      7  H   UNL     1       9.057  -6.145  27.277  0.00  0.00    +0.119 HD
ATOM      8  H   UNL     1       8.020  -5.211  28.090  0.00  0.00    +0.119 HD
ENDBRANCH   1   6
BRANCH   1   9
ATOM      9  C   UNL     1       9.034  -5.341  24.977  0.00  0.00    +0.325 C 
ATOM     10  O   UNL     1       8.723  -5.601  23.825  0.00  0.00    -0.249 OA
BRANCH   9  11
ATOM     11  O   UNL     1      10.293  -5.520  25.462  0.00  0.00    -0.479 OA
ATOM     12  H   UNL     1      10.192  -6.154  26.217  0.00  0.00    +0.295 HD
ENDBRANCH   9  11
ENDBRANCH   1   9
TORSDOF 3
ENDMDL
