MODEL 1
REMARK VINA RESULT:      -6.8      0.000      0.000
REMARK  Name = 
REMARK  9 active torsions:
REMARK  status: ('A' for Active; 'I' for Inactive)
REMARK    1  A    between atoms: C_2  and  C_3
REMARK    2  A    between atoms: C_14  and  C_15
REMARK    3  A    between atoms: C_15  and  N_17
REMARK    4  A    between atoms: C_15  and  C_18
REMARK    5  A    between atoms: C_18  and  C_20
REMARK    6  A    between atoms: C_18  and  O_21
REMARK    7  A    between atoms: N_22  and  C_23
REMARK    8  A    between atoms: C_23  and  C_24
REMARK    9  A    between atoms: C_24  and  O_25
REMARK                            x       y       z     vdW  Elec       q    Type
REMARK                         _______ _______ _______ _____ _____    ______ ____
ROOT
ATOM      1  C   UNL     1       9.411  -3.574  24.329  0.00  0.00    +0.073 C 
ATOM      2  C   UNL     1       9.385  -2.235  24.254  0.00  0.00    +0.263 C 
ATOM      3  C   UNL     1      10.117  -1.449  23.234  0.00  0.00    +0.378 C 
ATOM      4  O   UNL     1      10.876  -1.872  22.383  0.00  0.00    -0.237 OA
ATOM      5  N   UNL     1       9.646  -0.172  23.428  0.00  0.00    -0.150 N 
ATOM      6  C   UNL     1       8.746  -0.218  24.450  0.00  0.00    +0.316 C 
ATOM      7  N   UNL     1       8.590  -1.389  24.979  0.00  0.00    -0.037 NA
ENDROOT
BRANCH   1   8
ATOM      8  C   UNL     1       8.607  -4.379  25.201  0.00  0.00    +0.004 A 
ATOM      9  C   UNL     1       7.268  -4.830  24.973  0.00  0.00    +0.007 A 
ATOM     10  C   UNL     1       6.873  -5.529  26.117  0.00  0.00    +0.047 A 
ATOM     11  C   UNL     1       5.604  -6.105  26.259  0.00  0.00    +0.026 A 
ATOM     12  C   UNL     1       4.707  -5.963  25.200  0.00  0.00    +0.002 A 
ATOM     13  C   UNL     1       5.064  -5.269  24.048  0.00  0.00    +0.001 A 
ATOM     14  N   UNL     1       7.931  -5.509  26.994  0.00  0.00    -0.360 N 
ATOM     15  H   UNL     1       7.927  -5.922  27.916  0.00  0.00    +0.165 HD
ATOM     16  C   UNL     1       6.336  -4.694  23.922  0.00  0.00    +0.010 A 
ATOM     17  C   UNL     1       8.984  -4.833  26.446  0.00  0.00    +0.091 A 
ENDBRANCH   1   8
BRANCH   5  18
ATOM     18  C   UNL     1       9.868   0.881  22.447  0.00  0.00    +0.263 C 
BRANCH  18  19
ATOM     19  C   UNL     1       8.691   1.155  21.505  0.00  0.00    +0.200 C 
BRANCH  19  20
ATOM     20  O   UNL     1       8.432   2.558  21.473  0.00  0.00    -0.391 OA
ATOM     21  H   UNL     1       8.882   2.953  22.241  0.00  0.00    +0.210 HD
ENDBRANCH  19  20
ENDBRANCH  18  19
ENDBRANCH   5  18
BRANCH   6  22
ATOM     22  C   UNL     1       7.958   1.004  24.947  0.00  0.00    +0.197 C 
BRANCH  22  23
ATOM     23  N   UNL     1       8.004   1.033  26.434  0.00  0.00    -0.316 NA
ATOM     24  H   UNL     1       8.210   0.113  26.815  0.00  0.00    +0.119 HD
ATOM     25  H   UNL     1       8.779   1.634  26.723  0.00  0.00    +0.119 HD
ENDBRANCH  22  23
BRANCH  22  26
ATOM     26  C   UNL     1       6.444   1.017  24.562  0.00  0.00    +0.140 C 
ATOM     27  C   UNL     1       5.886   2.305  23.973  0.00  0.00    +0.040 C 
BRANCH  26  28
ATOM     28  O   UNL     1       6.128  -0.076  23.689  0.00  0.00    -0.390 OA
ATOM     29  H   UNL     1       5.338  -0.495  24.085  0.00  0.00    +0.210 HD
ENDBRANCH  26  28
ENDBRANCH  22  26
ENDBRANCH   6  22
TORSDOF 8
ENDMDL
MODEL 2
REMARK VINA RESULT:      -6.7      2.802      6.821
REMARK  Name = 
REMARK  9 active torsions:
REMARK  status: ('A' for Active; 'I' for Inactive)
REMARK    1  A    between atoms: C_2  and  C_3
REMARK    2  A    between atoms: C_14  and  C_15
REMARK    3  A    between atoms: C_15  and  N_17
REMARK    4  A    between atoms: C_15  and  C_18
REMARK    5  A    between atoms: C_18  and  C_20
REMARK    6  A    between atoms: C_18  and  O_21
REMARK    7  A    between atoms: N_22  and  C_23
REMARK    8  A    between atoms: C_23  and  C_24
REMARK    9  A    between atoms: C_24  and  O_25
REMARK                            x       y       z     vdW  Elec       q    Type
REMARK                         _______ _______ _______ _____ _____    ______ ____
ROOT
ATOM      1  C   UNL     1       9.440  -2.438  24.607  0.00  0.00    +0.073 C 
ATOM      2  C   UNL     1       8.613  -3.493  24.624  0.00  0.00    +0.263 C 
ATOM      3  C   UNL     1       8.329  -4.304  25.831  0.00  0.00    +0.378 C 
ATOM      4  O   UNL     1       8.832  -4.185  26.932  0.00  0.00    -0.237 OA
ATOM      5  N   UNL     1       7.308  -5.128  25.420  0.00  0.00    -0.150 N 
ATOM      6  C   UNL     1       7.036  -4.827  24.119  0.00  0.00    +0.316 C 
ATOM      7  N   UNL     1       7.792  -3.908  23.609  0.00  0.00    -0.037 NA
ENDROOT
BRANCH   1   8
ATOM      8  C   UNL     1       9.628  -1.541  23.506  0.00  0.00    +0.004 A 
ATOM      9  C   UNL     1       9.754  -0.116  23.561  0.00  0.00    +0.007 A 
ATOM     10  C   UNL     1       9.860   0.336  22.242  0.00  0.00    +0.047 A 
ATOM     11  C   UNL     1       9.983   1.689  21.907  0.00  0.00    +0.026 A 
ATOM     12  C   UNL     1       9.998   2.615  22.950  0.00  0.00    +0.002 A 
ATOM     13  C   UNL     1       9.889   2.203  24.275  0.00  0.00    +0.001 A 
ATOM     14  N   UNL     1       9.810  -0.769  21.426  0.00  0.00    -0.360 N 
ATOM     15  H   UNL     1       9.847  -0.747  20.417  0.00  0.00    +0.165 HD
ATOM     16  C   UNL     1       9.761   0.844  24.595  0.00  0.00    +0.010 A 
ATOM     17  C   UNL     1       9.687  -1.904  22.177  0.00  0.00    +0.091 A 
ENDBRANCH   1   8
BRANCH   5  18
ATOM     18  C   UNL     1       6.509  -5.887  26.373  0.00  0.00    +0.263 C 
BRANCH  18  19
ATOM     19  C   UNL     1       5.730  -5.046  27.389  0.00  0.00    +0.200 C 
BRANCH  19  20
ATOM     20  O   UNL     1       6.383  -5.118  28.656  0.00  0.00    -0.391 OA
ATOM     21  H   UNL     1       5.760  -5.532  29.279  0.00  0.00    +0.210 HD
ENDBRANCH  19  20
ENDBRANCH  18  19
ENDBRANCH   5  18
BRANCH   6  22
ATOM     22  C   UNL     1       5.921  -5.500  23.303  0.00  0.00    +0.197 C 
BRANCH  22  23
ATOM     23  N   UNL     1       6.481  -5.938  21.996  0.00  0.00    -0.316 NA
ATOM     24  H   UNL     1       7.314  -6.506  22.122  0.00  0.00    +0.119 HD
ATOM     25  H   UNL     1       5.797  -6.544  21.538  0.00  0.00    +0.119 HD
ENDBRANCH  22  23
BRANCH  22  26
ATOM     26  C   UNL     1       4.702  -4.583  22.966  0.00  0.00    +0.140 C 
ATOM     27  C   UNL     1       3.934  -3.988  24.137  0.00  0.00    +0.040 C 
BRANCH  26  28
ATOM     28  O   UNL     1       5.085  -3.530  22.070  0.00  0.00    -0.390 OA
ATOM     29  H   UNL     1       4.839  -3.853  21.181  0.00  0.00    +0.210 HD
ENDBRANCH  26  28
ENDBRANCH  22  26
ENDBRANCH   6  22
TORSDOF 8
ENDMDL
MODEL 3
REMARK VINA RESULT:      -6.4      2.552      6.569
REMARK  Name = 
REMARK  9 active torsions:
REMARK  status: ('A' for Active; 'I' for Inactive)
REMARK    1  A    between atoms: C_2  and  C_3
REMARK    2  A    between atoms: C_14  and  C_15
REMARK    3  A    between atoms: C_15  and  N_17
REMARK    4  A    between atoms: C_15  and  C_18
REMARK    5  A    between atoms: C_18  and  C_20
REMARK    6  A    between atoms: C_18  and  O_21
REMARK    7  A    between atoms: N_22  and  C_23
REMARK    8  A    between atoms: C_23  and  C_24
REMARK    9  A    between atoms: C_24  and  O_25
REMARK                            x       y       z     vdW  Elec       q    Type
REMARK                         _______ _______ _______ _____ _____    ______ ____
ROOT
ATOM      1  C   UNL     1       9.345  -1.034  23.352  0.00  0.00    +0.073 C 
ATOM      2  C   UNL     1       8.706  -2.208  23.243  0.00  0.00    +0.263 C 
ATOM      3  C   UNL     1       9.034  -3.408  24.047  0.00  0.00    +0.378 C 
ATOM      4  O   UNL     1       9.939  -3.530  24.850  0.00  0.00    -0.237 OA
ATOM      5  N   UNL     1       8.017  -4.279  23.735  0.00  0.00    -0.150 N 
ATOM      6  C   UNL     1       7.197  -3.651  22.846  0.00  0.00    +0.316 C 
ATOM      7  N   UNL     1       7.577  -2.461  22.509  0.00  0.00    -0.037 NA
ENDROOT
BRANCH   1   8
ATOM      8  C   UNL     1       8.967   0.188  22.705  0.00  0.00    +0.004 A 
ATOM      9  C   UNL     1       7.820   0.996  22.983  0.00  0.00    +0.007 A 
ATOM     10  C   UNL     1       7.832   2.052  22.066  0.00  0.00    +0.047 A 
ATOM     11  C   UNL     1       6.843   3.042  22.029  0.00  0.00    +0.026 A 
ATOM     12  C   UNL     1       5.804   2.954  22.957  0.00  0.00    +0.002 A 
ATOM     13  C   UNL     1       5.757   1.915  23.881  0.00  0.00    +0.001 A 
ATOM     14  N   UNL     1       8.944   1.892  21.275  0.00  0.00    -0.360 N 
ATOM     15  H   UNL     1       9.202   2.499  20.510  0.00  0.00    +0.165 HD
ATOM     16  C   UNL     1       6.752   0.928  23.903  0.00  0.00    +0.010 A 
ATOM     17  C   UNL     1       9.642   0.783  21.661  0.00  0.00    +0.091 A 
ENDBRANCH   1   8
BRANCH   5  18
ATOM     18  C   UNL     1       7.769  -5.477  24.526  0.00  0.00    +0.263 C 
BRANCH  18  19
ATOM     19  C   UNL     1       7.176  -5.229  25.917  0.00  0.00    +0.200 C 
BRANCH  19  20
ATOM     20  O   UNL     1       8.023  -5.823  26.900  0.00  0.00    -0.391 OA
ATOM     21  H   UNL     1       7.524  -5.845  27.736  0.00  0.00    +0.210 HD
ENDBRANCH  19  20
ENDBRANCH  18  19
ENDBRANCH   5  18
BRANCH   6  22
ATOM     22  C   UNL     1       5.911  -4.278  22.283  0.00  0.00    +0.197 C 
BRANCH  22  23
ATOM     23  N   UNL     1       5.650  -3.706  20.935  0.00  0.00    -0.316 NA
ATOM     24  H   UNL     1       5.799  -2.701  20.924  0.00  0.00    +0.119 HD
ATOM     25  H   UNL     1       6.332  -4.096  20.280  0.00  0.00    +0.119 HD
ENDBRANCH  22  23
BRANCH  22  26
ATOM     26  C   UNL     1       4.622  -4.010  23.123  0.00  0.00    +0.140 C 
ATOM     27  C   UNL     1       3.947  -5.214  23.766  0.00  0.00    +0.040 C 
BRANCH  26  28
ATOM     28  O   UNL     1       4.860  -3.013  24.126  0.00  0.00    -0.390 OA
ATOM     29  H   UNL     1       5.776  -2.709  23.967  0.00  0.00    +0.210 HD
ENDBRANCH  26  28
ENDBRANCH  22  26
ENDBRANCH   6  22
TORSDOF 8
ENDMDL
MODEL 4
REMARK VINA RESULT:      -6.4      1.392      2.039
REMARK  Name = 
REMARK  9 active torsions:
REMARK  status: ('A' for Active; 'I' for Inactive)
REMARK    1  A    between atoms: C_2  and  C_3
REMARK    2  A    between atoms: C_14  and  C_15
REMARK    3  A    between atoms: C_15  and  N_17
REMARK    4  A    between atoms: C_15  and  C_18
REMARK    5  A    between atoms: C_18  and  C_20
REMARK    6  A    between atoms: C_18  and  O_21
REMARK    7  A    between atoms: N_22  and  C_23
REMARK    8  A    between atoms: C_23  and  C_24
REMARK    9  A    between atoms: C_24  and  O_25
REMARK                            x       y       z     vdW  Elec       q    Type
REMARK                         _______ _______ _______ _____ _____    ______ ____
ROOT
ATOM      1  C   UNL     1       8.323  -4.055  23.836  0.00  0.00    +0.073 C 
ATOM      2  C   UNL     1       8.521  -2.746  24.049  0.00  0.00    +0.263 C 
ATOM      3  C   UNL     1       9.691  -1.993  23.541  0.00  0.00    +0.378 C 
ATOM      4  O   UNL     1      10.646  -2.438  22.934  0.00  0.00    -0.237 OA
ATOM      5  N   UNL     1       9.372  -0.688  23.834  0.00  0.00    -0.150 N 
ATOM      6  C   UNL     1       8.155  -0.691  24.447  0.00  0.00    +0.316 C 
ATOM      7  N   UNL     1       7.642  -1.866  24.621  0.00  0.00    -0.037 NA
ENDROOT
BRANCH   1   8
ATOM      8  C   UNL     1       7.140  -4.789  24.180  0.00  0.00    +0.004 A 
ATOM      9  C   UNL     1       6.726  -5.201  25.486  0.00  0.00    +0.007 A 
ATOM     10  C   UNL     1       5.548  -5.938  25.327  0.00  0.00    +0.047 A 
ATOM     11  C   UNL     1       4.861  -6.518  26.400  0.00  0.00    +0.026 A 
ATOM     12  C   UNL     1       5.391  -6.344  27.678  0.00  0.00    +0.002 A 
ATOM     13  C   UNL     1       6.564  -5.622  27.874  0.00  0.00    +0.001 A 
ATOM     14  N   UNL     1       5.258  -5.960  23.984  0.00  0.00    -0.360 N 
ATOM     15  H   UNL     1       4.470  -6.436  23.569  0.00  0.00    +0.165 HD
ATOM     16  C   UNL     1       7.244  -5.051  26.790  0.00  0.00    +0.010 A 
ATOM     17  C   UNL     1       6.200  -5.258  23.287  0.00  0.00    +0.091 A 
ENDBRANCH   1   8
BRANCH   5  18
ATOM     18  C   UNL     1      10.100   0.427  23.243  0.00  0.00    +0.263 C 
BRANCH  18  19
ATOM     19  C   UNL     1       9.606   0.872  21.863  0.00  0.00    +0.200 C 
BRANCH  19  20
ATOM     20  O   UNL     1      10.163   2.149  21.554  0.00  0.00    -0.391 OA
ATOM     21  H   UNL     1       9.529   2.822  21.860  0.00  0.00    +0.210 HD
ENDBRANCH  19  20
ENDBRANCH  18  19
ENDBRANCH   5  18
BRANCH   6  22
ATOM     22  C   UNL     1       7.423   0.584  24.894  0.00  0.00    +0.197 C 
BRANCH  22  23
ATOM     23  N   UNL     1       7.982   1.025  26.200  0.00  0.00    -0.316 NA
ATOM     24  H   UNL     1       7.251   1.137  26.897  0.00  0.00    +0.119 HD
ATOM     25  H   UNL     1       8.595   0.287  26.556  0.00  0.00    +0.119 HD
ENDBRANCH  22  23
BRANCH  22  26
ATOM     26  C   UNL     1       5.885   0.422  25.115  0.00  0.00    +0.140 C 
ATOM     27  C   UNL     1       5.354   0.676  26.519  0.00  0.00    +0.040 C 
BRANCH  26  28
ATOM     28  O   UNL     1       5.146   1.219  24.181  0.00  0.00    -0.390 OA
ATOM     29  H   UNL     1       4.862   2.006  24.688  0.00  0.00    +0.210 HD
ENDBRANCH  26  28
ENDBRANCH  22  26
ENDBRANCH   6  22
TORSDOF 8
ENDMDL
MODEL 5
REMARK VINA RESULT:      -6.3      2.541      6.709
REMARK  Name = 
REMARK  9 active torsions:
REMARK  status: ('A' for Active; 'I' for Inactive)
REMARK    1  A    between atoms: C_2  and  C_3
REMARK    2  A    between atoms: C_14  and  C_15
REMARK    3  A    between atoms: C_15  and  N_17
REMARK    4  A    between atoms: C_15  and  C_18
REMARK    5  A    between atoms: C_18  and  C_20
REMARK    6  A    between atoms: C_18  and  O_21
REMARK    7  A    between atoms: N_22  and  C_23
REMARK    8  A    between atoms: C_23  and  C_24
REMARK    9  A    between atoms: C_24  and  O_25
REMARK                            x       y       z     vdW  Elec       q    Type
REMARK                         _______ _______ _______ _____ _____    ______ ____
ROOT
ATOM      1  C   UNL     1       6.611  -1.108  23.290  0.00  0.00    +0.073 C 
ATOM      2  C   UNL     1       6.428  -2.372  23.697  0.00  0.00    +0.263 C 
ATOM      3  C   UNL     1       5.754  -3.413  22.887  0.00  0.00    +0.378 C 
ATOM      4  O   UNL     1       5.227  -3.274  21.801  0.00  0.00    -0.237 OA
ATOM      5  N   UNL     1       5.970  -4.560  23.614  0.00  0.00    -0.150 N 
ATOM      6  C   UNL     1       6.684  -4.216  24.722  0.00  0.00    +0.316 C 
ATOM      7  N   UNL     1       6.942  -2.953  24.826  0.00  0.00    -0.037 NA
ENDROOT
BRANCH   1   8
ATOM      8  C   UNL     1       7.382  -0.112  23.974  0.00  0.00    +0.004 A 
ATOM      9  C   UNL     1       8.420   0.708  23.427  0.00  0.00    +0.007 A 
ATOM     10  C   UNL     1       8.924   1.483  24.475  0.00  0.00    +0.047 A 
ATOM     11  C   UNL     1       9.971   2.398  24.312  0.00  0.00    +0.026 A 
ATOM     12  C   UNL     1      10.523   2.529  23.038  0.00  0.00    +0.002 A 
ATOM     13  C   UNL     1      10.050   1.771  21.971  0.00  0.00    +0.001 A 
ATOM     14  N   UNL     1       8.216   1.152  25.605  0.00  0.00    -0.360 N 
ATOM     15  H   UNL     1       8.374   1.542  26.523  0.00  0.00    +0.165 HD
ATOM     16  C   UNL     1       9.005   0.854  22.151  0.00  0.00    +0.010 A 
ATOM     17  C   UNL     1       7.275   0.206  25.311  0.00  0.00    +0.091 A 
ENDBRANCH   1   8
BRANCH   5  18
ATOM     18  C   UNL     1       5.742  -5.880  23.042  0.00  0.00    +0.263 C 
BRANCH  18  19
ATOM     19  C   UNL     1       6.733  -6.300  21.952  0.00  0.00    +0.200 C 
BRANCH  19  20
ATOM     20  O   UNL     1       6.231  -5.897  20.679  0.00  0.00    -0.391 OA
ATOM     21  H   UNL     1       6.664  -6.453  20.007  0.00  0.00    +0.210 HD
ENDBRANCH  19  20
ENDBRANCH  18  19
ENDBRANCH   5  18
BRANCH   6  22
ATOM     22  C   UNL     1       7.167  -5.228  25.773  0.00  0.00    +0.197 C 
BRANCH  22  23
ATOM     23  N   UNL     1       6.264  -5.162  26.953  0.00  0.00    -0.316 NA
ATOM     24  H   UNL     1       6.718  -4.709  27.741  0.00  0.00    +0.119 HD
ATOM     25  H   UNL     1       5.464  -4.572  26.716  0.00  0.00    +0.119 HD
ENDBRANCH  22  23
BRANCH  22  26
ATOM     26  C   UNL     1       8.609  -4.978  26.319  0.00  0.00    +0.140 C 
ATOM     27  C   UNL     1       9.758  -5.091  25.326  0.00  0.00    +0.040 C 
BRANCH  26  28
ATOM     28  O   UNL     1       8.691  -3.715  26.992  0.00  0.00    -0.390 OA
ATOM     29  H   UNL     1       9.649  -3.528  27.063  0.00  0.00    +0.210 HD
ENDBRANCH  26  28
ENDBRANCH  22  26
ENDBRANCH   6  22
TORSDOF 8
ENDMDL
MODEL 6
REMARK VINA RESULT:      -6.2      3.253      6.913
REMARK  Name = 
REMARK  9 active torsions:
REMARK  status: ('A' for Active; 'I' for Inactive)
REMARK    1  A    between atoms: C_2  and  C_3
REMARK    2  A    between atoms: C_14  and  C_15
REMARK    3  A    between atoms: C_15  and  N_17
REMARK    4  A    between atoms: C_15  and  C_18
REMARK    5  A    between atoms: C_18  and  C_20
REMARK    6  A    between atoms: C_18  and  O_21
REMARK    7  A    between atoms: N_22  and  C_23
REMARK    8  A    between atoms: C_23  and  C_24
REMARK    9  A    between atoms: C_24  and  O_25
REMARK                            x       y       z     vdW  Elec       q    Type
REMARK                         _______ _______ _______ _____ _____    ______ ____
ROOT
ATOM      1  C   UNL     1       8.422  -3.307  26.288  0.00  0.00    +0.073 C 
ATOM      2  C   UNL     1       7.393  -4.032  25.826  0.00  0.00    +0.263 C 
ATOM      3  C   UNL     1       7.029  -5.374  26.339  0.00  0.00    +0.378 C 
ATOM      4  O   UNL     1       7.621  -6.027  27.177  0.00  0.00    -0.237 OA
ATOM      5  N   UNL     1       5.830  -5.629  25.718  0.00  0.00    -0.150 N 
ATOM      6  C   UNL     1       5.538  -4.556  24.931  0.00  0.00    +0.316 C 
ATOM      7  N   UNL     1       6.433  -3.622  24.939  0.00  0.00    -0.037 NA
ENDROOT
BRANCH   1   8
ATOM      8  C   UNL     1       8.720  -1.952  25.927  0.00  0.00    +0.004 A 
ATOM      9  C   UNL     1       9.238  -1.482  24.679  0.00  0.00    +0.007 A 
ATOM     10  C   UNL     1       9.424  -0.103  24.807  0.00  0.00    +0.047 A 
ATOM     11  C   UNL     1       9.937   0.697  23.779  0.00  0.00    +0.026 A 
ATOM     12  C   UNL     1      10.273   0.070  22.579  0.00  0.00    +0.002 A 
ATOM     13  C   UNL     1      10.107  -1.302  22.417  0.00  0.00    +0.001 A 
ATOM     14  N   UNL     1       9.025   0.247  26.075  0.00  0.00    -0.360 N 
ATOM     15  H   UNL     1       9.064   1.181  26.458  0.00  0.00    +0.165 HD
ATOM     16  C   UNL     1       9.597  -2.090  23.457  0.00  0.00    +0.010 A 
ATOM     17  C   UNL     1       8.585  -0.856  26.751  0.00  0.00    +0.091 A 
ENDBRANCH   1   8
BRANCH   5  18
ATOM     18  C   UNL     1       4.957  -6.709  26.158  0.00  0.00    +0.263 C 
BRANCH  18  19
ATOM     19  C   UNL     1       4.517  -6.637  27.623  0.00  0.00    +0.200 C 
BRANCH  19  20
ATOM     20  O   UNL     1       5.293  -7.555  28.393  0.00  0.00    -0.391 OA
ATOM     21  H   UNL     1       6.038  -7.057  28.772  0.00  0.00    +0.210 HD
ENDBRANCH  19  20
ENDBRANCH  18  19
ENDBRANCH   5  18
BRANCH   6  22
ATOM     22  C   UNL     1       4.251  -4.433  24.100  0.00  0.00    +0.197 C 
BRANCH  22  23
ATOM     23  N   UNL     1       3.138  -4.021  24.998  0.00  0.00    -0.316 NA
ATOM     24  H   UNL     1       2.353  -3.653  24.468  0.00  0.00    +0.119 HD
ATOM     25  H   UNL     1       2.785  -4.851  25.479  0.00  0.00    +0.119 HD
ENDBRANCH  22  23
BRANCH  22  26
ATOM     26  C   UNL     1       3.781  -5.752  23.408  0.00  0.00    +0.140 C 
ATOM     27  C   UNL     1       2.299  -5.878  23.084  0.00  0.00    +0.040 C 
BRANCH  26  28
ATOM     28  O   UNL     1       4.545  -6.009  22.222  0.00  0.00    -0.390 OA
ATOM     29  H   UNL     1       4.889  -6.918  22.335  0.00  0.00    +0.210 HD
ENDBRANCH  26  28
ENDBRANCH  22  26
ENDBRANCH   6  22
TORSDOF 8
ENDMDL
MODEL 7
REMARK VINA RESULT:      -6.1      2.152      3.826
REMARK  Name = 
REMARK  9 active torsions:
REMARK  status: ('A' for Active; 'I' for Inactive)
REMARK    1  A    between atoms: C_2  and  C_3
REMARK    2  A    between atoms: C_14  and  C_15
REMARK    3  A    between atoms: C_15  and  N_17
REMARK    4  A    between atoms: C_15  and  C_18
REMARK    5  A    between atoms: C_18  and  C_20
REMARK    6  A    between atoms: C_18  and  O_21
REMARK    7  A    between atoms: N_22  and  C_23
REMARK    8  A    between atoms: C_23  and  C_24
REMARK    9  A    between atoms: C_24  and  O_25
REMARK                            x       y       z     vdW  Elec       q    Type
REMARK                         _______ _______ _______ _____ _____    ______ ____
ROOT
ATOM      1  C   UNL     1       5.930  -1.441  24.515  0.00  0.00    +0.073 C 
ATOM      2  C   UNL     1       6.426  -0.274  24.081  0.00  0.00    +0.263 C 
ATOM      3  C   UNL     1       5.797   1.041  24.340  0.00  0.00    +0.378 C 
ATOM      4  O   UNL     1       4.742   1.253  24.906  0.00  0.00    -0.237 OA
ATOM      5  N   UNL     1       6.738   1.933  23.882  0.00  0.00    -0.150 N 
ATOM      6  C   UNL     1       7.791   1.210  23.408  0.00  0.00    +0.316 C 
ATOM      7  N   UNL     1       7.638  -0.074  23.474  0.00  0.00    -0.037 NA
ENDROOT
BRANCH   1   8
ATOM      8  C   UNL     1       6.579  -2.716  24.416  0.00  0.00    +0.004 A 
ATOM      9  C   UNL     1       6.546  -3.620  23.307  0.00  0.00    +0.007 A 
ATOM     10  C   UNL     1       7.270  -4.755  23.685  0.00  0.00    +0.047 A 
ATOM     11  C   UNL     1       7.438  -5.866  22.849  0.00  0.00    +0.026 A 
ATOM     12  C   UNL     1       6.848  -5.820  21.585  0.00  0.00    +0.002 A 
ATOM     13  C   UNL     1       6.117  -4.708  21.177  0.00  0.00    +0.001 A 
ATOM     14  N   UNL     1       7.728  -4.541  24.963  0.00  0.00    -0.360 N 
ATOM     15  H   UNL     1       8.268  -5.202  25.502  0.00  0.00    +0.165 HD
ATOM     16  C   UNL     1       5.952  -3.606  22.027  0.00  0.00    +0.010 A 
ATOM     17  C   UNL     1       7.331  -3.311  25.405  0.00  0.00    +0.091 A 
ENDBRANCH   1   8
BRANCH   5  18
ATOM     18  C   UNL     1       6.672   3.350  24.212  0.00  0.00    +0.263 C 
BRANCH  18  19
ATOM     19  C   UNL     1       5.947   4.226  23.186  0.00  0.00    +0.200 C 
BRANCH  19  20
ATOM     20  O   UNL     1       6.650   4.175  21.945  0.00  0.00    -0.391 OA
ATOM     21  H   UNL     1       7.297   4.903  21.948  0.00  0.00    +0.210 HD
ENDBRANCH  19  20
ENDBRANCH  18  19
ENDBRANCH   5  18
BRANCH   6  22
ATOM     22  C   UNL     1       9.075   1.841  22.846  0.00  0.00    +0.197 C 
BRANCH  22  23
ATOM     23  N   UNL     1       8.926   2.002  21.374  0.00  0.00    -0.316 NA
ATOM     24  H   UNL     1       9.548   2.721  21.016  0.00  0.00    +0.119 HD
ATOM     25  H   UNL     1       9.217   1.132  20.923  0.00  0.00    +0.119 HD
ENDBRANCH  22  23
BRANCH  22  26
ATOM     26  C   UNL     1      10.374   1.001  23.059  0.00  0.00    +0.140 C 
ATOM     27  C   UNL     1      10.862   0.825  24.490  0.00  0.00    +0.040 C 
BRANCH  26  28
ATOM     28  O   UNL     1      10.260  -0.287  22.440  0.00  0.00    -0.390 OA
ATOM     29  H   UNL     1       9.353  -0.313  22.076  0.00  0.00    +0.210 HD
ENDBRANCH  26  28
ENDBRANCH  22  26
ENDBRANCH   6  22
TORSDOF 8
ENDMDL
MODEL 8
REMARK VINA RESULT:      -6.1      2.724      6.413
REMARK  Name = 
REMARK  9 active torsions:
REMARK  status: ('A' for Active; 'I' for Inactive)
REMARK    1  A    between atoms: C_2  and  C_3
REMARK    2  A    between atoms: C_14  and  C_15
REMARK    3  A    between atoms: C_15  and  N_17
REMARK    4  A    between atoms: C_15  and  C_18
REMARK    5  A    between atoms: C_18  and  C_20
REMARK    6  A    between atoms: C_18  and  O_21
REMARK    7  A    between atoms: N_22  and  C_23
REMARK    8  A    between atoms: C_23  and  C_24
REMARK    9  A    between atoms: C_24  and  O_25
REMARK                            x       y       z     vdW  Elec       q    Type
REMARK                         _______ _______ _______ _____ _____    ______ ____
ROOT
ATOM      1  C   UNL     1       9.021  -2.490  22.641  0.00  0.00    +0.073 C 
ATOM      2  C   UNL     1       8.043  -2.904  23.459  0.00  0.00    +0.263 C 
ATOM      3  C   UNL     1       7.962  -4.269  24.028  0.00  0.00    +0.378 C 
ATOM      4  O   UNL     1       8.702  -5.207  23.800  0.00  0.00    -0.237 OA
ATOM      5  N   UNL     1       6.930  -4.170  24.931  0.00  0.00    -0.150 N 
ATOM      6  C   UNL     1       6.466  -2.889  24.884  0.00  0.00    +0.316 C 
ATOM      7  N   UNL     1       7.061  -2.132  24.020  0.00  0.00    -0.037 NA
ENDROOT
BRANCH   1   8
ATOM      8  C   UNL     1       9.219  -1.144  22.188  0.00  0.00    +0.004 A 
ATOM      9  C   UNL     1       9.839  -0.072  22.903  0.00  0.00    +0.007 A 
ATOM     10  C   UNL     1       9.752   1.064  22.093  0.00  0.00    +0.047 A 
ATOM     11  C   UNL     1      10.246   2.316  22.478  0.00  0.00    +0.026 A 
ATOM     12  C   UNL     1      10.847   2.416  23.733  0.00  0.00    +0.002 A 
ATOM     13  C   UNL     1      10.947   1.308  24.569  0.00  0.00    +0.001 A 
ATOM     14  N   UNL     1       9.115   0.691  20.933  0.00  0.00    -0.360 N 
ATOM     15  H   UNL     1       8.897   1.311  20.167  0.00  0.00    +0.165 HD
ATOM     16  C   UNL     1      10.444   0.062  24.171  0.00  0.00    +0.010 A 
ATOM     17  C   UNL     1       8.805  -0.639  20.974  0.00  0.00    +0.091 A 
ENDBRANCH   1   8
BRANCH   5  18
ATOM     18  C   UNL     1       6.697  -5.194  25.940  0.00  0.00    +0.263 C 
BRANCH  18  19
ATOM     19  C   UNL     1       7.685  -5.194  27.111  0.00  0.00    +0.200 C 
BRANCH  19  20
ATOM     20  O   UNL     1       7.360  -6.263  27.999  0.00  0.00    -0.391 OA
ATOM     21  H   UNL     1       8.085  -6.911  27.949  0.00  0.00    +0.210 HD
ENDBRANCH  19  20
ENDBRANCH  18  19
ENDBRANCH   5  18
BRANCH   6  22
ATOM     22  C   UNL     1       5.336  -2.359  25.780  0.00  0.00    +0.197 C 
BRANCH  22  23
ATOM     23  N   UNL     1       4.029  -2.686  25.149  0.00  0.00    -0.316 NA
ATOM     24  H   UNL     1       3.591  -1.859  24.754  0.00  0.00    +0.119 HD
ATOM     25  H   UNL     1       4.199  -3.315  24.360  0.00  0.00    +0.119 HD
ENDBRANCH  22  23
BRANCH  22  26
ATOM     26  C   UNL     1       5.334  -0.812  25.998  0.00  0.00    +0.140 C 
ATOM     27  C   UNL     1       6.470  -0.224  26.824  0.00  0.00    +0.040 C 
BRANCH  26  28
ATOM     28  O   UNL     1       5.255  -0.118  24.745  0.00  0.00    -0.390 OA
ATOM     29  H   UNL     1       4.961   0.786  24.976  0.00  0.00    +0.210 HD
ENDBRANCH  26  28
ENDBRANCH  22  26
ENDBRANCH   6  22
TORSDOF 8
ENDMDL
MODEL 9
REMARK VINA RESULT:      -6.0      2.949      6.766
REMARK  Name = 
REMARK  9 active torsions:
REMARK  status: ('A' for Active; 'I' for Inactive)
REMARK    1  A    between atoms: C_2  and  C_3
REMARK    2  A    between atoms: C_14  and  C_15
REMARK    3  A    between atoms: C_15  and  N_17
REMARK    4  A    between atoms: C_15  and  C_18
REMARK    5  A    between atoms: C_18  and  C_20
REMARK    6  A    between atoms: C_18  and  O_21
REMARK    7  A    between atoms: N_22  and  C_23
REMARK    8  A    between atoms: C_23  and  C_24
REMARK    9  A    between atoms: C_24  and  O_25
REMARK                            x       y       z     vdW  Elec       q    Type
REMARK                         _______ _______ _______ _____ _____    ______ ____
ROOT
ATOM      1  C   UNL     1       7.707  -1.995  22.267  0.00  0.00    +0.073 C 
ATOM      2  C   UNL     1       7.051  -2.907  22.998  0.00  0.00    +0.263 C 
ATOM      3  C   UNL     1       6.212  -3.983  22.419  0.00  0.00    +0.378 C 
ATOM      4  O   UNL     1       5.945  -4.157  21.246  0.00  0.00    -0.237 OA
ATOM      5  N   UNL     1       5.913  -4.765  23.510  0.00  0.00    -0.150 N 
ATOM      6  C   UNL     1       6.511  -4.199  24.596  0.00  0.00    +0.316 C 
ATOM      7  N   UNL     1       7.153  -3.104  24.349  0.00  0.00    -0.037 NA
ENDROOT
BRANCH   1   8
ATOM      8  C   UNL     1       8.643  -1.034  22.773  0.00  0.00    +0.004 A 
ATOM      9  C   UNL     1       8.347   0.225  23.386  0.00  0.00    +0.007 A 
ATOM     10  C   UNL     1       9.570   0.843  23.663  0.00  0.00    +0.047 A 
ATOM     11  C   UNL     1       9.669   2.108  24.254  0.00  0.00    +0.026 A 
ATOM     12  C   UNL     1       8.482   2.768  24.573  0.00  0.00    +0.002 A 
ATOM     13  C   UNL     1       7.246   2.186  24.307  0.00  0.00    +0.001 A 
ATOM     14  N   UNL     1      10.562  -0.011  23.244  0.00  0.00    -0.360 N 
ATOM     15  H   UNL     1      11.552   0.180  23.302  0.00  0.00    +0.165 HD
ATOM     16  C   UNL     1       7.162   0.921  23.710  0.00  0.00    +0.010 A 
ATOM     17  C   UNL     1      10.016  -1.149  22.722  0.00  0.00    +0.091 A 
ENDBRANCH   1   8
BRANCH   5  18
ATOM     18  C   UNL     1       5.356  -6.102  23.361  0.00  0.00    +0.263 C 
BRANCH  18  19
ATOM     19  C   UNL     1       3.880  -6.242  23.746  0.00  0.00    +0.200 C 
BRANCH  19  20
ATOM     20  O   UNL     1       3.545  -7.627  23.827  0.00  0.00    -0.391 OA
ATOM     21  H   UNL     1       4.015  -7.993  24.598  0.00  0.00    +0.210 HD
ENDBRANCH  19  20
ENDBRANCH  18  19
ENDBRANCH   5  18
BRANCH   6  22
ATOM     22  C   UNL     1       6.453  -4.800  26.010  0.00  0.00    +0.197 C 
BRANCH  22  23
ATOM     23  N   UNL     1       6.137  -3.716  26.979  0.00  0.00    -0.316 NA
ATOM     24  H   UNL     1       5.156  -3.454  26.934  0.00  0.00    +0.119 HD
ATOM     25  H   UNL     1       6.286  -4.074  27.925  0.00  0.00    +0.119 HD
ENDBRANCH  22  23
BRANCH  22  26
ATOM     26  C   UNL     1       7.783  -5.450  26.508  0.00  0.00    +0.140 C 
ATOM     27  C   UNL     1       9.010  -4.552  26.586  0.00  0.00    +0.040 C 
BRANCH  26  28
ATOM     28  O   UNL     1       7.595  -6.100  27.773  0.00  0.00    -0.390 OA
ATOM     29  H   UNL     1       6.766  -5.722  28.130  0.00  0.00    +0.210 HD
ENDBRANCH  26  28
ENDBRANCH  22  26
ENDBRANCH   6  22
TORSDOF 8
ENDMDL
