MODEL 1
REMARK VINA RESULT:      -7.3      0.000      0.000
REMARK  Name = 
REMARK  6 active torsions:
REMARK  status: ('A' for Active; 'I' for Inactive)
REMARK    1  A    between atoms: N_9  and  C_12
REMARK    2  A    between atoms: C_15  and  C_17
REMARK    3  A    between atoms: C_17  and  O_18
REMARK    4  A    between atoms: C_22  and  P_27
REMARK    5  A    between atoms: P_27  and  O_28
REMARK    6  A    between atoms: P_27  and  O_29
REMARK                            x       y       z     vdW  Elec       q    Type
REMARK                         _______ _______ _______ _____ _____    ______ ____
ROOT
ATOM      1  C   UNL     1       6.848  -3.110  25.779  0.00  0.00    +0.254 C 
ATOM      2  C   UNL     1       6.083  -4.361  26.144  0.00  0.00    +0.203 C 
ATOM      3  C   UNL     1       7.111  -5.458  26.192  0.00  0.00    +0.186 C 
ATOM      4  O   UNL     1       6.818  -6.222  27.361  0.00  0.00    -0.333 OA
ATOM      5  C   UNL     1       6.096  -5.355  28.248  0.00  0.00    +0.368 C 
ATOM      6  C   UNL     1       8.450  -4.731  26.326  0.00  0.00    +0.178 C 
ATOM      7  O   UNL     1       5.673  -4.184  27.522  0.00  0.00    -0.331 OA
ATOM      8  O   UNL     1       8.141  -3.320  26.410  0.00  0.00    -0.346 OA
ENDROOT
BRANCH   1  16
ATOM      9  N   UNL     1      10.334   0.481  25.551  0.00  0.00    -0.329 N 
ATOM     10  H   UNL     1       9.787   0.802  26.340  0.00  0.00    +0.145 HD
ATOM     11  H   UNL     1      10.948   1.209  25.197  0.00  0.00    +0.145 HD
ATOM     12  C   UNL     1       9.621  -0.119  24.561  0.00  0.00    +0.195 A 
ATOM     13  N   UNL     1       8.645  -0.925  25.070  0.00  0.00    -0.312 N 
ATOM     14  H   UNL     1       8.821  -1.294  25.997  0.00  0.00    +0.170 HD
ATOM     15  C   UNL     1       7.959  -1.642  24.181  0.00  0.00    +0.148 A 
ATOM     16  N   UNL     1       7.104  -2.681  24.432  0.00  0.00    -0.287 N 
ATOM     17  C   UNL     1       6.703  -3.135  23.209  0.00  0.00    +0.203 A 
ATOM     18  N   UNL     1       7.306  -2.483  22.225  0.00  0.00    -0.229 NA
ATOM     19  C   UNL     1       8.124  -1.555  22.838  0.00  0.00    +0.172 A 
ATOM     20  C   UNL     1       9.125  -0.601  22.320  0.00  0.00    +0.302 A 
ATOM     21  O   UNL     1       9.299  -0.432  21.120  0.00  0.00    -0.263 OA
ATOM     22  N   UNL     1       9.867   0.089  23.300  0.00  0.00    -0.176 NA
ENDBRANCH   1  16
BRANCH   5  23
ATOM     23  P   UNL     1       4.525  -6.196  28.663  0.00  0.00    +0.383 P 
ATOM     24  O   UNL     1       3.195  -6.908  29.013  0.00  0.00    -0.254 OA
BRANCH  23  25
ATOM     25  O   UNL     1       4.891  -5.955  30.266  0.00  0.00    -0.321 OA
ATOM     26  H   UNL     1       5.810  -5.687  30.459  0.00  0.00    +0.220 HD
ENDBRANCH  23  25
BRANCH  23  27
ATOM     27  O   UNL     1       5.410  -7.581  28.468  0.00  0.00    -0.321 OA
ATOM     28  H   UNL     1       5.632  -7.752  27.535  0.00  0.00    +0.220 HD
ENDBRANCH  23  27
ENDBRANCH   5  23
BRANCH   6  29
ATOM     29  C   UNL     1       9.361  -5.028  25.123  0.00  0.00    +0.190 C 
BRANCH  29  30
ATOM     30  O   UNL     1      10.629  -5.509  25.547  0.00  0.00    -0.392 OA
ATOM     31  H   UNL     1      10.520  -5.951  26.405  0.00  0.00    +0.210 HD
ENDBRANCH  29  30
ENDBRANCH   6  29
TORSDOF 6
ENDMDL
MODEL 2
REMARK VINA RESULT:      -7.3      3.433      7.224
REMARK  Name = 
REMARK  6 active torsions:
REMARK  status: ('A' for Active; 'I' for Inactive)
REMARK    1  A    between atoms: N_9  and  C_12
REMARK    2  A    between atoms: C_15  and  C_17
REMARK    3  A    between atoms: C_17  and  O_18
REMARK    4  A    between atoms: C_22  and  P_27
REMARK    5  A    between atoms: P_27  and  O_28
REMARK    6  A    between atoms: P_27  and  O_29
REMARK                            x       y       z     vdW  Elec       q    Type
REMARK                         _______ _______ _______ _____ _____    ______ ____
ROOT
ATOM      1  C   UNL     1       7.127  -2.101  23.719  0.00  0.00    +0.254 C 
ATOM      2  C   UNL     1       7.903  -0.878  24.151  0.00  0.00    +0.203 C 
ATOM      3  C   UNL     1       9.293  -1.372  24.448  0.00  0.00    +0.186 C 
ATOM      4  O   UNL     1      10.182  -0.418  23.868  0.00  0.00    -0.333 OA
ATOM      5  C   UNL     1       9.451   0.243  22.824  0.00  0.00    +0.368 C 
ATOM      6  C   UNL     1       9.386  -2.722  23.735  0.00  0.00    +0.178 C 
ATOM      7  O   UNL     1       8.051  -0.066  22.961  0.00  0.00    -0.331 OA
ATOM      8  O   UNL     1       8.130  -2.905  23.040  0.00  0.00    -0.346 OA
ENDROOT
BRANCH   1  16
ATOM      9  N   UNL     1       5.755  -6.392  21.528  0.00  0.00    -0.329 N 
ATOM     10  H   UNL     1       5.513  -5.727  20.804  0.00  0.00    +0.145 HD
ATOM     11  H   UNL     1       5.326  -7.299  21.365  0.00  0.00    +0.145 HD
ATOM     12  C   UNL     1       5.565  -5.953  22.801  0.00  0.00    +0.195 A 
ATOM     13  N   UNL     1       5.942  -4.649  22.937  0.00  0.00    -0.312 N 
ATOM     14  H   UNL     1       6.647  -4.326  22.286  0.00  0.00    +0.170 HD
ATOM     15  C   UNL     1       5.895  -4.155  24.174  0.00  0.00    +0.148 A 
ATOM     16  N   UNL     1       6.428  -2.976  24.620  0.00  0.00    -0.287 N 
ATOM     17  C   UNL     1       6.184  -2.943  25.963  0.00  0.00    +0.203 A 
ATOM     18  N   UNL     1       5.592  -4.053  26.378  0.00  0.00    -0.229 NA
ATOM     19  C   UNL     1       5.433  -4.836  25.252  0.00  0.00    +0.172 A 
ATOM     20  C   UNL     1       4.944  -6.214  25.047  0.00  0.00    +0.302 A 
ATOM     21  O   UNL     1       4.470  -6.876  25.961  0.00  0.00    -0.263 OA
ATOM     22  N   UNL     1       5.071  -6.713  23.735  0.00  0.00    -0.176 NA
ENDBRANCH   1  16
BRANCH   5  23
ATOM     23  P   UNL     1       9.533   2.039  23.165  0.00  0.00    +0.383 P 
ATOM     24  O   UNL     1       9.602   3.559  23.453  0.00  0.00    -0.254 OA
BRANCH  23  25
ATOM     25  O   UNL     1      10.193   2.233  21.652  0.00  0.00    -0.321 OA
ATOM     26  H   UNL     1       9.614   2.001  20.900  0.00  0.00    +0.220 HD
ENDBRANCH  23  25
BRANCH  23  27
ATOM     27  O   UNL     1      10.943   1.657  23.943  0.00  0.00    -0.321 OA
ATOM     28  H   UNL     1      11.582   1.212  23.357  0.00  0.00    +0.220 HD
ENDBRANCH  23  27
ENDBRANCH   5  23
BRANCH   6  29
ATOM     29  C   UNL     1       9.636  -3.859  24.740  0.00  0.00    +0.190 C 
BRANCH  29  30
ATOM     30  O   UNL     1       9.068  -5.079  24.286  0.00  0.00    -0.392 OA
ATOM     31  H   UNL     1       9.210  -5.758  24.967  0.00  0.00    +0.210 HD
ENDBRANCH  29  30
ENDBRANCH   6  29
TORSDOF 6
ENDMDL
MODEL 3
REMARK VINA RESULT:      -7.1      3.665      5.904
REMARK  Name = 
REMARK  6 active torsions:
REMARK  status: ('A' for Active; 'I' for Inactive)
REMARK    1  A    between atoms: N_9  and  C_12
REMARK    2  A    between atoms: C_15  and  C_17
REMARK    3  A    between atoms: C_17  and  O_18
REMARK    4  A    between atoms: C_22  and  P_27
REMARK    5  A    between atoms: P_27  and  O_28
REMARK    6  A    between atoms: P_27  and  O_29
REMARK                            x       y       z     vdW  Elec       q    Type
REMARK                         _______ _______ _______ _____ _____    ______ ____
ROOT
ATOM      1  C   UNL     1       9.215   0.571  24.630  0.00  0.00    +0.254 C 
ATOM      2  C   UNL     1       8.550  -0.784  24.551  0.00  0.00    +0.203 C 
ATOM      3  C   UNL     1       8.490  -1.114  23.085  0.00  0.00    +0.186 C 
ATOM      4  O   UNL     1       8.876  -2.483  22.973  0.00  0.00    -0.333 OA
ATOM      5  C   UNL     1       9.665  -2.783  24.134  0.00  0.00    +0.368 C 
ATOM      6  C   UNL     1       9.522  -0.191  22.436  0.00  0.00    +0.178 C 
ATOM      7  O   UNL     1       9.507  -1.724  25.098  0.00  0.00    -0.331 OA
ATOM      8  O   UNL     1      10.145   0.546  23.513  0.00  0.00    -0.346 OA
ENDROOT
BRANCH   1  16
ATOM      9  N   UNL     1      12.211   4.372  23.335  0.00  0.00    -0.329 N 
ATOM     10  H   UNL     1      12.801   3.888  24.001  0.00  0.00    +0.145 HD
ATOM     11  H   UNL     1      12.552   5.309  23.141  0.00  0.00    +0.145 HD
ATOM     12  C   UNL     1      10.882   4.356  23.624  0.00  0.00    +0.195 A 
ATOM     13  N   UNL     1      10.492   3.140  24.102  0.00  0.00    -0.312 N 
ATOM     14  H   UNL     1      11.056   2.351  23.805  0.00  0.00    +0.170 HD
ATOM     15  C   UNL     1       9.186   2.989  24.314  0.00  0.00    +0.148 A 
ATOM     16  N   UNL     1       8.512   1.823  24.562  0.00  0.00    -0.287 N 
ATOM     17  C   UNL     1       7.194   2.166  24.641  0.00  0.00    +0.203 A 
ATOM     18  N   UNL     1       7.010   3.455  24.395  0.00  0.00    -0.229 NA
ATOM     19  C   UNL     1       8.267   3.974  24.159  0.00  0.00    +0.172 A 
ATOM     20  C   UNL     1       8.740   5.306  23.732  0.00  0.00    +0.302 A 
ATOM     21  O   UNL     1       7.980   6.257  23.614  0.00  0.00    -0.263 OA
ATOM     22  N   UNL     1      10.121   5.399  23.461  0.00  0.00    -0.176 NA
ENDBRANCH   1  16
BRANCH   5  23
ATOM     23  P   UNL     1       8.894  -4.228  24.950  0.00  0.00    +0.383 P 
ATOM     24  O   UNL     1       8.241  -5.451  25.641  0.00  0.00    -0.254 OA
BRANCH  23  25
ATOM     25  O   UNL     1      10.369  -4.989  24.858  0.00  0.00    -0.321 OA
ATOM     26  H   UNL     1      10.607  -5.355  23.984  0.00  0.00    +0.220 HD
ENDBRANCH  23  25
BRANCH  23  27
ATOM     27  O   UNL     1       8.385  -4.608  23.421  0.00  0.00    -0.321 OA
ATOM     28  H   UNL     1       7.676  -4.017  23.109  0.00  0.00    +0.220 HD
ENDBRANCH  23  27
ENDBRANCH   5  23
BRANCH   6  29
ATOM     29  C   UNL     1       8.854   0.759  21.426  0.00  0.00    +0.190 C 
BRANCH  29  30
ATOM     30  O   UNL     1       9.591   1.965  21.292  0.00  0.00    -0.392 OA
ATOM     31  H   UNL     1       9.972   1.996  20.399  0.00  0.00    +0.210 HD
ENDBRANCH  29  30
ENDBRANCH   6  29
TORSDOF 6
ENDMDL
MODEL 4
REMARK VINA RESULT:      -6.9      3.267      7.268
REMARK  Name = 
REMARK  6 active torsions:
REMARK  status: ('A' for Active; 'I' for Inactive)
REMARK    1  A    between atoms: N_9  and  C_12
REMARK    2  A    between atoms: C_15  and  C_17
REMARK    3  A    between atoms: C_17  and  O_18
REMARK    4  A    between atoms: C_22  and  P_27
REMARK    5  A    between atoms: P_27  and  O_28
REMARK    6  A    between atoms: P_27  and  O_29
REMARK                            x       y       z     vdW  Elec       q    Type
REMARK                         _______ _______ _______ _____ _____    ______ ____
ROOT
ATOM      1  C   UNL     1       6.966  -2.847  25.226  0.00  0.00    +0.254 C 
ATOM      2  C   UNL     1       8.128  -2.245  24.470  0.00  0.00    +0.203 C 
ATOM      3  C   UNL     1       8.256  -3.064  23.216  0.00  0.00    +0.186 C 
ATOM      4  O   UNL     1       8.466  -2.132  22.155  0.00  0.00    -0.333 OA
ATOM      5  C   UNL     1       7.924  -0.879  22.597  0.00  0.00    +0.368 C 
ATOM      6  C   UNL     1       6.907  -3.771  23.074  0.00  0.00    +0.178 C 
ATOM      7  O   UNL     1       7.671  -0.948  24.014  0.00  0.00    -0.331 OA
ATOM      8  O   UNL     1       6.082  -3.299  24.164  0.00  0.00    -0.346 OA
ENDROOT
BRANCH   1  16
ATOM      9  N   UNL     1       2.524  -4.837  26.408  0.00  0.00    -0.329 N 
ATOM     10  H   UNL     1       2.300  -3.850  26.441  0.00  0.00    +0.145 HD
ATOM     11  H   UNL     1       1.807  -5.400  26.857  0.00  0.00    +0.145 HD
ATOM     12  C   UNL     1       3.774  -5.159  26.833  0.00  0.00    +0.195 A 
ATOM     13  N   UNL     1       4.695  -4.251  26.400  0.00  0.00    -0.312 N 
ATOM     14  H   UNL     1       4.455  -3.755  25.550  0.00  0.00    +0.170 HD
ATOM     15  C   UNL     1       5.967  -4.536  26.673  0.00  0.00    +0.148 A 
ATOM     16  N   UNL     1       7.084  -3.930  26.163  0.00  0.00    -0.287 N 
ATOM     17  C   UNL     1       8.146  -4.611  26.684  0.00  0.00    +0.203 A 
ATOM     18  N   UNL     1       7.752  -5.632  27.430  0.00  0.00    -0.229 NA
ATOM     19  C   UNL     1       6.372  -5.605  27.402  0.00  0.00    +0.172 A 
ATOM     20  C   UNL     1       5.339  -6.515  27.936  0.00  0.00    +0.302 A 
ATOM     21  O   UNL     1       5.621  -7.475  28.640  0.00  0.00    -0.263 OA
ATOM     22  N   UNL     1       4.013  -6.206  27.568  0.00  0.00    -0.176 NA
ENDBRANCH   1  16
BRANCH   5  23
ATOM     23  P   UNL     1       9.258   0.365  22.456  0.00  0.00    +0.383 P 
ATOM     24  O   UNL     1      10.388   1.417  22.337  0.00  0.00    -0.254 OA
BRANCH  23  25
ATOM     25  O   UNL     1       8.237   1.262  21.500  0.00  0.00    -0.321 OA
ATOM     26  H   UNL     1       7.376   0.851  21.292  0.00  0.00    +0.220 HD
ENDBRANCH  23  25
BRANCH  23  27
ATOM     27  O   UNL     1       9.825  -0.626  21.257  0.00  0.00    -0.321 OA
ATOM     28  H   UNL     1       9.372  -0.477  20.408  0.00  0.00    +0.220 HD
ENDBRANCH  23  27
ENDBRANCH   5  23
BRANCH   6  29
ATOM     29  C   UNL     1       7.077  -5.299  23.128  0.00  0.00    +0.190 C 
BRANCH  29  30
ATOM     30  O   UNL     1       8.424  -5.656  23.402  0.00  0.00    -0.392 OA
ATOM     31  H   UNL     1       8.428  -6.499  23.885  0.00  0.00    +0.210 HD
ENDBRANCH  29  30
ENDBRANCH   6  29
TORSDOF 6
ENDMDL
MODEL 5
REMARK VINA RESULT:      -6.8      3.895      7.667
REMARK  Name = 
REMARK  6 active torsions:
REMARK  status: ('A' for Active; 'I' for Inactive)
REMARK    1  A    between atoms: N_9  and  C_12
REMARK    2  A    between atoms: C_15  and  C_17
REMARK    3  A    between atoms: C_17  and  O_18
REMARK    4  A    between atoms: C_22  and  P_27
REMARK    5  A    between atoms: P_27  and  O_28
REMARK    6  A    between atoms: P_27  and  O_29
REMARK                            x       y       z     vdW  Elec       q    Type
REMARK                         _______ _______ _______ _____ _____    ______ ____
ROOT
ATOM      1  C   UNL     1       7.205  -0.346  23.580  0.00  0.00    +0.254 C 
ATOM      2  C   UNL     1       7.395   1.139  23.786  0.00  0.00    +0.203 C 
ATOM      3  C   UNL     1       8.664   1.483  23.054  0.00  0.00    +0.186 C 
ATOM      4  O   UNL     1       8.396   2.697  22.352  0.00  0.00    -0.333 OA
ATOM      5  C   UNL     1       6.974   2.763  22.174  0.00  0.00    +0.368 C 
ATOM      6  C   UNL     1       8.884   0.320  22.087  0.00  0.00    +0.178 C 
ATOM      7  O   UNL     1       6.347   1.780  23.019  0.00  0.00    -0.331 OA
ATOM      8  O   UNL     1       7.752  -0.567  22.251  0.00  0.00    -0.346 OA
ENDROOT
BRANCH   1  16
ATOM      9  N   UNL     1       6.930  -4.916  21.547  0.00  0.00    -0.329 N 
ATOM     10  H   UNL     1       6.010  -4.557  21.323  0.00  0.00    +0.145 HD
ATOM     11  H   UNL     1       6.980  -5.924  21.427  0.00  0.00    +0.145 HD
ATOM     12  C   UNL     1       7.430  -4.514  22.746  0.00  0.00    +0.195 A 
ATOM     13  N   UNL     1       7.148  -3.201  22.986  0.00  0.00    -0.312 N 
ATOM     14  H   UNL     1       7.013  -2.625  22.163  0.00  0.00    +0.170 HD
ATOM     15  C   UNL     1       7.688  -2.682  24.087  0.00  0.00    +0.148 A 
ATOM     16  N   UNL     1       7.759  -1.360  24.435  0.00  0.00    -0.287 N 
ATOM     17  C   UNL     1       8.458  -1.322  25.607  0.00  0.00    +0.203 A 
ATOM     18  N   UNL     1       8.874  -2.527  25.966  0.00  0.00    -0.229 NA
ATOM     19  C   UNL     1       8.412  -3.388  24.990  0.00  0.00    +0.172 A 
ATOM     20  C   UNL     1       8.615  -4.830  24.745  0.00  0.00    +0.302 A 
ATOM     21  O   UNL     1       9.217  -5.544  25.536  0.00  0.00    -0.263 OA
ATOM     22  N   UNL     1       8.078  -5.319  23.537  0.00  0.00    -0.176 NA
ENDBRANCH   1  16
BRANCH   5  23
ATOM     23  P   UNL     1       6.417   4.357  22.878  0.00  0.00    +0.383 P 
ATOM     24  O   UNL     1       5.945   5.707  23.474  0.00  0.00    -0.254 OA
BRANCH  23  25
ATOM     25  O   UNL     1       5.024   4.194  21.986  0.00  0.00    -0.321 OA
ATOM     26  H   UNL     1       4.245   4.682  22.316  0.00  0.00    +0.220 HD
ENDBRANCH  23  25
BRANCH  23  27
ATOM     27  O   UNL     1       7.341   5.020  21.675  0.00  0.00    -0.321 OA
ATOM     28  H   UNL     1       8.295   4.907  21.835  0.00  0.00    +0.220 HD
ENDBRANCH  23  27
ENDBRANCH   5  23
BRANCH   6  29
ATOM     29  C   UNL     1      10.206  -0.406  22.389  0.00  0.00    +0.190 C 
BRANCH  29  30
ATOM     30  O   UNL     1      10.263  -1.663  21.731  0.00  0.00    -0.392 OA
ATOM     31  H   UNL     1      11.137  -1.754  21.315  0.00  0.00    +0.210 HD
ENDBRANCH  29  30
ENDBRANCH   6  29
TORSDOF 6
ENDMDL
MODEL 6
REMARK VINA RESULT:      -6.8      1.913      2.709
REMARK  Name = 
REMARK  6 active torsions:
REMARK  status: ('A' for Active; 'I' for Inactive)
REMARK    1  A    between atoms: N_9  and  C_12
REMARK    2  A    between atoms: C_15  and  C_17
REMARK    3  A    between atoms: C_17  and  O_18
REMARK    4  A    between atoms: C_22  and  P_27
REMARK    5  A    between atoms: P_27  and  O_28
REMARK    6  A    between atoms: P_27  and  O_29
REMARK                            x       y       z     vdW  Elec       q    Type
REMARK                         _______ _______ _______ _____ _____    ______ ____
ROOT
ATOM      1  C   UNL     1       7.835  -4.232  24.359  0.00  0.00    +0.254 C 
ATOM      2  C   UNL     1       7.083  -4.190  25.669  0.00  0.00    +0.203 C 
ATOM      3  C   UNL     1       5.629  -4.125  25.293  0.00  0.00    +0.186 C 
ATOM      4  O   UNL     1       4.955  -5.035  26.162  0.00  0.00    -0.333 OA
ATOM      5  C   UNL     1       5.936  -5.990  26.595  0.00  0.00    +0.368 C 
ATOM      6  C   UNL     1       5.580  -4.605  23.842  0.00  0.00    +0.178 C 
ATOM      7  O   UNL     1       7.249  -5.502  26.260  0.00  0.00    -0.331 OA
ATOM      8  O   UNL     1       6.934  -4.969  23.487  0.00  0.00    -0.346 OA
ENDROOT
BRANCH   1  16
ATOM      9  N   UNL     1       9.175  -0.478  27.393  0.00  0.00    -0.329 N 
ATOM     10  H   UNL     1       8.331  -0.796  27.853  0.00  0.00    +0.145 HD
ATOM     11  H   UNL     1       9.463   0.438  27.727  0.00  0.00    +0.145 HD
ATOM     12  C   UNL     1       9.155  -0.548  26.035  0.00  0.00    +0.195 A 
ATOM     13  N   UNL     1       8.553  -1.695  25.607  0.00  0.00    -0.312 N 
ATOM     14  H   UNL     1       8.587  -2.475  26.253  0.00  0.00    +0.170 HD
ATOM     15  C   UNL     1       8.577  -1.910  24.293  0.00  0.00    +0.148 A 
ATOM     16  N   UNL     1       8.262  -3.068  23.633  0.00  0.00    -0.287 N 
ATOM     17  C   UNL     1       8.506  -2.820  22.313  0.00  0.00    +0.203 A 
ATOM     18  N   UNL     1       9.010  -1.609  22.129  0.00  0.00    -0.229 NA
ATOM     19  C   UNL     1       9.084  -1.040  23.385  0.00  0.00    +0.172 A 
ATOM     20  C   UNL     1       9.641   0.235  23.879  0.00  0.00    +0.302 A 
ATOM     21  O   UNL     1      10.074   1.091  23.119  0.00  0.00    -0.263 OA
ATOM     22  N   UNL     1       9.648   0.390  25.280  0.00  0.00    -0.176 NA
ENDBRANCH   1  16
BRANCH   5  23
ATOM     23  P   UNL     1       5.925  -5.981  28.424  0.00  0.00    +0.383 P 
ATOM     24  O   UNL     1       5.915  -5.972  29.973  0.00  0.00    -0.254 OA
BRANCH  23  25
ATOM     25  O   UNL     1       7.529  -6.412  28.375  0.00  0.00    -0.321 OA
ATOM     26  H   UNL     1       7.722  -7.297  28.008  0.00  0.00    +0.220 HD
ENDBRANCH  23  25
BRANCH  23  27
ATOM     27  O   UNL     1       5.308  -7.508  28.262  0.00  0.00    -0.321 OA
ATOM     28  H   UNL     1       4.335  -7.512  28.211  0.00  0.00    +0.220 HD
ENDBRANCH  23  27
ENDBRANCH   5  23
BRANCH   6  29
ATOM     29  C   UNL     1       5.040  -3.502  22.915  0.00  0.00    +0.190 C 
BRANCH  29  30
ATOM     30  O   UNL     1       5.286  -3.813  21.551  0.00  0.00    -0.392 OA
ATOM     31  H   UNL     1       5.229  -4.777  21.439  0.00  0.00    +0.210 HD
ENDBRANCH  29  30
ENDBRANCH   6  29
TORSDOF 6
ENDMDL
MODEL 7
REMARK VINA RESULT:      -6.7      4.089      5.211
REMARK  Name = 
REMARK  6 active torsions:
REMARK  status: ('A' for Active; 'I' for Inactive)
REMARK    1  A    between atoms: N_9  and  C_12
REMARK    2  A    between atoms: C_15  and  C_17
REMARK    3  A    between atoms: C_17  and  O_18
REMARK    4  A    between atoms: C_22  and  P_27
REMARK    5  A    between atoms: P_27  and  O_28
REMARK    6  A    between atoms: P_27  and  O_29
REMARK                            x       y       z     vdW  Elec       q    Type
REMARK                         _______ _______ _______ _____ _____    ______ ____
ROOT
ATOM      1  C   UNL     1       7.553  -0.271  22.903  0.00  0.00    +0.254 C 
ATOM      2  C   UNL     1       7.697  -1.670  22.350  0.00  0.00    +0.203 C 
ATOM      3  C   UNL     1       8.498  -2.424  23.375  0.00  0.00    +0.186 C 
ATOM      4  O   UNL     1       7.862  -3.694  23.516  0.00  0.00    -0.333 OA
ATOM      5  C   UNL     1       6.499  -3.519  23.099  0.00  0.00    +0.368 C 
ATOM      6  C   UNL     1       8.372  -1.595  24.654  0.00  0.00    +0.178 C 
ATOM      7  O   UNL     1       6.374  -2.257  22.416  0.00  0.00    -0.331 OA
ATOM      8  O   UNL     1       7.493  -0.490  24.339  0.00  0.00    -0.346 OA
ENDROOT
BRANCH   1  16
ATOM      9  N   UNL     1       6.983   3.506  26.145  0.00  0.00    -0.329 N 
ATOM     10  H   UNL     1       6.016   3.313  25.911  0.00  0.00    +0.145 HD
ATOM     11  H   UNL     1       7.086   4.404  26.608  0.00  0.00    +0.145 HD
ATOM     12  C   UNL     1       7.865   3.348  25.122  0.00  0.00    +0.195 A 
ATOM     13  N   UNL     1       7.565   2.249  24.373  0.00  0.00    -0.312 N 
ATOM     14  H   UNL     1       7.061   1.513  24.855  0.00  0.00    +0.170 HD
ATOM     15  C   UNL     1       8.434   1.945  23.410  0.00  0.00    +0.148 A 
ATOM     16  N   UNL     1       8.498   0.789  22.680  0.00  0.00    -0.287 N 
ATOM     17  C   UNL     1       9.590   0.920  21.871  0.00  0.00    +0.203 A 
ATOM     18  N   UNL     1      10.234   2.054  22.103  0.00  0.00    -0.229 NA
ATOM     19  C   UNL     1       9.521   2.694  23.097  0.00  0.00    +0.172 A 
ATOM     20  C   UNL     1       9.760   3.930  23.869  0.00  0.00    +0.302 A 
ATOM     21  O   UNL     1      10.693   4.681  23.617  0.00  0.00    -0.263 OA
ATOM     22  N   UNL     1       8.849   4.174  24.917  0.00  0.00    -0.176 NA
ENDBRANCH   1  16
BRANCH   5  23
ATOM     23  P   UNL     1       6.175  -4.754  21.788  0.00  0.00    +0.383 P 
ATOM     24  O   UNL     1       5.902  -5.799  20.678  0.00  0.00    -0.254 OA
BRANCH  23  25
ATOM     25  O   UNL     1       4.644  -4.921  22.411  0.00  0.00    -0.321 OA
ATOM     26  H   UNL     1       4.284  -5.830  22.423  0.00  0.00    +0.220 HD
ENDBRANCH  23  25
BRANCH  23  27
ATOM     27  O   UNL     1       6.922  -5.805  22.827  0.00  0.00    -0.321 OA
ATOM     28  H   UNL     1       7.795  -6.090  22.501  0.00  0.00    +0.220 HD
ENDBRANCH  23  27
ENDBRANCH   5  23
BRANCH   6  29
ATOM     29  C   UNL     1       9.748  -1.094  25.124  0.00  0.00    +0.190 C 
BRANCH  29  30
ATOM     30  O   UNL     1       9.626   0.091  25.896  0.00  0.00    -0.392 OA
ATOM     31  H   UNL     1       9.622   0.853  25.293  0.00  0.00    +0.210 HD
ENDBRANCH  29  30
ENDBRANCH   6  29
TORSDOF 6
ENDMDL
MODEL 8
REMARK VINA RESULT:      -6.6      3.563      7.295
REMARK  Name = 
REMARK  6 active torsions:
REMARK  status: ('A' for Active; 'I' for Inactive)
REMARK    1  A    between atoms: N_9  and  C_12
REMARK    2  A    between atoms: C_15  and  C_17
REMARK    3  A    between atoms: C_17  and  O_18
REMARK    4  A    between atoms: C_22  and  P_27
REMARK    5  A    between atoms: P_27  and  O_28
REMARK    6  A    between atoms: P_27  and  O_29
REMARK                            x       y       z     vdW  Elec       q    Type
REMARK                         _______ _______ _______ _____ _____    ______ ____
ROOT
ATOM      1  C   UNL     1       7.630  -1.426  24.102  0.00  0.00    +0.254 C 
ATOM      2  C   UNL     1       7.282   0.044  24.056  0.00  0.00    +0.203 C 
ATOM      3  C   UNL     1       7.853   0.629  25.318  0.00  0.00    +0.186 C 
ATOM      4  O   UNL     1       8.473   1.857  24.938  0.00  0.00    -0.333 OA
ATOM      5  C   UNL     1       8.784   1.745  23.541  0.00  0.00    +0.368 C 
ATOM      6  C   UNL     1       8.890  -0.393  25.786  0.00  0.00    +0.178 C 
ATOM      7  O   UNL     1       8.090   0.607  22.994  0.00  0.00    -0.331 OA
ATOM      8  O   UNL     1       8.913  -1.439  24.786  0.00  0.00    -0.346 OA
ENDROOT
BRANCH   1  16
ATOM      9  N   UNL     1      10.300  -5.393  25.594  0.00  0.00    -0.329 N 
ATOM     10  H   UNL     1      10.707  -5.227  24.682  0.00  0.00    +0.145 HD
ATOM     11  H   UNL     1      10.547  -6.310  25.955  0.00  0.00    +0.145 HD
ATOM     12  C   UNL     1       8.967  -5.144  25.685  0.00  0.00    +0.195 A 
ATOM     13  N   UNL     1       8.624  -4.019  24.995  0.00  0.00    -0.312 N 
ATOM     14  H   UNL     1       9.360  -3.332  24.882  0.00  0.00    +0.170 HD
ATOM     15  C   UNL     1       7.355  -3.628  25.110  0.00  0.00    +0.148 A 
ATOM     16  N   UNL     1       6.814  -2.432  24.723  0.00  0.00    -0.287 N 
ATOM     17  C   UNL     1       5.505  -2.475  25.109  0.00  0.00    +0.203 A 
ATOM     18  N   UNL     1       5.227  -3.592  25.764  0.00  0.00    -0.229 NA
ATOM     19  C   UNL     1       6.404  -4.313  25.792  0.00  0.00    +0.172 A 
ATOM     20  C   UNL     1       6.792  -5.579  26.447  0.00  0.00    +0.302 A 
ATOM     21  O   UNL     1       5.980  -6.276  27.041  0.00  0.00    -0.263 OA
ATOM     22  N   UNL     1       8.157  -5.917  26.348  0.00  0.00    -0.176 NA
ENDBRANCH   1  16
BRANCH   5  23
ATOM     23  P   UNL     1       8.005   3.171  22.700  0.00  0.00    +0.383 P 
ATOM     24  O   UNL     1       7.346   4.379  21.988  0.00  0.00    -0.254 OA
BRANCH  23  25
ATOM     25  O   UNL     1       8.502   2.513  21.257  0.00  0.00    -0.321 OA
ATOM     26  H   UNL     1       9.204   1.835  21.315  0.00  0.00    +0.220 HD
ENDBRANCH  23  25
BRANCH  23  27
ATOM     27  O   UNL     1       9.424   3.944  23.059  0.00  0.00    -0.321 OA
ATOM     28  H   UNL     1      10.166   3.632  22.510  0.00  0.00    +0.220 HD
ENDBRANCH  23  27
ENDBRANCH   5  23
BRANCH   6  29
ATOM     29  C   UNL     1       8.522  -0.957  27.170  0.00  0.00    +0.190 C 
BRANCH  29  30
ATOM     30  O   UNL     1       8.631   0.040  28.175  0.00  0.00    -0.392 OA
ATOM     31  H   UNL     1       9.287  -0.251  28.829  0.00  0.00    +0.210 HD
ENDBRANCH  29  30
ENDBRANCH   6  29
TORSDOF 6
ENDMDL
MODEL 9
REMARK VINA RESULT:      -6.5      3.461      7.482
REMARK  Name = 
REMARK  6 active torsions:
REMARK  status: ('A' for Active; 'I' for Inactive)
REMARK    1  A    between atoms: N_9  and  C_12
REMARK    2  A    between atoms: C_15  and  C_17
REMARK    3  A    between atoms: C_17  and  O_18
REMARK    4  A    between atoms: C_22  and  P_27
REMARK    5  A    between atoms: P_27  and  O_28
REMARK    6  A    between atoms: P_27  and  O_29
REMARK                            x       y       z     vdW  Elec       q    Type
REMARK                         _______ _______ _______ _____ _____    ______ ____
ROOT
ATOM      1  C   UNL     1       7.598  -1.155  25.146  0.00  0.00    +0.254 C 
ATOM      2  C   UNL     1       8.808  -0.438  24.592  0.00  0.00    +0.203 C 
ATOM      3  C   UNL     1       9.000  -0.992  23.207  0.00  0.00    +0.186 C 
ATOM      4  O   UNL     1       9.280   0.129  22.370  0.00  0.00    -0.333 OA
ATOM      5  C   UNL     1       8.725   1.279  23.025  0.00  0.00    +0.368 C 
ATOM      6  C   UNL     1       7.655  -1.627  22.852  0.00  0.00    +0.178 C 
ATOM      7  O   UNL     1       8.390   0.933  24.382  0.00  0.00    -0.331 OA
ATOM      8  O   UNL     1       6.773  -1.366  23.968  0.00  0.00    -0.346 OA
ENDROOT
BRANCH   1  16
ATOM      9  N   UNL     1       3.159  -3.475  25.249  0.00  0.00    -0.329 N 
ATOM     10  H   UNL     1       2.877  -2.523  25.449  0.00  0.00    +0.145 HD
ATOM     11  H   UNL     1       2.422  -4.139  25.467  0.00  0.00    +0.145 HD
ATOM     12  C   UNL     1       4.358  -3.843  25.775  0.00  0.00    +0.195 A 
ATOM     13  N   UNL     1       5.275  -2.839  25.672  0.00  0.00    -0.312 N 
ATOM     14  H   UNL     1       5.123  -2.182  24.915  0.00  0.00    +0.170 HD
ATOM     15  C   UNL     1       6.513  -3.138  26.061  0.00  0.00    +0.148 A 
ATOM     16  N   UNL     1       7.651  -2.407  25.850  0.00  0.00    -0.287 N 
ATOM     17  C   UNL     1       8.671  -3.151  26.370  0.00  0.00    +0.203 A 
ATOM     18  N   UNL     1       8.240  -4.316  26.828  0.00  0.00    -0.229 NA
ATOM     19  C   UNL     1       6.877  -4.324  26.608  0.00  0.00    +0.172 A 
ATOM     20  C   UNL     1       5.835  -5.354  26.792  0.00  0.00    +0.302 A 
ATOM     21  O   UNL     1       6.075  -6.432  27.320  0.00  0.00    -0.263 OA
ATOM     22  N   UNL     1       4.556  -5.014  26.308  0.00  0.00    -0.176 NA
ENDBRANCH   1  16
BRANCH   5  23
ATOM     23  P   UNL     1      10.077   2.498  23.211  0.00  0.00    +0.383 P 
ATOM     24  O   UNL     1      11.222   3.529  23.368  0.00  0.00    -0.254 OA
BRANCH  23  25
ATOM     25  O   UNL     1       8.943   3.696  23.006  0.00  0.00    -0.321 OA
ATOM     26  H   UNL     1       9.045   4.248  22.207  0.00  0.00    +0.220 HD
ENDBRANCH  23  25
BRANCH  23  27
ATOM     27  O   UNL     1      10.339   2.202  21.603  0.00  0.00    -0.321 OA
ATOM     28  H   UNL     1       9.613   1.695  21.196  0.00  0.00    +0.220 HD
ENDBRANCH  23  27
ENDBRANCH   5  23
BRANCH   6  29
ATOM     29  C   UNL     1       7.807  -3.138  22.606  0.00  0.00    +0.190 C 
BRANCH  29  30
ATOM     30  O   UNL     1       6.577  -3.817  22.809  0.00  0.00    -0.392 OA
ATOM     31  H   UNL     1       6.736  -4.773  22.729  0.00  0.00    +0.210 HD
ENDBRANCH  29  30
ENDBRANCH   6  29
TORSDOF 6
ENDMDL
