MODEL 1
REMARK VINA RESULT:      -7.0      0.000      0.000
REMARK  Name = 
REMARK  9 active torsions:
REMARK  status: ('A' for Active; 'I' for Inactive)
REMARK    1  A    between atoms: C_1  and  O_2
REMARK    2  A    between atoms: O_2  and  C_3
REMARK    3  A    between atoms: C_8  and  S_10
REMARK    4  A    between atoms: S_10  and  C_12
REMARK    5  A    between atoms: C_12  and  C_13
REMARK    6  A    between atoms: C_16  and  C_17
REMARK    7  A    between atoms: C_18  and  O_19
REMARK    8  A    between atoms: O_19  and  C_20
REMARK    9  A    between atoms: C_21  and  C_22
REMARK                            x       y       z     vdW  Elec       q    Type
REMARK                         _______ _______ _______ _____ _____    ______ ____
ROOT
ATOM      1  S   UNL     1       8.462  -4.186  24.180  0.00  0.00    +0.095 S 
ATOM      2  O   UNL     1       9.646  -4.861  24.814  0.00  0.00    -0.249 OA
ENDROOT
BRANCH   1   9
ATOM      3  C   UNL     1      10.326   1.724  23.264  0.00  0.00    +0.122 A 
ATOM      4  C   UNL     1       9.980   1.436  21.940  0.00  0.00    +0.048 A 
ATOM      5  C   UNL     1       9.493   0.181  21.564  0.00  0.00    +0.031 A 
ATOM      6  C   UNL     1       9.371  -0.768  22.578  0.00  0.00    +0.067 A 
ATOM      7  N   UNL     1       8.955  -2.072  22.564  0.00  0.00    -0.331 N 
ATOM      8  H   UNL     1       8.655  -2.601  21.760  0.00  0.00    +0.168 HD
ATOM      9  C   UNL     1       9.006  -2.571  23.839  0.00  0.00    +0.198 A 
ATOM     10  N   UNL     1       9.453  -1.659  24.684  0.00  0.00    -0.220 NA
ATOM     11  C   UNL     1       9.690  -0.528  23.910  0.00  0.00    +0.093 A 
ATOM     12  C   UNL     1      10.173   0.749  24.267  0.00  0.00    +0.075 A 
BRANCH   3  14
ATOM     13  C   UNL     1       9.847   3.997  23.797  0.00  0.00    +0.277 C 
ATOM     14  O   UNL     1      10.796   2.999  23.445  0.00  0.00    -0.495 OA
ENDBRANCH   3  14
ENDBRANCH   1   9
BRANCH   1  15
ATOM     15  C   UNL     1       7.156  -3.895  25.393  0.00  0.00    +0.167 C 
BRANCH  15  16
ATOM     16  C   UNL     1       5.997  -4.863  25.200  0.00  0.00    +0.060 A 
ATOM     17  C   UNL     1       5.031  -4.738  24.174  0.00  0.00    +0.014 A 
ATOM     18  C   UNL     1       5.115  -3.605  23.193  0.00  0.00    +0.049 C 
ATOM     19  C   UNL     1       4.002  -5.708  24.117  0.00  0.00    +0.129 A 
ATOM     20  C   UNL     1       3.990  -6.776  25.028  0.00  0.00    +0.010 A 
ATOM     21  C   UNL     1       2.951  -7.857  24.986  0.00  0.00    +0.049 C 
ATOM     22  C   UNL     1       4.990  -6.807  25.988  0.00  0.00    +0.118 A 
ATOM     23  N   UNL     1       5.970  -5.886  26.097  0.00  0.00    -0.258 NA
BRANCH  19  24
ATOM     24  O   UNL     1       3.069  -5.806  23.112  0.00  0.00    -0.494 OA
ATOM     25  C   UNL     1       1.807  -5.179  23.318  0.00  0.00    +0.277 C 
ENDBRANCH  19  24
ENDBRANCH  15  16
ENDBRANCH   1  15
TORSDOF 5
ENDMDL
MODEL 2
REMARK VINA RESULT:      -6.9      1.382      1.961
REMARK  Name = 
REMARK  9 active torsions:
REMARK  status: ('A' for Active; 'I' for Inactive)
REMARK    1  A    between atoms: C_1  and  O_2
REMARK    2  A    between atoms: O_2  and  C_3
REMARK    3  A    between atoms: C_8  and  S_10
REMARK    4  A    between atoms: S_10  and  C_12
REMARK    5  A    between atoms: C_12  and  C_13
REMARK    6  A    between atoms: C_16  and  C_17
REMARK    7  A    between atoms: C_18  and  O_19
REMARK    8  A    between atoms: O_19  and  C_20
REMARK    9  A    between atoms: C_21  and  C_22
REMARK                            x       y       z     vdW  Elec       q    Type
REMARK                         _______ _______ _______ _____ _____    ______ ____
ROOT
ATOM      1  S   UNL     1       8.891  -4.247  24.390  0.00  0.00    +0.095 S 
ATOM      2  O   UNL     1      10.171  -4.819  24.932  0.00  0.00    -0.249 OA
ENDROOT
BRANCH   1   9
ATOM      3  C   UNL     1      10.160   1.782  23.258  0.00  0.00    +0.122 A 
ATOM      4  C   UNL     1       9.944   1.390  21.933  0.00  0.00    +0.048 A 
ATOM      5  C   UNL     1       9.627   0.070  21.598  0.00  0.00    +0.031 A 
ATOM      6  C   UNL     1       9.536  -0.834  22.657  0.00  0.00    +0.067 A 
ATOM      7  N   UNL     1       9.267  -2.175  22.691  0.00  0.00    -0.331 N 
ATOM      8  H   UNL     1       9.086  -2.775  21.900  0.00  0.00    +0.168 HD
ATOM      9  C   UNL     1       9.279  -2.600  23.993  0.00  0.00    +0.198 A 
ATOM     10  N   UNL     1       9.561  -1.602  24.812  0.00  0.00    -0.220 NA
ATOM     11  C   UNL     1       9.728  -0.492  23.990  0.00  0.00    +0.093 A 
ATOM     12  C   UNL     1      10.042   0.848  24.304  0.00  0.00    +0.075 A 
BRANCH   3  14
ATOM     13  C   UNL     1       9.515   3.939  24.038  0.00  0.00    +0.277 C 
ATOM     14  O   UNL     1      10.473   3.109  23.395  0.00  0.00    -0.495 OA
ENDBRANCH   3  14
ENDBRANCH   1   9
BRANCH   1  15
ATOM     15  C   UNL     1       7.668  -4.040  25.703  0.00  0.00    +0.167 C 
BRANCH  15  16
ATOM     16  C   UNL     1       6.507  -5.010  25.535  0.00  0.00    +0.060 A 
ATOM     17  C   UNL     1       5.807  -5.593  26.616  0.00  0.00    +0.014 A 
ATOM     18  C   UNL     1       6.190  -5.262  28.029  0.00  0.00    +0.049 C 
ATOM     19  C   UNL     1       4.751  -6.485  26.312  0.00  0.00    +0.129 A 
ATOM     20  C   UNL     1       4.398  -6.729  24.976  0.00  0.00    +0.010 A 
ATOM     21  C   UNL     1       3.259  -7.629  24.596  0.00  0.00    +0.049 C 
ATOM     22  C   UNL     1       5.146  -6.099  23.993  0.00  0.00    +0.118 A 
ATOM     23  N   UNL     1       6.179  -5.266  24.239  0.00  0.00    -0.258 NA
BRANCH  19  24
ATOM     24  O   UNL     1       3.892  -7.030  27.237  0.00  0.00    -0.494 OA
ATOM     25  C   UNL     1       2.849  -6.202  27.741  0.00  0.00    +0.277 C 
ENDBRANCH  19  24
ENDBRANCH  15  16
ENDBRANCH   1  15
TORSDOF 5
ENDMDL
MODEL 3
REMARK VINA RESULT:      -6.8      2.486      8.201
REMARK  Name = 
REMARK  9 active torsions:
REMARK  status: ('A' for Active; 'I' for Inactive)
REMARK    1  A    between atoms: C_1  and  O_2
REMARK    2  A    between atoms: O_2  and  C_3
REMARK    3  A    between atoms: C_8  and  S_10
REMARK    4  A    between atoms: S_10  and  C_12
REMARK    5  A    between atoms: C_12  and  C_13
REMARK    6  A    between atoms: C_16  and  C_17
REMARK    7  A    between atoms: C_18  and  O_19
REMARK    8  A    between atoms: O_19  and  C_20
REMARK    9  A    between atoms: C_21  and  C_22
REMARK                            x       y       z     vdW  Elec       q    Type
REMARK                         _______ _______ _______ _____ _____    ______ ____
ROOT
ATOM      1  S   UNL     1       9.122  -4.034  25.075  0.00  0.00    +0.095 S 
ATOM      2  O   UNL     1      10.090  -5.155  24.817  0.00  0.00    -0.249 OA
ENDROOT
BRANCH   1   9
ATOM      3  C   UNL     1       4.781  -6.768  28.669  0.00  0.00    +0.122 A 
ATOM      4  C   UNL     1       4.084  -6.836  27.459  0.00  0.00    +0.048 A 
ATOM      5  C   UNL     1       4.619  -6.327  26.272  0.00  0.00    +0.031 A 
ATOM      6  C   UNL     1       5.885  -5.750  26.359  0.00  0.00    +0.067 A 
ATOM      7  N   UNL     1       6.683  -5.153  25.422  0.00  0.00    -0.331 N 
ATOM      8  H   UNL     1       6.468  -5.015  24.445  0.00  0.00    +0.168 HD
ATOM      9  C   UNL     1       7.852  -4.757  26.015  0.00  0.00    +0.198 A 
ATOM     10  N   UNL     1       7.849  -5.052  27.303  0.00  0.00    -0.220 NA
ATOM     11  C   UNL     1       6.624  -5.670  27.534  0.00  0.00    +0.093 A 
ATOM     12  C   UNL     1       6.065  -6.195  28.719  0.00  0.00    +0.075 A 
BRANCH   3  14
ATOM     13  C   UNL     1       2.698  -7.494  29.571  0.00  0.00    +0.277 C 
ATOM     14  O   UNL     1       4.098  -7.305  29.730  0.00  0.00    -0.495 OA
ENDBRANCH   3  14
ENDBRANCH   1   9
BRANCH   1  15
ATOM     15  C   UNL     1       8.253  -3.568  23.562  0.00  0.00    +0.167 C 
BRANCH  15  16
ATOM     16  C   UNL     1       8.582  -2.139  23.155  0.00  0.00    +0.060 A 
ATOM     17  C   UNL     1       7.766  -1.026  23.464  0.00  0.00    +0.014 A 
ATOM     18  C   UNL     1       6.496  -1.215  24.241  0.00  0.00    +0.049 C 
ATOM     19  C   UNL     1       8.191   0.247  23.016  0.00  0.00    +0.129 A 
ATOM     20  C   UNL     1       9.409   0.382  22.332  0.00  0.00    +0.010 A 
ATOM     21  C   UNL     1       9.931   1.712  21.873  0.00  0.00    +0.049 C 
ATOM     22  C   UNL     1      10.135  -0.774  22.088  0.00  0.00    +0.118 A 
ATOM     23  N   UNL     1       9.751  -2.009  22.471  0.00  0.00    -0.258 NA
BRANCH  19  24
ATOM     24  O   UNL     1       7.586   1.438  23.342  0.00  0.00    -0.494 OA
ATOM     25  C   UNL     1       6.522   1.890  22.511  0.00  0.00    +0.277 C 
ENDBRANCH  19  24
ENDBRANCH  15  16
ENDBRANCH   1  15
TORSDOF 5
ENDMDL
MODEL 4
REMARK VINA RESULT:      -6.7      2.252      8.526
REMARK  Name = 
REMARK  9 active torsions:
REMARK  status: ('A' for Active; 'I' for Inactive)
REMARK    1  A    between atoms: C_1  and  O_2
REMARK    2  A    between atoms: O_2  and  C_3
REMARK    3  A    between atoms: C_8  and  S_10
REMARK    4  A    between atoms: S_10  and  C_12
REMARK    5  A    between atoms: C_12  and  C_13
REMARK    6  A    between atoms: C_16  and  C_17
REMARK    7  A    between atoms: C_18  and  O_19
REMARK    8  A    between atoms: O_19  and  C_20
REMARK    9  A    between atoms: C_21  and  C_22
REMARK                            x       y       z     vdW  Elec       q    Type
REMARK                         _______ _______ _______ _____ _____    ______ ____
ROOT
ATOM      1  S   UNL     1       9.732  -1.250  23.218  0.00  0.00    +0.095 S 
ATOM      2  O   UNL     1      10.940  -1.894  22.597  0.00  0.00    -0.249 OA
ENDROOT
BRANCH   1   9
ATOM      3  C   UNL     1       5.588  -5.928  23.645  0.00  0.00    +0.122 A 
ATOM      4  C   UNL     1       5.483  -5.718  22.267  0.00  0.00    +0.048 A 
ATOM      5  C   UNL     1       6.221  -4.725  21.615  0.00  0.00    +0.031 A 
ATOM      6  C   UNL     1       7.069  -3.957  22.413  0.00  0.00    +0.067 A 
ATOM      7  N   UNL     1       7.904  -2.915  22.118  0.00  0.00    -0.331 N 
ATOM      8  H   UNL     1       8.049  -2.495  21.212  0.00  0.00    +0.168 HD
ATOM      9  C   UNL     1       8.536  -2.509  23.264  0.00  0.00    +0.198 A 
ATOM     10  N   UNL     1       8.139  -3.228  24.300  0.00  0.00    -0.220 NA
ATOM     11  C   UNL     1       7.218  -4.134  23.784  0.00  0.00    +0.093 A 
ATOM     12  C   UNL     1       6.467  -5.147  24.419  0.00  0.00    +0.075 A 
BRANCH   3  14
ATOM     13  C   UNL     1       4.493  -6.940  25.504  0.00  0.00    +0.277 C 
ATOM     14  O   UNL     1       4.781  -6.933  24.112  0.00  0.00    -0.495 OA
ENDBRANCH   3  14
ENDBRANCH   1   9
BRANCH   1  15
ATOM     15  C   UNL     1       8.981  -0.059  22.087  0.00  0.00    +0.167 C 
BRANCH  15  16
ATOM     16  C   UNL     1       9.172   1.369  22.582  0.00  0.00    +0.060 A 
ATOM     17  C   UNL     1       8.130   2.322  22.654  0.00  0.00    +0.014 A 
ATOM     18  C   UNL     1       6.738   1.950  22.233  0.00  0.00    +0.049 C 
ATOM     19  C   UNL     1       8.452   3.615  23.129  0.00  0.00    +0.129 A 
ATOM     20  C   UNL     1       9.758   3.904  23.554  0.00  0.00    +0.010 A 
ATOM     21  C   UNL     1      10.145   5.243  24.108  0.00  0.00    +0.049 C 
ATOM     22  C   UNL     1      10.701   2.894  23.448  0.00  0.00    +0.118 A 
ATOM     23  N   UNL     1      10.443   1.657  22.973  0.00  0.00    -0.258 NA
BRANCH  19  24
ATOM     24  O   UNL     1       7.537   4.610  23.382  0.00  0.00    -0.494 OA
ATOM     25  C   UNL     1       7.192   5.481  22.309  0.00  0.00    +0.277 C 
ENDBRANCH  19  24
ENDBRANCH  15  16
ENDBRANCH   1  15
TORSDOF 5
ENDMDL
MODEL 5
REMARK VINA RESULT:      -6.7      2.561      7.679
REMARK  Name = 
REMARK  9 active torsions:
REMARK  status: ('A' for Active; 'I' for Inactive)
REMARK    1  A    between atoms: C_1  and  O_2
REMARK    2  A    between atoms: O_2  and  C_3
REMARK    3  A    between atoms: C_8  and  S_10
REMARK    4  A    between atoms: S_10  and  C_12
REMARK    5  A    between atoms: C_12  and  C_13
REMARK    6  A    between atoms: C_16  and  C_17
REMARK    7  A    between atoms: C_18  and  O_19
REMARK    8  A    between atoms: O_19  and  C_20
REMARK    9  A    between atoms: C_21  and  C_22
REMARK                            x       y       z     vdW  Elec       q    Type
REMARK                         _______ _______ _______ _____ _____    ______ ____
ROOT
ATOM      1  S   UNL     1       7.155  -4.607  22.296  0.00  0.00    +0.095 S 
ATOM      2  O   UNL     1       6.234  -5.494  21.506  0.00  0.00    -0.249 OA
ENDROOT
BRANCH   1   9
ATOM      3  C   UNL     1       6.264  -5.987  28.341  0.00  0.00    +0.122 A 
ATOM      4  C   UNL     1       5.121  -6.618  27.841  0.00  0.00    +0.048 A 
ATOM      5  C   UNL     1       4.809  -6.604  26.478  0.00  0.00    +0.031 A 
ATOM      6  C   UNL     1       5.700  -5.926  25.645  0.00  0.00    +0.067 A 
ATOM      7  N   UNL     1       5.696  -5.703  24.295  0.00  0.00    -0.331 N 
ATOM      8  H   UNL     1       4.996  -6.005  23.634  0.00  0.00    +0.168 HD
ATOM      9  C   UNL     1       6.815  -4.988  23.957  0.00  0.00    +0.198 A 
ATOM     10  N   UNL     1       7.542  -4.717  25.028  0.00  0.00    -0.220 NA
ATOM     11  C   UNL     1       6.855  -5.294  26.091  0.00  0.00    +0.093 A 
ATOM     12  C   UNL     1       7.151  -5.328  27.470  0.00  0.00    +0.075 A 
BRANCH   3  14
ATOM     13  C   UNL     1       5.211  -6.226  30.466  0.00  0.00    +0.277 C 
ATOM     14  O   UNL     1       6.401  -6.094  29.701  0.00  0.00    -0.495 OA
ENDBRANCH   3  14
ENDBRANCH   1   9
BRANCH   1  15
ATOM     15  C   UNL     1       6.636  -2.880  22.192  0.00  0.00    +0.167 C 
BRANCH  15  16
ATOM     16  C   UNL     1       7.632  -1.962  22.888  0.00  0.00    +0.060 A 
ATOM     17  C   UNL     1       7.312  -1.159  24.008  0.00  0.00    +0.014 A 
ATOM     18  C   UNL     1       5.925  -1.185  24.582  0.00  0.00    +0.049 C 
ATOM     19  C   UNL     1       8.336  -0.347  24.549  0.00  0.00    +0.129 A 
ATOM     20  C   UNL     1       9.630  -0.390  24.008  0.00  0.00    +0.010 A 
ATOM     21  C   UNL     1      10.764   0.415  24.570  0.00  0.00    +0.049 C 
ATOM     22  C   UNL     1       9.836  -1.218  22.915  0.00  0.00    +0.118 A 
ATOM     23  N   UNL     1       8.881  -1.984  22.349  0.00  0.00    -0.258 NA
BRANCH  19  24
ATOM     24  O   UNL     1       8.227   0.386  25.708  0.00  0.00    -0.494 OA
ATOM     25  C   UNL     1       7.688   1.700  25.611  0.00  0.00    +0.277 C 
ENDBRANCH  19  24
ENDBRANCH  15  16
ENDBRANCH   1  15
TORSDOF 5
ENDMDL
MODEL 6
REMARK VINA RESULT:      -6.7      2.387      7.892
REMARK  Name = 
REMARK  9 active torsions:
REMARK  status: ('A' for Active; 'I' for Inactive)
REMARK    1  A    between atoms: C_1  and  O_2
REMARK    2  A    between atoms: O_2  and  C_3
REMARK    3  A    between atoms: C_8  and  S_10
REMARK    4  A    between atoms: S_10  and  C_12
REMARK    5  A    between atoms: C_12  and  C_13
REMARK    6  A    between atoms: C_16  and  C_17
REMARK    7  A    between atoms: C_18  and  O_19
REMARK    8  A    between atoms: O_19  and  C_20
REMARK    9  A    between atoms: C_21  and  C_22
REMARK                            x       y       z     vdW  Elec       q    Type
REMARK                         _______ _______ _______ _____ _____    ______ ____
ROOT
ATOM      1  S   UNL     1       9.951  -1.330  22.571  0.00  0.00    +0.095 S 
ATOM      2  O   UNL     1       8.849  -0.607  21.849  0.00  0.00    -0.249 OA
ENDROOT
BRANCH   1   9
ATOM      3  C   UNL     1       6.723  -5.541  25.900  0.00  0.00    +0.122 A 
ATOM      4  C   UNL     1       7.750  -5.328  26.824  0.00  0.00    +0.048 A 
ATOM      5  C   UNL     1       8.802  -4.445  26.565  0.00  0.00    +0.031 A 
ATOM      6  C   UNL     1       8.772  -3.787  25.335  0.00  0.00    +0.067 A 
ATOM      7  N   UNL     1       9.628  -2.889  24.759  0.00  0.00    -0.331 N 
ATOM      8  H   UNL     1      10.487  -2.536  25.152  0.00  0.00    +0.168 HD
ATOM      9  C   UNL     1       9.137  -2.527  23.533  0.00  0.00    +0.198 A 
ATOM     10  N   UNL     1       8.007  -3.160  23.272  0.00  0.00    -0.220 NA
ATOM     11  C   UNL     1       7.768  -3.955  24.388  0.00  0.00    +0.093 A 
ATOM     12  C   UNL     1       6.714  -4.848  24.675  0.00  0.00    +0.075 A 
BRANCH   3  14
ATOM     13  C   UNL     1       4.697  -6.709  25.442  0.00  0.00    +0.277 C 
ATOM     14  O   UNL     1       5.785  -6.450  26.318  0.00  0.00    -0.495 OA
ENDBRANCH   3  14
ENDBRANCH   1   9
BRANCH   1  15
ATOM     15  C   UNL     1      10.697  -0.276  23.833  0.00  0.00    +0.167 C 
BRANCH  15  16
ATOM     16  C   UNL     1       9.687   0.716  24.393  0.00  0.00    +0.060 A 
ATOM     17  C   UNL     1       9.611   2.071  23.992  0.00  0.00    +0.014 A 
ATOM     18  C   UNL     1      10.556   2.605  22.956  0.00  0.00    +0.049 C 
ATOM     19  C   UNL     1       8.625   2.882  24.601  0.00  0.00    +0.129 A 
ATOM     20  C   UNL     1       7.733   2.328  25.532  0.00  0.00    +0.010 A 
ATOM     21  C   UNL     1       6.640   3.130  26.175  0.00  0.00    +0.049 C 
ATOM     22  C   UNL     1       7.891   0.987  25.846  0.00  0.00    +0.118 A 
ATOM     23  N   UNL     1       8.836   0.186  25.313  0.00  0.00    -0.258 NA
BRANCH  19  24
ATOM     24  O   UNL     1       8.334   4.175  24.233  0.00  0.00    -0.494 OA
ATOM     25  C   UNL     1       7.558   4.369  23.055  0.00  0.00    +0.277 C 
ENDBRANCH  19  24
ENDBRANCH  15  16
ENDBRANCH   1  15
TORSDOF 5
ENDMDL
MODEL 7
REMARK VINA RESULT:      -6.7      2.316      8.141
REMARK  Name = 
REMARK  9 active torsions:
REMARK  status: ('A' for Active; 'I' for Inactive)
REMARK    1  A    between atoms: C_1  and  O_2
REMARK    2  A    between atoms: O_2  and  C_3
REMARK    3  A    between atoms: C_8  and  S_10
REMARK    4  A    between atoms: S_10  and  C_12
REMARK    5  A    between atoms: C_12  and  C_13
REMARK    6  A    between atoms: C_16  and  C_17
REMARK    7  A    between atoms: C_18  and  O_19
REMARK    8  A    between atoms: O_19  and  C_20
REMARK    9  A    between atoms: C_21  and  C_22
REMARK                            x       y       z     vdW  Elec       q    Type
REMARK                         _______ _______ _______ _____ _____    ______ ____
ROOT
ATOM      1  S   UNL     1      10.162  -1.342  22.726  0.00  0.00    +0.095 S 
ATOM      2  O   UNL     1       9.888  -0.373  21.610  0.00  0.00    -0.249 OA
ENDROOT
BRANCH   1   9
ATOM      3  C   UNL     1       4.800  -4.566  23.021  0.00  0.00    +0.122 A 
ATOM      4  C   UNL     1       5.511  -5.311  23.967  0.00  0.00    +0.048 A 
ATOM      5  C   UNL     1       6.838  -5.012  24.292  0.00  0.00    +0.031 A 
ATOM      6  C   UNL     1       7.413  -3.931  23.623  0.00  0.00    +0.067 A 
ATOM      7  N   UNL     1       8.665  -3.384  23.681  0.00  0.00    -0.331 N 
ATOM      8  H   UNL     1       9.436  -3.698  24.251  0.00  0.00    +0.168 HD
ATOM      9  C   UNL     1       8.725  -2.313  22.828  0.00  0.00    +0.198 A 
ATOM     10  N   UNL     1       7.574  -2.146  22.201  0.00  0.00    -0.220 NA
ATOM     11  C   UNL     1       6.745  -3.153  22.685  0.00  0.00    +0.093 A 
ATOM     12  C   UNL     1       5.404  -3.471  22.377  0.00  0.00    +0.075 A 
BRANCH   3  14
ATOM     13  C   UNL     1       3.031  -6.007  23.708  0.00  0.00    +0.277 C 
ATOM     14  O   UNL     1       3.518  -5.010  22.821  0.00  0.00    -0.495 OA
ENDBRANCH   3  14
ENDBRANCH   1   9
BRANCH   1  15
ATOM     15  C   UNL     1      10.165  -0.504  24.325  0.00  0.00    +0.167 C 
BRANCH  15  16
ATOM     16  C   UNL     1       9.794   0.966  24.179  0.00  0.00    +0.060 A 
ATOM     17  C   UNL     1       8.488   1.470  24.376  0.00  0.00    +0.014 A 
ATOM     18  C   UNL     1       7.371   0.542  24.755  0.00  0.00    +0.049 C 
ATOM     19  C   UNL     1       8.285   2.859  24.200  0.00  0.00    +0.129 A 
ATOM     20  C   UNL     1       9.368   3.695  23.890  0.00  0.00    +0.010 A 
ATOM     21  C   UNL     1       9.220   5.180  23.736  0.00  0.00    +0.049 C 
ATOM     22  C   UNL     1      10.609   3.098  23.727  0.00  0.00    +0.118 A 
ATOM     23  N   UNL     1      10.840   1.775  23.855  0.00  0.00    -0.258 NA
BRANCH  19  24
ATOM     24  O   UNL     1       7.114   3.524  24.479  0.00  0.00    -0.494 OA
ATOM     25  C   UNL     1       6.123   3.576  23.457  0.00  0.00    +0.277 C 
ENDBRANCH  19  24
ENDBRANCH  15  16
ENDBRANCH   1  15
TORSDOF 5
ENDMDL
MODEL 8
REMARK VINA RESULT:      -6.7      2.569      8.515
REMARK  Name = 
REMARK  9 active torsions:
REMARK  status: ('A' for Active; 'I' for Inactive)
REMARK    1  A    between atoms: C_1  and  O_2
REMARK    2  A    between atoms: O_2  and  C_3
REMARK    3  A    between atoms: C_8  and  S_10
REMARK    4  A    between atoms: S_10  and  C_12
REMARK    5  A    between atoms: C_12  and  C_13
REMARK    6  A    between atoms: C_16  and  C_17
REMARK    7  A    between atoms: C_18  and  O_19
REMARK    8  A    between atoms: O_19  and  C_20
REMARK    9  A    between atoms: C_21  and  C_22
REMARK                            x       y       z     vdW  Elec       q    Type
REMARK                         _______ _______ _______ _____ _____    ______ ____
ROOT
ATOM      1  S   UNL     1      10.191  -0.504  22.654  0.00  0.00    +0.095 S 
ATOM      2  O   UNL     1       9.216   0.298  21.838  0.00  0.00    -0.249 OA
ENDROOT
BRANCH   1   9
ATOM      3  C   UNL     1       7.013  -5.164  25.378  0.00  0.00    +0.122 A 
ATOM      4  C   UNL     1       6.482  -5.309  24.092  0.00  0.00    +0.048 A 
ATOM      5  C   UNL     1       6.859  -4.468  23.041  0.00  0.00    +0.031 A 
ATOM      6  C   UNL     1       7.793  -3.477  23.343  0.00  0.00    +0.067 A 
ATOM      7  N   UNL     1       8.359  -2.493  22.579  0.00  0.00    -0.331 N 
ATOM      8  H   UNL     1       8.175  -2.304  21.605  0.00  0.00    +0.168 HD
ATOM      9  C   UNL     1       9.239  -1.780  23.349  0.00  0.00    +0.198 A 
ATOM     10  N   UNL     1       9.262  -2.241  24.587  0.00  0.00    -0.220 NA
ATOM     11  C   UNL     1       8.359  -3.300  24.600  0.00  0.00    +0.093 A 
ATOM     12  C   UNL     1       7.968  -4.165  25.644  0.00  0.00    +0.075 A 
BRANCH   3  14
ATOM     13  C   UNL     1       5.141  -6.398  26.185  0.00  0.00    +0.277 C 
ATOM     14  O   UNL     1       6.520  -6.068  26.283  0.00  0.00    -0.495 OA
ENDBRANCH   3  14
ENDBRANCH   1   9
BRANCH   1  15
ATOM     15  C   UNL     1      10.717   0.414  24.118  0.00  0.00    +0.167 C 
BRANCH  15  16
ATOM     16  C   UNL     1      10.238   1.858  24.067  0.00  0.00    +0.060 A 
ATOM     17  C   UNL     1       8.986   2.289  24.566  0.00  0.00    +0.014 A 
ATOM     18  C   UNL     1       8.046   1.302  25.195  0.00  0.00    +0.049 C 
ATOM     19  C   UNL     1       8.668   3.662  24.446  0.00  0.00    +0.129 A 
ATOM     20  C   UNL     1       9.597   4.555  23.892  0.00  0.00    +0.010 A 
ATOM     21  C   UNL     1       9.331   6.027  23.782  0.00  0.00    +0.049 C 
ATOM     22  C   UNL     1      10.798   4.028  23.441  0.00  0.00    +0.118 A 
ATOM     23  N   UNL     1      11.129   2.721  23.508  0.00  0.00    -0.258 NA
BRANCH  19  24
ATOM     24  O   UNL     1       7.558   4.261  24.994  0.00  0.00    -0.494 OA
ATOM     25  C   UNL     1       7.577   4.540  26.390  0.00  0.00    +0.277 C 
ENDBRANCH  19  24
ENDBRANCH  15  16
ENDBRANCH   1  15
TORSDOF 5
ENDMDL
MODEL 9
REMARK VINA RESULT:      -6.7      2.261      3.544
REMARK  Name = 
REMARK  9 active torsions:
REMARK  status: ('A' for Active; 'I' for Inactive)
REMARK    1  A    between atoms: C_1  and  O_2
REMARK    2  A    between atoms: O_2  and  C_3
REMARK    3  A    between atoms: C_8  and  S_10
REMARK    4  A    between atoms: S_10  and  C_12
REMARK    5  A    between atoms: C_12  and  C_13
REMARK    6  A    between atoms: C_16  and  C_17
REMARK    7  A    between atoms: C_18  and  O_19
REMARK    8  A    between atoms: O_19  and  C_20
REMARK    9  A    between atoms: C_21  and  C_22
REMARK                            x       y       z     vdW  Elec       q    Type
REMARK                         _______ _______ _______ _____ _____    ______ ____
ROOT
ATOM      1  S   UNL     1       9.426  -1.661  22.777  0.00  0.00    +0.095 S 
ATOM      2  O   UNL     1      10.808  -1.881  22.228  0.00  0.00    -0.249 OA
ENDROOT
BRANCH   1   9
ATOM      3  C   UNL     1       9.604   4.429  24.234  0.00  0.00    +0.122 A 
ATOM      4  C   UNL     1       8.523   4.079  25.049  0.00  0.00    +0.048 A 
ATOM      5  C   UNL     1       8.030   2.771  25.097  0.00  0.00    +0.031 A 
ATOM      6  C   UNL     1       8.676   1.835  24.289  0.00  0.00    +0.067 A 
ATOM      7  N   UNL     1       8.452   0.501  24.081  0.00  0.00    -0.331 N 
ATOM      8  H   UNL     1       7.728  -0.063  24.500  0.00  0.00    +0.168 HD
ATOM      9  C   UNL     1       9.382   0.025  23.194  0.00  0.00    +0.198 A 
ATOM     10  N   UNL     1      10.193   0.991  22.799  0.00  0.00    -0.220 NA
ATOM     11  C   UNL     1       9.761   2.130  23.472  0.00  0.00    +0.093 A 
ATOM     12  C   UNL     1      10.244   3.455  23.445  0.00  0.00    +0.075 A 
BRANCH   3  14
ATOM     13  C   UNL     1       9.039   6.687  23.722  0.00  0.00    +0.277 C 
ATOM     14  O   UNL     1       9.941   5.756  24.305  0.00  0.00    -0.495 OA
ENDBRANCH   3  14
ENDBRANCH   1   9
BRANCH   1  15
ATOM     15  C   UNL     1       9.236  -2.453  24.389  0.00  0.00    +0.167 C 
BRANCH  15  16
ATOM     16  C   UNL     1       8.138  -3.508  24.359  0.00  0.00    +0.060 A 
ATOM     17  C   UNL     1       7.878  -4.401  25.425  0.00  0.00    +0.014 A 
ATOM     18  C   UNL     1       8.701  -4.340  26.678  0.00  0.00    +0.049 C 
ATOM     19  C   UNL     1       6.829  -5.336  25.258  0.00  0.00    +0.129 A 
ATOM     20  C   UNL     1       6.056  -5.326  24.087  0.00  0.00    +0.010 A 
ATOM     21  C   UNL     1       4.904  -6.264  23.875  0.00  0.00    +0.049 C 
ATOM     22  C   UNL     1       6.392  -4.403  23.109  0.00  0.00    +0.118 A 
ATOM     23  N   UNL     1       7.403  -3.515  23.214  0.00  0.00    -0.258 NA
BRANCH  19  24
ATOM     24  O   UNL     1       6.365  -6.180  26.240  0.00  0.00    -0.494 OA
ATOM     25  C   UNL     1       5.529  -5.623  27.250  0.00  0.00    +0.277 C 
ENDBRANCH  19  24
ENDBRANCH  15  16
ENDBRANCH   1  15
TORSDOF 5
ENDMDL
