MODEL 1
REMARK VINA RESULT:      -5.8      0.000      0.000
REMARK  Name = 
REMARK  24 active torsions:
REMARK  status: ('A' for Active; 'I' for Inactive)
REMARK    1  A    between atoms: C_1  and  C_2
REMARK    2  A    between atoms: C_2  and  C_3
REMARK    3  A    between atoms: C_3  and  C_4
REMARK    4  A    between atoms: C_4  and  C_5
REMARK    5  A    between atoms: C_5  and  C_6
REMARK    6  A    between atoms: C_6  and  C_7
REMARK    7  A    between atoms: C_7  and  C_8
REMARK    8  A    between atoms: C_8  and  C_9
REMARK    9  A    between atoms: C_9  and  C_10
REMARK   10  A    between atoms: C_10  and  C_11
REMARK   11  A    between atoms: C_11  and  C_12
REMARK   12  A    between atoms: C_12  and  O_13
REMARK   13  A    between atoms: O_13  and  C_14
REMARK   14  A    between atoms: C_17  and  C_19
REMARK   15  A    between atoms: C_19  and  O_20
REMARK   16  A    between atoms: C_21  and  O_23
REMARK   17  A    between atoms: O_23  and  C_24
REMARK   18  A    between atoms: C_27  and  C_29
REMARK   19  A    between atoms: C_29  and  O_30
REMARK   20  A    between atoms: C_31  and  O_33
REMARK   21  A    between atoms: C_34  and  O_36
REMARK   22  A    between atoms: C_37  and  O_39
REMARK   23  A    between atoms: C_40  and  O_42
REMARK   24  A    between atoms: C_43  and  O_45
REMARK                            x       y       z     vdW  Elec       q    Type
REMARK                         _______ _______ _______ _____ _____    ______ ____
ROOT
ATOM      1  C   UNL     1       7.919  -4.790  26.415  0.00  0.00    +0.282 C 
ATOM      2  C   UNL     1       8.926  -4.827  25.243  0.00  0.00    +0.201 C 
ATOM      3  C   UNL     1       9.449  -3.410  24.956  0.00  0.00    +0.179 C 
ATOM      4  C   UNL     1       8.340  -2.332  24.951  0.00  0.00    +0.183 C 
ATOM      5  C   UNL     1       7.547  -2.469  26.254  0.00  0.00    +0.178 C 
ATOM      6  O   UNL     1       6.952  -3.764  26.251  0.00  0.00    -0.341 OA
ENDROOT
BRANCH   3   7
ATOM      7  O   UNL     1      10.193  -3.344  23.740  0.00  0.00    -0.386 OA
ATOM      8  H   UNL     1      10.045  -4.188  23.279  0.00  0.00    +0.210 HD
ENDBRANCH   3   7
BRANCH   2   9
ATOM      9  O   UNL     1      10.041  -5.686  25.579  0.00  0.00    -0.384 OA
ATOM     10  H   UNL     1      10.758  -5.152  25.970  0.00  0.00    +0.210 HD
ENDBRANCH   2   9
BRANCH   1  11
ATOM     11  O   UNL     1       7.210  -6.017  26.525  0.00  0.00    -0.349 OA
BRANCH  11  12
ATOM     12  C   UNL     1       5.893  -5.784  27.035  0.00  0.00    +0.163 C 
BRANCH  12  13
ATOM     13  C   UNL     1       4.943  -6.756  26.377  0.00  0.00    +0.028 C 
BRANCH  13  14
ATOM     14  C   UNL     1       3.556  -6.569  26.967  0.00  0.00    +0.002 C 
BRANCH  14  15
ATOM     15  C   UNL     1       3.261  -5.102  27.188  0.00  0.00    +0.000 C 
BRANCH  15  16
ATOM     16  C   UNL     1       1.978  -4.751  26.460  0.00  0.00    +0.000 C 
BRANCH  16  17
ATOM     17  C   UNL     1       2.298  -3.991  25.190  0.00  0.00    +0.000 C 
BRANCH  17  18
ATOM     18  C   UNL     1       2.132  -4.903  23.988  0.00  0.00    -0.000 C 
BRANCH  18  19
ATOM     19  C   UNL     1       3.491  -5.156  23.360  0.00  0.00    -0.000 C 
BRANCH  19  20
ATOM     20  C   UNL     1       4.473  -4.067  23.753  0.00  0.00    -0.000 C 
BRANCH  20  21
ATOM     21  C   UNL     1       5.806  -4.293  23.048  0.00  0.00    -0.000 C 
BRANCH  21  23
ATOM     22  C   UNL     1       7.175  -6.017  21.858  0.00  0.00    +0.004 C 
ATOM     23  C   UNL     1       6.119  -5.782  22.923  0.00  0.00    -0.003 C 
ENDBRANCH  21  23
ENDBRANCH  20  21
ENDBRANCH  19  20
ENDBRANCH  18  19
ENDBRANCH  17  18
ENDBRANCH  16  17
ENDBRANCH  15  16
ENDBRANCH  14  15
ENDBRANCH  13  14
ENDBRANCH  12  13
ENDBRANCH  11  12
ENDBRANCH   1  11
BRANCH   4  24
ATOM     24  O   UNL     1       8.868  -1.026  24.664  0.00  0.00    -0.340 OA
BRANCH  24  25
ATOM     25  C   UNL     1       8.453  -0.431  23.420  0.00  0.00    +0.282 C 
ATOM     26  C   UNL     1       9.737  -0.146  22.612  0.00  0.00    +0.201 C 
ATOM     27  C   UNL     1      10.186   1.301  22.804  0.00  0.00    +0.179 C 
ATOM     28  C   UNL     1       9.015   2.232  22.465  0.00  0.00    +0.177 C 
ATOM     29  C   UNL     1       7.833   1.994  23.405  0.00  0.00    +0.178 C 
ATOM     30  O   UNL     1       7.558   0.627  23.702  0.00  0.00    -0.341 OA
BRANCH  28  31
ATOM     31  O   UNL     1       8.606   1.984  21.110  0.00  0.00    -0.386 OA
ATOM     32  H   UNL     1       9.174   1.268  20.763  0.00  0.00    +0.210 HD
ENDBRANCH  28  31
BRANCH  27  33
ATOM     33  O   UNL     1      10.664   1.555  24.127  0.00  0.00    -0.386 OA
ATOM     34  H   UNL     1      10.841   0.704  24.573  0.00  0.00    +0.210 HD
ENDBRANCH  27  33
BRANCH  26  35
ATOM     35  O   UNL     1       9.537  -0.461  21.225  0.00  0.00    -0.384 OA
ATOM     36  H   UNL     1       9.973   0.243  20.698  0.00  0.00    +0.210 HD
ENDBRANCH  26  35
BRANCH  29  37
ATOM     37  C   UNL     1       7.923   2.833  24.694  0.00  0.00    +0.190 C 
BRANCH  37  38
ATOM     38  O   UNL     1       8.318   2.016  25.797  0.00  0.00    -0.392 OA
ATOM     39  H   UNL     1       8.034   2.467  26.617  0.00  0.00    +0.210 HD
ENDBRANCH  37  38
ENDBRANCH  29  37
ENDBRANCH  24  25
ENDBRANCH   4  24
BRANCH   5  40
ATOM     40  C   UNL     1       6.399  -1.489  26.474  0.00  0.00    +0.190 C 
BRANCH  40  41
ATOM     41  O   UNL     1       6.970  -0.179  26.625  0.00  0.00    -0.392 OA
ATOM     42  H   UNL     1       7.690  -0.279  27.277  0.00  0.00    +0.210 HD
ENDBRANCH  40  41
ENDBRANCH   5  40
TORSDOF 23
ENDMDL
MODEL 2
REMARK VINA RESULT:      -5.7      2.300      8.010
REMARK  Name = 
REMARK  24 active torsions:
REMARK  status: ('A' for Active; 'I' for Inactive)
REMARK    1  A    between atoms: C_1  and  C_2
REMARK    2  A    between atoms: C_2  and  C_3
REMARK    3  A    between atoms: C_3  and  C_4
REMARK    4  A    between atoms: C_4  and  C_5
REMARK    5  A    between atoms: C_5  and  C_6
REMARK    6  A    between atoms: C_6  and  C_7
REMARK    7  A    between atoms: C_7  and  C_8
REMARK    8  A    between atoms: C_8  and  C_9
REMARK    9  A    between atoms: C_9  and  C_10
REMARK   10  A    between atoms: C_10  and  C_11
REMARK   11  A    between atoms: C_11  and  C_12
REMARK   12  A    between atoms: C_12  and  O_13
REMARK   13  A    between atoms: O_13  and  C_14
REMARK   14  A    between atoms: C_17  and  C_19
REMARK   15  A    between atoms: C_19  and  O_20
REMARK   16  A    between atoms: C_21  and  O_23
REMARK   17  A    between atoms: O_23  and  C_24
REMARK   18  A    between atoms: C_27  and  C_29
REMARK   19  A    between atoms: C_29  and  O_30
REMARK   20  A    between atoms: C_31  and  O_33
REMARK   21  A    between atoms: C_34  and  O_36
REMARK   22  A    between atoms: C_37  and  O_39
REMARK   23  A    between atoms: C_40  and  O_42
REMARK   24  A    between atoms: C_43  and  O_45
REMARK                            x       y       z     vdW  Elec       q    Type
REMARK                         _______ _______ _______ _____ _____    ______ ____
ROOT
ATOM      1  C   UNL     1       9.194  -3.348  23.779  0.00  0.00    +0.282 C 
ATOM      2  C   UNL     1       9.271  -4.248  25.034  0.00  0.00    +0.201 C 
ATOM      3  C   UNL     1       8.134  -5.282  25.008  0.00  0.00    +0.179 C 
ATOM      4  C   UNL     1       6.765  -4.684  24.604  0.00  0.00    +0.183 C 
ATOM      5  C   UNL     1       6.959  -3.915  23.293  0.00  0.00    +0.178 C 
ATOM      6  O   UNL     1       7.880  -2.860  23.557  0.00  0.00    -0.341 OA
ENDROOT
BRANCH   3   7
ATOM      7  O   UNL     1       8.009  -5.979  26.248  0.00  0.00    -0.386 OA
ATOM      8  H   UNL     1       8.791  -6.552  26.323  0.00  0.00    +0.210 HD
ENDBRANCH   3   7
BRANCH   2   9
ATOM      9  O   UNL     1      10.542  -4.940  25.066  0.00  0.00    -0.384 OA
ATOM     10  H   UNL     1      11.264  -4.291  25.166  0.00  0.00    +0.210 HD
ENDBRANCH   2   9
BRANCH   1  11
ATOM     11  O   UNL     1      10.045  -2.217  23.902  0.00  0.00    -0.349 OA
BRANCH  11  12
ATOM     12  C   UNL     1      10.352  -1.685  22.610  0.00  0.00    +0.163 C 
BRANCH  12  13
ATOM     13  C   UNL     1      10.281  -0.179  22.679  0.00  0.00    +0.028 C 
BRANCH  13  14
ATOM     14  C   UNL     1      10.417   0.258  24.127  0.00  0.00    +0.002 C 
BRANCH  14  15
ATOM     15  C   UNL     1      10.800   1.718  24.213  0.00  0.00    +0.000 C 
BRANCH  15  16
ATOM     16  C   UNL     1      10.103   2.469  23.095  0.00  0.00    +0.000 C 
BRANCH  16  17
ATOM     17  C   UNL     1       9.225   3.557  23.676  0.00  0.00    +0.000 C 
BRANCH  17  18
ATOM     18  C   UNL     1       8.001   3.753  22.800  0.00  0.00    -0.000 C 
BRANCH  18  19
ATOM     19  C   UNL     1       7.747   2.485  22.004  0.00  0.00    -0.000 C 
BRANCH  19  20
ATOM     20  C   UNL     1       6.478   1.800  22.477  0.00  0.00    -0.000 C 
BRANCH  20  21
ATOM     21  C   UNL     1       6.825   0.484  23.166  0.00  0.00    -0.000 C 
BRANCH  21  23
ATOM     22  C   UNL     1       7.109   1.096  25.575  0.00  0.00    +0.004 C 
ATOM     23  C   UNL     1       6.210   0.412  24.561  0.00  0.00    -0.003 C 
ENDBRANCH  21  23
ENDBRANCH  20  21
ENDBRANCH  19  20
ENDBRANCH  18  19
ENDBRANCH  17  18
ENDBRANCH  16  17
ENDBRANCH  15  16
ENDBRANCH  14  15
ENDBRANCH  13  14
ENDBRANCH  12  13
ENDBRANCH  11  12
ENDBRANCH   1  11
BRANCH   4  24
ATOM     24  O   UNL     1       5.727  -5.679  24.608  0.00  0.00    -0.340 OA
BRANCH  24  25
ATOM     25  C   UNL     1       4.807  -5.634  25.715  0.00  0.00    +0.282 C 
ATOM     26  C   UNL     1       4.534  -7.096  26.126  0.00  0.00    +0.201 C 
ATOM     27  C   UNL     1       3.252  -7.610  25.475  0.00  0.00    +0.179 C 
ATOM     28  C   UNL     1       2.108  -6.644  25.805  0.00  0.00    +0.177 C 
ATOM     29  C   UNL     1       2.381  -5.252  25.235  0.00  0.00    +0.178 C 
ATOM     30  O   UNL     1       3.724  -4.794  25.367  0.00  0.00    -0.341 OA
BRANCH  28  31
ATOM     31  O   UNL     1       1.973  -6.558  27.233  0.00  0.00    -0.386 OA
ATOM     32  H   UNL     1       1.062  -6.834  27.455  0.00  0.00    +0.210 HD
ENDBRANCH  28  31
BRANCH  27  33
ATOM     33  O   UNL     1       3.383  -7.772  24.061  0.00  0.00    -0.386 OA
ATOM     34  H   UNL     1       3.700  -6.935  23.670  0.00  0.00    +0.210 HD
ENDBRANCH  27  33
BRANCH  26  35
ATOM     35  O   UNL     1       4.488  -7.214  27.557  0.00  0.00    -0.384 OA
ATOM     36  H   UNL     1       4.468  -8.172  27.773  0.00  0.00    +0.210 HD
ENDBRANCH  26  35
BRANCH  29  37
ATOM     37  C   UNL     1       1.885  -5.098  23.784  0.00  0.00    +0.190 C 
BRANCH  37  38
ATOM     38  O   UNL     1       2.978  -5.182  22.869  0.00  0.00    -0.392 OA
ATOM     39  H   UNL     1       2.708  -4.735  22.042  0.00  0.00    +0.210 HD
ENDBRANCH  37  38
ENDBRANCH  29  37
ENDBRANCH  24  25
ENDBRANCH   4  24
BRANCH   5  40
ATOM     40  C   UNL     1       5.727  -3.246  22.694  0.00  0.00    +0.190 C 
BRANCH  40  41
ATOM     41  O   UNL     1       4.878  -2.845  23.781  0.00  0.00    -0.392 OA
ATOM     42  H   UNL     1       5.480  -2.617  24.515  0.00  0.00    +0.210 HD
ENDBRANCH  40  41
ENDBRANCH   5  40
TORSDOF 23
ENDMDL
MODEL 3
REMARK VINA RESULT:      -5.6      2.678      8.875
REMARK  Name = 
REMARK  24 active torsions:
REMARK  status: ('A' for Active; 'I' for Inactive)
REMARK    1  A    between atoms: C_1  and  C_2
REMARK    2  A    between atoms: C_2  and  C_3
REMARK    3  A    between atoms: C_3  and  C_4
REMARK    4  A    between atoms: C_4  and  C_5
REMARK    5  A    between atoms: C_5  and  C_6
REMARK    6  A    between atoms: C_6  and  C_7
REMARK    7  A    between atoms: C_7  and  C_8
REMARK    8  A    between atoms: C_8  and  C_9
REMARK    9  A    between atoms: C_9  and  C_10
REMARK   10  A    between atoms: C_10  and  C_11
REMARK   11  A    between atoms: C_11  and  C_12
REMARK   12  A    between atoms: C_12  and  O_13
REMARK   13  A    between atoms: O_13  and  C_14
REMARK   14  A    between atoms: C_17  and  C_19
REMARK   15  A    between atoms: C_19  and  O_20
REMARK   16  A    between atoms: C_21  and  O_23
REMARK   17  A    between atoms: O_23  and  C_24
REMARK   18  A    between atoms: C_27  and  C_29
REMARK   19  A    between atoms: C_29  and  O_30
REMARK   20  A    between atoms: C_31  and  O_33
REMARK   21  A    between atoms: C_34  and  O_36
REMARK   22  A    between atoms: C_37  and  O_39
REMARK   23  A    between atoms: C_40  and  O_42
REMARK   24  A    between atoms: C_43  and  O_45
REMARK                            x       y       z     vdW  Elec       q    Type
REMARK                         _______ _______ _______ _____ _____    ______ ____
ROOT
ATOM      1  C   UNL     1       8.938  -1.488  23.852  0.00  0.00    +0.282 C 
ATOM      2  C   UNL     1       7.788  -1.633  22.828  0.00  0.00    +0.201 C 
ATOM      3  C   UNL     1       6.865  -2.792  23.238  0.00  0.00    +0.179 C 
ATOM      4  C   UNL     1       7.628  -4.061  23.685  0.00  0.00    +0.183 C 
ATOM      5  C   UNL     1       8.644  -3.645  24.753  0.00  0.00    +0.178 C 
ATOM      6  O   UNL     1       9.552  -2.735  24.139  0.00  0.00    -0.341 OA
ENDROOT
BRANCH   3   7
ATOM      7  O   UNL     1       5.930  -3.126  22.213  0.00  0.00    -0.386 OA
ATOM      8  H   UNL     1       6.275  -2.744  21.388  0.00  0.00    +0.210 HD
ENDBRANCH   3   7
BRANCH   2   9
ATOM      9  O   UNL     1       7.019  -0.408  22.776  0.00  0.00    -0.384 OA
ATOM     10  H   UNL     1       7.192   0.120  23.578  0.00  0.00    +0.210 HD
ENDBRANCH   2   9
BRANCH   1  11
ATOM     11  O   UNL     1       9.956  -0.624  23.365  0.00  0.00    -0.349 OA
BRANCH  11  12
ATOM     12  C   UNL     1      10.486   0.168  24.433  0.00  0.00    +0.163 C 
BRANCH  12  13
ATOM     13  C   UNL     1      10.732   1.566  23.920  0.00  0.00    +0.028 C 
BRANCH  13  14
ATOM     14  C   UNL     1       9.732   1.873  22.819  0.00  0.00    +0.002 C 
BRANCH  14  15
ATOM     15  C   UNL     1       8.697   2.868  23.296  0.00  0.00    +0.000 C 
BRANCH  15  16
ATOM     16  C   UNL     1       9.113   3.382  24.660  0.00  0.00    +0.000 C 
BRANCH  16  17
ATOM     17  C   UNL     1       8.493   4.742  24.907  0.00  0.00    +0.000 C 
BRANCH  17  18
ATOM     18  C   UNL     1       8.397   5.509  23.601  0.00  0.00    -0.000 C 
BRANCH  18  19
ATOM     19  C   UNL     1       9.719   6.206  23.332  0.00  0.00    -0.000 C 
BRANCH  19  20
ATOM     20  C   UNL     1      10.467   6.455  24.629  0.00  0.00    -0.000 C 
BRANCH  20  21
ATOM     21  C   UNL     1      11.961   6.239  24.415  0.00  0.00    -0.000 C 
BRANCH  21  23
ATOM     22  C   UNL     1      13.227   5.524  22.379  0.00  0.00    +0.004 C 
ATOM     23  C   UNL     1      12.219   5.100  23.432  0.00  0.00    -0.003 C 
ENDBRANCH  21  23
ENDBRANCH  20  21
ENDBRANCH  19  20
ENDBRANCH  18  19
ENDBRANCH  17  18
ENDBRANCH  16  17
ENDBRANCH  15  16
ENDBRANCH  14  15
ENDBRANCH  13  14
ENDBRANCH  12  13
ENDBRANCH  11  12
ENDBRANCH   1  11
BRANCH   4  24
ATOM     24  O   UNL     1       6.729  -5.124  24.044  0.00  0.00    -0.340 OA
BRANCH  24  25
ATOM     25  C   UNL     1       5.941  -4.917  25.231  0.00  0.00    +0.282 C 
ATOM     26  C   UNL     1       5.833  -6.285  25.937  0.00  0.00    +0.201 C 
ATOM     27  C   UNL     1       4.530  -6.986  25.561  0.00  0.00    +0.179 C 
ATOM     28  C   UNL     1       3.358  -6.041  25.850  0.00  0.00    +0.177 C 
ATOM     29  C   UNL     1       3.453  -4.773  25.001  0.00  0.00    +0.178 C 
ATOM     30  O   UNL     1       4.762  -4.223  24.874  0.00  0.00    -0.341 OA
BRANCH  28  31
ATOM     31  O   UNL     1       3.381  -5.688  27.242  0.00  0.00    -0.386 OA
ATOM     32  H   UNL     1       4.233  -5.239  27.412  0.00  0.00    +0.210 HD
ENDBRANCH  28  31
BRANCH  27  33
ATOM     33  O   UNL     1       4.511  -7.411  24.197  0.00  0.00    -0.386 OA
ATOM     34  H   UNL     1       4.844  -8.328  24.142  0.00  0.00    +0.210 HD
ENDBRANCH  27  33
BRANCH  26  35
ATOM     35  O   UNL     1       5.960  -6.126  27.359  0.00  0.00    -0.384 OA
ATOM     36  H   UNL     1       5.678  -5.212  27.580  0.00  0.00    +0.210 HD
ENDBRANCH  26  35
BRANCH  29  37
ATOM     37  C   UNL     1       2.783  -4.930  23.623  0.00  0.00    +0.190 C 
BRANCH  37  38
ATOM     38  O   UNL     1       3.768  -5.135  22.608  0.00  0.00    -0.392 OA
ATOM     39  H   UNL     1       3.302  -5.419  21.796  0.00  0.00    +0.210 HD
ENDBRANCH  37  38
ENDBRANCH  29  37
ENDBRANCH  24  25
ENDBRANCH   4  24
BRANCH   5  40
ATOM     40  C   UNL     1       9.509  -4.747  25.354  0.00  0.00    +0.190 C 
BRANCH  40  41
ATOM     41  O   UNL     1       9.552  -5.830  24.409  0.00  0.00    -0.392 OA
ATOM     42  H   UNL     1      10.221  -6.453  24.754  0.00  0.00    +0.210 HD
ENDBRANCH  40  41
ENDBRANCH   5  40
TORSDOF 23
ENDMDL
MODEL 4
REMARK VINA RESULT:      -5.6      2.712      8.911
REMARK  Name = 
REMARK  24 active torsions:
REMARK  status: ('A' for Active; 'I' for Inactive)
REMARK    1  A    between atoms: C_1  and  C_2
REMARK    2  A    between atoms: C_2  and  C_3
REMARK    3  A    between atoms: C_3  and  C_4
REMARK    4  A    between atoms: C_4  and  C_5
REMARK    5  A    between atoms: C_5  and  C_6
REMARK    6  A    between atoms: C_6  and  C_7
REMARK    7  A    between atoms: C_7  and  C_8
REMARK    8  A    between atoms: C_8  and  C_9
REMARK    9  A    between atoms: C_9  and  C_10
REMARK   10  A    between atoms: C_10  and  C_11
REMARK   11  A    between atoms: C_11  and  C_12
REMARK   12  A    between atoms: C_12  and  O_13
REMARK   13  A    between atoms: O_13  and  C_14
REMARK   14  A    between atoms: C_17  and  C_19
REMARK   15  A    between atoms: C_19  and  O_20
REMARK   16  A    between atoms: C_21  and  O_23
REMARK   17  A    between atoms: O_23  and  C_24
REMARK   18  A    between atoms: C_27  and  C_29
REMARK   19  A    between atoms: C_29  and  O_30
REMARK   20  A    between atoms: C_31  and  O_33
REMARK   21  A    between atoms: C_34  and  O_36
REMARK   22  A    between atoms: C_37  and  O_39
REMARK   23  A    between atoms: C_40  and  O_42
REMARK   24  A    between atoms: C_43  and  O_45
REMARK                            x       y       z     vdW  Elec       q    Type
REMARK                         _______ _______ _______ _____ _____    ______ ____
ROOT
ATOM      1  C   UNL     1       7.863  -2.218  24.410  0.00  0.00    +0.282 C 
ATOM      2  C   UNL     1       6.851  -2.310  23.245  0.00  0.00    +0.201 C 
ATOM      3  C   UNL     1       5.858  -3.456  23.503  0.00  0.00    +0.179 C 
ATOM      4  C   UNL     1       6.530  -4.754  24.010  0.00  0.00    +0.183 C 
ATOM      5  C   UNL     1       7.410  -4.388  25.210  0.00  0.00    +0.178 C 
ATOM      6  O   UNL     1       8.408  -3.487  24.740  0.00  0.00    -0.341 OA
ENDROOT
BRANCH   3   7
ATOM      7  O   UNL     1       5.055  -3.742  22.358  0.00  0.00    -0.386 OA
ATOM      8  H   UNL     1       4.721  -2.889  22.034  0.00  0.00    +0.210 HD
ENDBRANCH   3   7
BRANCH   2   9
ATOM      9  O   UNL     1       6.122  -1.066  23.128  0.00  0.00    -0.384 OA
ATOM     10  H   UNL     1       6.746  -0.318  23.166  0.00  0.00    +0.210 HD
ENDBRANCH   2   9
BRANCH   1  11
ATOM     11  O   UNL     1       8.953  -1.369  24.081  0.00  0.00    -0.349 OA
BRANCH  11  12
ATOM     12  C   UNL     1       9.489  -1.724  22.802  0.00  0.00    +0.163 C 
BRANCH  12  13
ATOM     13  C   UNL     1      10.360  -0.592  22.312  0.00  0.00    +0.028 C 
BRANCH  13  14
ATOM     14  C   UNL     1       9.484   0.454  21.645  0.00  0.00    +0.002 C 
BRANCH  14  15
ATOM     15  C   UNL     1       9.941   1.849  22.011  0.00  0.00    +0.000 C 
BRANCH  15  16
ATOM     16  C   UNL     1      10.382   1.849  23.462  0.00  0.00    +0.000 C 
BRANCH  16  17
ATOM     17  C   UNL     1       9.389   2.625  24.301  0.00  0.00    +0.000 C 
BRANCH  17  18
ATOM     18  C   UNL     1       8.689   3.662  23.442  0.00  0.00    -0.000 C 
BRANCH  18  19
ATOM     19  C   UNL     1       8.243   4.819  24.319  0.00  0.00    -0.000 C 
BRANCH  19  20
ATOM     20  C   UNL     1       9.444   5.583  24.848  0.00  0.00    -0.000 C 
BRANCH  20  21
ATOM     21  C   UNL     1      10.305   6.063  23.685  0.00  0.00    -0.000 C 
BRANCH  21  23
ATOM     22  C   UNL     1      12.480   4.977  23.094  0.00  0.00    +0.004 C 
ATOM     23  C   UNL     1      11.791   5.963  24.020  0.00  0.00    -0.003 C 
ENDBRANCH  21  23
ENDBRANCH  20  21
ENDBRANCH  19  20
ENDBRANCH  18  19
ENDBRANCH  17  18
ENDBRANCH  16  17
ENDBRANCH  15  16
ENDBRANCH  14  15
ENDBRANCH  13  14
ENDBRANCH  12  13
ENDBRANCH  11  12
ENDBRANCH   1  11
BRANCH   4  24
ATOM     24  O   UNL     1       5.570  -5.802  24.223  0.00  0.00    -0.340 OA
BRANCH  24  25
ATOM     25  C   UNL     1       4.743  -5.679  25.395  0.00  0.00    +0.282 C 
ATOM     26  C   UNL     1       4.496  -7.111  25.917  0.00  0.00    +0.201 C 
ATOM     27  C   UNL     1       3.162  -7.650  25.404  0.00  0.00    +0.179 C 
ATOM     28  C   UNL     1       2.054  -6.653  25.765  0.00  0.00    +0.177 C 
ATOM     29  C   UNL     1       2.288  -5.302  25.090  0.00  0.00    +0.178 C 
ATOM     30  O   UNL     1       3.640  -4.851  25.084  0.00  0.00    -0.341 OA
BRANCH  28  31
ATOM     31  O   UNL     1       2.037  -6.478  27.191  0.00  0.00    -0.386 OA
ATOM     32  H   UNL     1       2.950  -6.615  27.511  0.00  0.00    +0.210 HD
ENDBRANCH  28  31
BRANCH  27  33
ATOM     33  O   UNL     1       3.177  -7.899  23.997  0.00  0.00    -0.386 OA
ATOM     34  H   UNL     1       2.817  -7.121  23.530  0.00  0.00    +0.210 HD
ENDBRANCH  27  33
BRANCH  26  35
ATOM     35  O   UNL     1       4.565  -7.140  27.352  0.00  0.00    -0.384 OA
ATOM     36  H   UNL     1       5.271  -7.776  27.599  0.00  0.00    +0.210 HD
ENDBRANCH  26  35
BRANCH  29  37
ATOM     37  C   UNL     1       1.676  -5.232  23.677  0.00  0.00    +0.190 C 
BRANCH  37  38
ATOM     38  O   UNL     1       2.686  -5.416  22.684  0.00  0.00    -0.392 OA
ATOM     39  H   UNL     1       2.585  -6.319  22.321  0.00  0.00    +0.210 HD
ENDBRANCH  37  38
ENDBRANCH  29  37
ENDBRANCH  24  25
ENDBRANCH   4  24
BRANCH   5  40
ATOM     40  C   UNL     1       8.166  -5.526  25.886  0.00  0.00    +0.190 C 
BRANCH  40  41
ATOM     41  O   UNL     1       8.244  -5.222  27.289  0.00  0.00    -0.392 OA
ATOM     42  H   UNL     1       8.252  -4.247  27.347  0.00  0.00    +0.210 HD
ENDBRANCH  40  41
ENDBRANCH   5  40
TORSDOF 23
ENDMDL
MODEL 5
REMARK VINA RESULT:      -5.6      2.579      8.665
REMARK  Name = 
REMARK  24 active torsions:
REMARK  status: ('A' for Active; 'I' for Inactive)
REMARK    1  A    between atoms: C_1  and  C_2
REMARK    2  A    between atoms: C_2  and  C_3
REMARK    3  A    between atoms: C_3  and  C_4
REMARK    4  A    between atoms: C_4  and  C_5
REMARK    5  A    between atoms: C_5  and  C_6
REMARK    6  A    between atoms: C_6  and  C_7
REMARK    7  A    between atoms: C_7  and  C_8
REMARK    8  A    between atoms: C_8  and  C_9
REMARK    9  A    between atoms: C_9  and  C_10
REMARK   10  A    between atoms: C_10  and  C_11
REMARK   11  A    between atoms: C_11  and  C_12
REMARK   12  A    between atoms: C_12  and  O_13
REMARK   13  A    between atoms: O_13  and  C_14
REMARK   14  A    between atoms: C_17  and  C_19
REMARK   15  A    between atoms: C_19  and  O_20
REMARK   16  A    between atoms: C_21  and  O_23
REMARK   17  A    between atoms: O_23  and  C_24
REMARK   18  A    between atoms: C_27  and  C_29
REMARK   19  A    between atoms: C_29  and  O_30
REMARK   20  A    between atoms: C_31  and  O_33
REMARK   21  A    between atoms: C_34  and  O_36
REMARK   22  A    between atoms: C_37  and  O_39
REMARK   23  A    between atoms: C_40  and  O_42
REMARK   24  A    between atoms: C_43  and  O_45
REMARK                            x       y       z     vdW  Elec       q    Type
REMARK                         _______ _______ _______ _____ _____    ______ ____
ROOT
ATOM      1  C   UNL     1       9.274  -3.452  23.853  0.00  0.00    +0.282 C 
ATOM      2  C   UNL     1       9.276  -4.319  25.134  0.00  0.00    +0.201 C 
ATOM      3  C   UNL     1       8.117  -5.327  25.086  0.00  0.00    +0.179 C 
ATOM      4  C   UNL     1       6.781  -4.711  24.607  0.00  0.00    +0.183 C 
ATOM      5  C   UNL     1       7.049  -3.982  23.286  0.00  0.00    +0.178 C 
ATOM      6  O   UNL     1       7.983  -2.942  23.562  0.00  0.00    -0.341 OA
ENDROOT
BRANCH   3   7
ATOM      7  O   UNL     1       7.923  -5.987  26.337  0.00  0.00    -0.386 OA
ATOM      8  H   UNL     1       8.789  -6.001  26.779  0.00  0.00    +0.210 HD
ENDBRANCH   3   7
BRANCH   2   9
ATOM      9  O   UNL     1      10.528  -5.038  25.238  0.00  0.00    -0.384 OA
ATOM     10  H   UNL     1      10.363  -5.995  25.137  0.00  0.00    +0.210 HD
ENDBRANCH   2   9
BRANCH   1  11
ATOM     11  O   UNL     1      10.145  -2.337  23.983  0.00  0.00    -0.349 OA
BRANCH  11  12
ATOM     12  C   UNL     1       9.453  -1.236  24.581  0.00  0.00    +0.163 C 
BRANCH  12  13
ATOM     13  C   UNL     1       9.899   0.038  23.904  0.00  0.00    +0.028 C 
BRANCH  13  14
ATOM     14  C   UNL     1      10.014  -0.209  22.410  0.00  0.00    +0.002 C 
BRANCH  14  15
ATOM     15  C   UNL     1       9.577   1.011  21.630  0.00  0.00    +0.000 C 
BRANCH  15  16
ATOM     16  C   UNL     1       9.463   2.182  22.586  0.00  0.00    +0.000 C 
BRANCH  16  17
ATOM     17  C   UNL     1       8.095   2.819  22.458  0.00  0.00    +0.000 C 
BRANCH  17  18
ATOM     18  C   UNL     1       8.093   4.175  23.141  0.00  0.00    -0.000 C 
BRANCH  18  19
ATOM     19  C   UNL     1       9.151   4.188  24.231  0.00  0.00    -0.000 C 
BRANCH  19  20
ATOM     20  C   UNL     1       9.556   5.611  24.567  0.00  0.00    -0.000 C 
BRANCH  20  21
ATOM     21  C   UNL     1      10.729   6.037  23.689  0.00  0.00    -0.000 C 
BRANCH  21  23
ATOM     22  C   UNL     1      12.904   5.345  22.663  0.00  0.00    +0.004 C 
ATOM     23  C   UNL     1      11.718   4.890  23.496  0.00  0.00    -0.003 C 
ENDBRANCH  21  23
ENDBRANCH  20  21
ENDBRANCH  19  20
ENDBRANCH  18  19
ENDBRANCH  17  18
ENDBRANCH  16  17
ENDBRANCH  15  16
ENDBRANCH  14  15
ENDBRANCH  13  14
ENDBRANCH  12  13
ENDBRANCH  11  12
ENDBRANCH   1  11
BRANCH   4  24
ATOM     24  O   UNL     1       5.721  -5.682  24.593  0.00  0.00    -0.340 OA
BRANCH  24  25
ATOM     25  C   UNL     1       4.798  -5.632  25.697  0.00  0.00    +0.282 C 
ATOM     26  C   UNL     1       4.522  -7.093  26.112  0.00  0.00    +0.201 C 
ATOM     27  C   UNL     1       3.241  -7.607  25.459  0.00  0.00    +0.179 C 
ATOM     28  C   UNL     1       2.097  -6.639  25.783  0.00  0.00    +0.177 C 
ATOM     29  C   UNL     1       2.374  -5.249  25.209  0.00  0.00    +0.178 C 
ATOM     30  O   UNL     1       3.717  -4.792  25.343  0.00  0.00    -0.341 OA
BRANCH  28  31
ATOM     31  O   UNL     1       1.959  -6.549  27.210  0.00  0.00    -0.386 OA
ATOM     32  H   UNL     1       2.836  -6.309  27.571  0.00  0.00    +0.210 HD
ENDBRANCH  28  31
BRANCH  27  33
ATOM     33  O   UNL     1       3.376  -7.774  24.046  0.00  0.00    -0.386 OA
ATOM     34  H   UNL     1       4.323  -7.857  23.821  0.00  0.00    +0.210 HD
ENDBRANCH  27  33
BRANCH  26  35
ATOM     35  O   UNL     1       4.472  -7.206  27.543  0.00  0.00    -0.384 OA
ATOM     36  H   UNL     1       4.066  -6.382  27.890  0.00  0.00    +0.210 HD
ENDBRANCH  26  35
BRANCH  29  37
ATOM     37  C   UNL     1       1.881  -5.099  23.757  0.00  0.00    +0.190 C 
BRANCH  37  38
ATOM     38  O   UNL     1       2.980  -5.161  22.846  0.00  0.00    -0.392 OA
ATOM     39  H   UNL     1       2.686  -5.662  22.059  0.00  0.00    +0.210 HD
ENDBRANCH  37  38
ENDBRANCH  29  37
ENDBRANCH  24  25
ENDBRANCH   4  24
BRANCH   5  40
ATOM     40  C   UNL     1       5.860  -3.303  22.616  0.00  0.00    +0.190 C 
BRANCH  40  41
ATOM     41  O   UNL     1       4.938  -2.921  23.650  0.00  0.00    -0.392 OA
ATOM     42  H   UNL     1       5.423  -2.289  24.215  0.00  0.00    +0.210 HD
ENDBRANCH  40  41
ENDBRANCH   5  40
TORSDOF 23
ENDMDL
MODEL 6
REMARK VINA RESULT:      -5.5      2.511      8.746
REMARK  Name = 
REMARK  24 active torsions:
REMARK  status: ('A' for Active; 'I' for Inactive)
REMARK    1  A    between atoms: C_1  and  C_2
REMARK    2  A    between atoms: C_2  and  C_3
REMARK    3  A    between atoms: C_3  and  C_4
REMARK    4  A    between atoms: C_4  and  C_5
REMARK    5  A    between atoms: C_5  and  C_6
REMARK    6  A    between atoms: C_6  and  C_7
REMARK    7  A    between atoms: C_7  and  C_8
REMARK    8  A    between atoms: C_8  and  C_9
REMARK    9  A    between atoms: C_9  and  C_10
REMARK   10  A    between atoms: C_10  and  C_11
REMARK   11  A    between atoms: C_11  and  C_12
REMARK   12  A    between atoms: C_12  and  O_13
REMARK   13  A    between atoms: O_13  and  C_14
REMARK   14  A    between atoms: C_17  and  C_19
REMARK   15  A    between atoms: C_19  and  O_20
REMARK   16  A    between atoms: C_21  and  O_23
REMARK   17  A    between atoms: O_23  and  C_24
REMARK   18  A    between atoms: C_27  and  C_29
REMARK   19  A    between atoms: C_29  and  O_30
REMARK   20  A    between atoms: C_31  and  O_33
REMARK   21  A    between atoms: C_34  and  O_36
REMARK   22  A    between atoms: C_37  and  O_39
REMARK   23  A    between atoms: C_40  and  O_42
REMARK   24  A    between atoms: C_43  and  O_45
REMARK                            x       y       z     vdW  Elec       q    Type
REMARK                         _______ _______ _______ _____ _____    ______ ____
ROOT
ATOM      1  C   UNL     1       8.948  -1.854  24.867  0.00  0.00    +0.282 C 
ATOM      2  C   UNL     1       7.460  -1.465  24.707  0.00  0.00    +0.201 C 
ATOM      3  C   UNL     1       6.573  -2.451  25.484  0.00  0.00    +0.179 C 
ATOM      4  C   UNL     1       6.980  -3.931  25.291  0.00  0.00    +0.183 C 
ATOM      5  C   UNL     1       8.478  -4.048  25.589  0.00  0.00    +0.178 C 
ATOM      6  O   UNL     1       9.161  -3.238  24.636  0.00  0.00    -0.341 OA
ENDROOT
BRANCH   3   7
ATOM      7  O   UNL     1       5.188  -2.287  25.179  0.00  0.00    -0.386 OA
ATOM      8  H   UNL     1       4.818  -3.181  25.082  0.00  0.00    +0.210 HD
ENDBRANCH   3   7
BRANCH   2   9
ATOM      9  O   UNL     1       7.244  -0.128  25.216  0.00  0.00    -0.384 OA
ATOM     10  H   UNL     1       7.739   0.512  24.672  0.00  0.00    +0.210 HD
ENDBRANCH   2   9
BRANCH   1  11
ATOM     11  O   UNL     1       9.769  -1.146  23.949  0.00  0.00    -0.349 OA
BRANCH  11  12
ATOM     12  C   UNL     1       9.589  -1.661  22.626  0.00  0.00    +0.163 C 
BRANCH  12  13
ATOM     13  C   UNL     1       9.728  -0.523  21.643  0.00  0.00    +0.028 C 
BRANCH  13  14
ATOM     14  C   UNL     1       9.175   0.744  22.271  0.00  0.00    +0.002 C 
BRANCH  14  15
ATOM     15  C   UNL     1      10.193   1.861  22.211  0.00  0.00    +0.000 C 
BRANCH  15  16
ATOM     16  C   UNL     1      10.400   2.403  23.612  0.00  0.00    +0.000 C 
BRANCH  16  17
ATOM     17  C   UNL     1       9.061   2.720  24.244  0.00  0.00    +0.000 C 
BRANCH  17  18
ATOM     18  C   UNL     1       9.038   4.167  24.703  0.00  0.00    -0.000 C 
BRANCH  18  19
ATOM     19  C   UNL     1       8.739   5.064  23.514  0.00  0.00    -0.000 C 
BRANCH  19  20
ATOM     20  C   UNL     1       9.814   6.125  23.361  0.00  0.00    -0.000 C 
BRANCH  20  21
ATOM     21  C   UNL     1      10.541   6.321  24.687  0.00  0.00    -0.000 C 
BRANCH  21  23
ATOM     22  C   UNL     1      12.463   5.436  23.351  0.00  0.00    +0.004 C 
ATOM     23  C   UNL     1      12.054   6.357  24.487  0.00  0.00    -0.003 C 
ENDBRANCH  21  23
ENDBRANCH  20  21
ENDBRANCH  19  20
ENDBRANCH  18  19
ENDBRANCH  17  18
ENDBRANCH  16  17
ENDBRANCH  15  16
ENDBRANCH  14  15
ENDBRANCH  13  14
ENDBRANCH  12  13
ENDBRANCH  11  12
ENDBRANCH   1  11
BRANCH   4  24
ATOM     24  O   UNL     1       6.117  -4.820  26.021  0.00  0.00    -0.340 OA
BRANCH  24  25
ATOM     25  C   UNL     1       5.715  -6.021  25.335  0.00  0.00    +0.282 C 
ATOM     26  C   UNL     1       5.086  -5.581  23.997  0.00  0.00    +0.201 C 
ATOM     27  C   UNL     1       3.566  -5.502  24.114  0.00  0.00    +0.179 C 
ATOM     28  C   UNL     1       3.040  -6.842  24.639  0.00  0.00    +0.177 C 
ATOM     29  C   UNL     1       3.589  -7.140  26.035  0.00  0.00    +0.178 C 
ATOM     30  O   UNL     1       4.964  -6.820  26.228  0.00  0.00    -0.341 OA
BRANCH  28  31
ATOM     31  O   UNL     1       3.443  -7.883  23.735  0.00  0.00    -0.386 OA
ATOM     32  H   UNL     1       3.536  -8.703  24.260  0.00  0.00    +0.210 HD
ENDBRANCH  28  31
BRANCH  27  33
ATOM     33  O   UNL     1       3.136  -4.428  24.953  0.00  0.00    -0.386 OA
ATOM     34  H   UNL     1       3.061  -3.613  24.419  0.00  0.00    +0.210 HD
ENDBRANCH  27  33
BRANCH  26  35
ATOM     35  O   UNL     1       5.493  -6.462  22.938  0.00  0.00    -0.384 OA
ATOM     36  H   UNL     1       5.981  -7.209  23.347  0.00  0.00    +0.210 HD
ENDBRANCH  26  35
BRANCH  29  37
ATOM     37  C   UNL     1       2.718  -6.537  27.155  0.00  0.00    +0.190 C 
BRANCH  37  38
ATOM     38  O   UNL     1       3.349  -5.384  27.713  0.00  0.00    -0.392 OA
ATOM     39  H   UNL     1       4.035  -5.694  28.338  0.00  0.00    +0.210 HD
ENDBRANCH  37  38
ENDBRANCH  29  37
ENDBRANCH  24  25
ENDBRANCH   4  24
BRANCH   5  40
ATOM     40  C   UNL     1       9.102  -5.434  25.475  0.00  0.00    +0.190 C 
BRANCH  40  41
ATOM     41  O   UNL     1      10.494  -5.260  25.163  0.00  0.00    -0.392 OA
ATOM     42  H   UNL     1      10.911  -4.945  25.989  0.00  0.00    +0.210 HD
ENDBRANCH  40  41
ENDBRANCH   5  40
TORSDOF 23
ENDMDL
MODEL 7
REMARK VINA RESULT:      -5.4      2.039      4.417
REMARK  Name = 
REMARK  24 active torsions:
REMARK  status: ('A' for Active; 'I' for Inactive)
REMARK    1  A    between atoms: C_1  and  C_2
REMARK    2  A    between atoms: C_2  and  C_3
REMARK    3  A    between atoms: C_3  and  C_4
REMARK    4  A    between atoms: C_4  and  C_5
REMARK    5  A    between atoms: C_5  and  C_6
REMARK    6  A    between atoms: C_6  and  C_7
REMARK    7  A    between atoms: C_7  and  C_8
REMARK    8  A    between atoms: C_8  and  C_9
REMARK    9  A    between atoms: C_9  and  C_10
REMARK   10  A    between atoms: C_10  and  C_11
REMARK   11  A    between atoms: C_11  and  C_12
REMARK   12  A    between atoms: C_12  and  O_13
REMARK   13  A    between atoms: O_13  and  C_14
REMARK   14  A    between atoms: C_17  and  C_19
REMARK   15  A    between atoms: C_19  and  O_20
REMARK   16  A    between atoms: C_21  and  O_23
REMARK   17  A    between atoms: O_23  and  C_24
REMARK   18  A    between atoms: C_27  and  C_29
REMARK   19  A    between atoms: C_29  and  O_30
REMARK   20  A    between atoms: C_31  and  O_33
REMARK   21  A    between atoms: C_34  and  O_36
REMARK   22  A    between atoms: C_37  and  O_39
REMARK   23  A    between atoms: C_40  and  O_42
REMARK   24  A    between atoms: C_43  and  O_45
REMARK                            x       y       z     vdW  Elec       q    Type
REMARK                         _______ _______ _______ _____ _____    ______ ____
ROOT
ATOM      1  C   UNL     1       8.991  -1.754  23.221  0.00  0.00    +0.282 C 
ATOM      2  C   UNL     1       9.203  -0.732  22.080  0.00  0.00    +0.201 C 
ATOM      3  C   UNL     1       9.675   0.611  22.660  0.00  0.00    +0.179 C 
ATOM      4  C   UNL     1       8.889   1.052  23.918  0.00  0.00    +0.183 C 
ATOM      5  C   UNL     1       8.904  -0.114  24.912  0.00  0.00    +0.178 C 
ATOM      6  O   UNL     1       8.233  -1.206  24.289  0.00  0.00    -0.341 OA
ENDROOT
BRANCH   3   7
ATOM      7  O   UNL     1       9.657   1.656  21.688  0.00  0.00    -0.386 OA
ATOM      8  H   UNL     1       9.535   2.487  22.177  0.00  0.00    +0.210 HD
ENDBRANCH   3   7
BRANCH   2   9
ATOM      9  O   UNL     1      10.199  -1.227  21.155  0.00  0.00    -0.384 OA
ATOM     10  H   UNL     1      11.087  -0.959  21.458  0.00  0.00    +0.210 HD
ENDBRANCH   2   9
BRANCH   1  11
ATOM     11  O   UNL     1       8.295  -2.903  22.761  0.00  0.00    -0.349 OA
BRANCH  11  12
ATOM     12  C   UNL     1       7.000  -2.536  22.275  0.00  0.00    +0.163 C 
BRANCH  12  13
ATOM     13  C   UNL     1       6.100  -3.747  22.339  0.00  0.00    +0.028 C 
BRANCH  13  14
ATOM     14  C   UNL     1       6.847  -4.949  21.791  0.00  0.00    +0.002 C 
BRANCH  14  15
ATOM     15  C   UNL     1       6.243  -6.237  22.305  0.00  0.00    +0.000 C 
BRANCH  15  16
ATOM     16  C   UNL     1       4.885  -5.929  22.906  0.00  0.00    +0.000 C 
BRANCH  16  17
ATOM     17  C   UNL     1       4.712  -6.691  24.203  0.00  0.00    +0.000 C 
BRANCH  17  18
ATOM     18  C   UNL     1       3.980  -5.827  25.214  0.00  0.00    -0.000 C 
BRANCH  18  19
ATOM     19  C   UNL     1       4.888  -4.689  25.649  0.00  0.00    -0.000 C 
BRANCH  19  20
ATOM     20  C   UNL     1       6.113  -5.226  26.366  0.00  0.00    -0.000 C 
BRANCH  20  21
ATOM     21  C   UNL     1       7.351  -4.451  25.927  0.00  0.00    -0.000 C 
BRANCH  21  23
ATOM     22  C   UNL     1       9.767  -4.887  25.444  0.00  0.00    +0.004 C 
ATOM     23  C   UNL     1       8.344  -5.359  25.205  0.00  0.00    -0.003 C 
ENDBRANCH  21  23
ENDBRANCH  20  21
ENDBRANCH  19  20
ENDBRANCH  18  19
ENDBRANCH  17  18
ENDBRANCH  16  17
ENDBRANCH  15  16
ENDBRANCH  14  15
ENDBRANCH  13  14
ENDBRANCH  12  13
ENDBRANCH  11  12
ENDBRANCH   1  11
BRANCH   4  24
ATOM     24  O   UNL     1       9.351   2.318  24.418  0.00  0.00    -0.340 OA
BRANCH  24  25
ATOM     25  C   UNL     1       8.343   3.198  24.950  0.00  0.00    +0.282 C 
ATOM     26  C   UNL     1       7.098   3.042  24.051  0.00  0.00    +0.201 C 
ATOM     27  C   UNL     1       7.060   4.136  22.986  0.00  0.00    +0.179 C 
ATOM     28  C   UNL     1       7.165   5.502  23.676  0.00  0.00    +0.177 C 
ATOM     29  C   UNL     1       8.492   5.640  24.422  0.00  0.00    +0.178 C 
ATOM     30  O   UNL     1       8.914   4.479  25.133  0.00  0.00    -0.341 OA
BRANCH  28  31
ATOM     31  O   UNL     1       6.078   5.635  24.605  0.00  0.00    -0.386 OA
ATOM     32  H   UNL     1       5.771   6.562  24.560  0.00  0.00    +0.210 HD
ENDBRANCH  28  31
BRANCH  27  33
ATOM     33  O   UNL     1       8.091   3.985  22.008  0.00  0.00    -0.386 OA
ATOM     34  H   UNL     1       8.079   3.069  21.669  0.00  0.00    +0.210 HD
ENDBRANCH  27  33
BRANCH  26  35
ATOM     35  O   UNL     1       5.903   3.033  24.847  0.00  0.00    -0.384 OA
ATOM     36  H   UNL     1       5.372   3.818  24.590  0.00  0.00    +0.210 HD
ENDBRANCH  26  35
BRANCH  29  37
ATOM     37  C   UNL     1       9.623   6.180  23.526  0.00  0.00    +0.190 C 
BRANCH  37  38
ATOM     38  O   UNL     1      10.547   5.139  23.204  0.00  0.00    -0.392 OA
ATOM     39  H   UNL     1      10.299   4.350  23.726  0.00  0.00    +0.210 HD
ENDBRANCH  37  38
ENDBRANCH  29  37
ENDBRANCH  24  25
ENDBRANCH   4  24
BRANCH   5  40
ATOM     40  C   UNL     1       8.193   0.101  26.243  0.00  0.00    +0.190 C 
BRANCH  40  41
ATOM     41  O   UNL     1       9.030  -0.444  27.276  0.00  0.00    -0.392 OA
ATOM     42  H   UNL     1       9.405   0.326  27.745  0.00  0.00    +0.210 HD
ENDBRANCH  40  41
ENDBRANCH   5  40
TORSDOF 23
ENDMDL
MODEL 8
REMARK VINA RESULT:      -5.4      2.084      4.030
REMARK  Name = 
REMARK  24 active torsions:
REMARK  status: ('A' for Active; 'I' for Inactive)
REMARK    1  A    between atoms: C_1  and  C_2
REMARK    2  A    between atoms: C_2  and  C_3
REMARK    3  A    between atoms: C_3  and  C_4
REMARK    4  A    between atoms: C_4  and  C_5
REMARK    5  A    between atoms: C_5  and  C_6
REMARK    6  A    between atoms: C_6  and  C_7
REMARK    7  A    between atoms: C_7  and  C_8
REMARK    8  A    between atoms: C_8  and  C_9
REMARK    9  A    between atoms: C_9  and  C_10
REMARK   10  A    between atoms: C_10  and  C_11
REMARK   11  A    between atoms: C_11  and  C_12
REMARK   12  A    between atoms: C_12  and  O_13
REMARK   13  A    between atoms: O_13  and  C_14
REMARK   14  A    between atoms: C_17  and  C_19
REMARK   15  A    between atoms: C_19  and  O_20
REMARK   16  A    between atoms: C_21  and  O_23
REMARK   17  A    between atoms: O_23  and  C_24
REMARK   18  A    between atoms: C_27  and  C_29
REMARK   19  A    between atoms: C_29  and  O_30
REMARK   20  A    between atoms: C_31  and  O_33
REMARK   21  A    between atoms: C_34  and  O_36
REMARK   22  A    between atoms: C_37  and  O_39
REMARK   23  A    between atoms: C_40  and  O_42
REMARK   24  A    between atoms: C_43  and  O_45
REMARK                            x       y       z     vdW  Elec       q    Type
REMARK                         _______ _______ _______ _____ _____    ______ ____
ROOT
ATOM      1  C   UNL     1       9.466  -1.594  23.708  0.00  0.00    +0.282 C 
ATOM      2  C   UNL     1       9.414  -1.039  22.265  0.00  0.00    +0.201 C 
ATOM      3  C   UNL     1       9.401   0.498  22.295  0.00  0.00    +0.179 C 
ATOM      4  C   UNL     1       8.440   1.087  23.355  0.00  0.00    +0.183 C 
ATOM      5  C   UNL     1       8.761   0.425  24.698  0.00  0.00    +0.178 C 
ATOM      6  O   UNL     1       8.510  -0.970  24.550  0.00  0.00    -0.341 OA
ENDROOT
BRANCH   3   7
ATOM      7  O   UNL     1       9.112   1.061  21.015  0.00  0.00    -0.386 OA
ATOM      8  H   UNL     1       9.967   1.298  20.618  0.00  0.00    +0.210 HD
ENDBRANCH   3   7
BRANCH   2   9
ATOM      9  O   UNL     1      10.571  -1.490  21.523  0.00  0.00    -0.384 OA
ATOM     10  H   UNL     1      11.380  -1.304  22.035  0.00  0.00    +0.210 HD
ENDBRANCH   2   9
BRANCH   1  11
ATOM     11  O   UNL     1       9.199  -2.989  23.734  0.00  0.00    -0.349 OA
BRANCH  11  12
ATOM     12  C   UNL     1       8.930  -3.416  25.073  0.00  0.00    +0.163 C 
BRANCH  12  13
ATOM     13  C   UNL     1       8.868  -4.925  25.094  0.00  0.00    +0.028 C 
BRANCH  13  14
ATOM     14  C   UNL     1       7.848  -5.364  26.130  0.00  0.00    +0.002 C 
BRANCH  14  15
ATOM     15  C   UNL     1       7.088  -4.174  26.673  0.00  0.00    +0.000 C 
BRANCH  15  16
ATOM     16  C   UNL     1       5.603  -4.440  26.527  0.00  0.00    +0.000 C 
BRANCH  16  17
ATOM     17  C   UNL     1       5.295  -4.871  25.109  0.00  0.00    +0.000 C 
BRANCH  17  18
ATOM     18  C   UNL     1       4.549  -3.765  24.385  0.00  0.00    -0.000 C 
BRANCH  18  19
ATOM     19  C   UNL     1       5.553  -2.799  23.778  0.00  0.00    -0.000 C 
BRANCH  19  20
ATOM     20  C   UNL     1       5.583  -2.938  22.267  0.00  0.00    -0.000 C 
BRANCH  20  21
ATOM     21  C   UNL     1       6.705  -3.885  21.856  0.00  0.00    -0.000 C 
BRANCH  21  23
ATOM     22  C   UNL     1       6.882  -6.370  22.085  0.00  0.00    +0.004 C 
ATOM     23  C   UNL     1       6.151  -5.231  21.397  0.00  0.00    -0.003 C 
ENDBRANCH  21  23
ENDBRANCH  20  21
ENDBRANCH  19  20
ENDBRANCH  18  19
ENDBRANCH  17  18
ENDBRANCH  16  17
ENDBRANCH  15  16
ENDBRANCH  14  15
ENDBRANCH  13  14
ENDBRANCH  12  13
ENDBRANCH  11  12
ENDBRANCH   1  11
BRANCH   4  24
ATOM     24  O   UNL     1       8.446   2.525  23.338  0.00  0.00    -0.340 OA
BRANCH  24  25
ATOM     25  C   UNL     1       7.452   3.156  22.509  0.00  0.00    +0.282 C 
ATOM     26  C   UNL     1       7.536   4.671  22.789  0.00  0.00    +0.201 C 
ATOM     27  C   UNL     1       6.496   5.087  23.826  0.00  0.00    +0.179 C 
ATOM     28  C   UNL     1       5.114   4.614  23.360  0.00  0.00    +0.177 C 
ATOM     29  C   UNL     1       5.062   3.090  23.250  0.00  0.00    +0.178 C 
ATOM     30  O   UNL     1       6.222   2.481  22.687  0.00  0.00    -0.341 OA
BRANCH  28  31
ATOM     31  O   UNL     1       4.837   5.196  22.075  0.00  0.00    -0.386 OA
ATOM     32  H   UNL     1       4.290   5.991  22.230  0.00  0.00    +0.210 HD
ENDBRANCH  28  31
BRANCH  27  33
ATOM     33  O   UNL     1       6.788   4.579  25.130  0.00  0.00    -0.386 OA
ATOM     34  H   UNL     1       6.595   5.269  25.794  0.00  0.00    +0.210 HD
ENDBRANCH  27  33
BRANCH  26  35
ATOM     35  O   UNL     1       7.396   5.415  21.568  0.00  0.00    -0.384 OA
ATOM     36  H   UNL     1       7.339   4.766  20.833  0.00  0.00    +0.210 HD
ENDBRANCH  26  35
BRANCH  29  37
ATOM     37  C   UNL     1       4.673   2.414  24.578  0.00  0.00    +0.190 C 
BRANCH  37  38
ATOM     38  O   UNL     1       4.911   1.007  24.512  0.00  0.00    -0.392 OA
ATOM     39  H   UNL     1       4.099   0.554  24.815  0.00  0.00    +0.210 HD
ENDBRANCH  37  38
ENDBRANCH  29  37
ENDBRANCH  24  25
ENDBRANCH   4  24
BRANCH   5  40
ATOM     40  C   UNL     1       7.938   0.866  25.903  0.00  0.00    +0.190 C 
BRANCH  40  41
ATOM     41  O   UNL     1       8.081   2.291  26.029  0.00  0.00    -0.392 OA
ATOM     42  H   UNL     1       7.736   2.664  25.194  0.00  0.00    +0.210 HD
ENDBRANCH  40  41
ENDBRANCH   5  40
TORSDOF 23
ENDMDL
MODEL 9
REMARK VINA RESULT:      -5.4      2.002      4.102
REMARK  Name = 
REMARK  24 active torsions:
REMARK  status: ('A' for Active; 'I' for Inactive)
REMARK    1  A    between atoms: C_1  and  C_2
REMARK    2  A    between atoms: C_2  and  C_3
REMARK    3  A    between atoms: C_3  and  C_4
REMARK    4  A    between atoms: C_4  and  C_5
REMARK    5  A    between atoms: C_5  and  C_6
REMARK    6  A    between atoms: C_6  and  C_7
REMARK    7  A    between atoms: C_7  and  C_8
REMARK    8  A    between atoms: C_8  and  C_9
REMARK    9  A    between atoms: C_9  and  C_10
REMARK   10  A    between atoms: C_10  and  C_11
REMARK   11  A    between atoms: C_11  and  C_12
REMARK   12  A    between atoms: C_12  and  O_13
REMARK   13  A    between atoms: O_13  and  C_14
REMARK   14  A    between atoms: C_17  and  C_19
REMARK   15  A    between atoms: C_19  and  O_20
REMARK   16  A    between atoms: C_21  and  O_23
REMARK   17  A    between atoms: O_23  and  C_24
REMARK   18  A    between atoms: C_27  and  C_29
REMARK   19  A    between atoms: C_29  and  O_30
REMARK   20  A    between atoms: C_31  and  O_33
REMARK   21  A    between atoms: C_34  and  O_36
REMARK   22  A    between atoms: C_37  and  O_39
REMARK   23  A    between atoms: C_40  and  O_42
REMARK   24  A    between atoms: C_43  and  O_45
REMARK                            x       y       z     vdW  Elec       q    Type
REMARK                         _______ _______ _______ _____ _____    ______ ____
ROOT
ATOM      1  C   UNL     1       9.703  -2.179  23.421  0.00  0.00    +0.282 C 
ATOM      2  C   UNL     1       8.188  -2.014  23.161  0.00  0.00    +0.201 C 
ATOM      3  C   UNL     1       7.877  -0.557  22.781  0.00  0.00    +0.179 C 
ATOM      4  C   UNL     1       8.596   0.481  23.673  0.00  0.00    +0.183 C 
ATOM      5  C   UNL     1      10.087   0.131  23.691  0.00  0.00    +0.178 C 
ATOM      6  O   UNL     1      10.208  -1.164  24.275  0.00  0.00    -0.341 OA
ENDROOT
BRANCH   3   7
ATOM      7  O   UNL     1       6.474  -0.292  22.764  0.00  0.00    -0.386 OA
ATOM      8  H   UNL     1       6.269   0.059  21.881  0.00  0.00    +0.210 HD
ENDBRANCH   3   7
BRANCH   2   9
ATOM      9  O   UNL     1       7.776  -2.886  22.082  0.00  0.00    -0.384 OA
ATOM     10  H   UNL     1       6.945  -2.553  21.694  0.00  0.00    +0.210 HD
ENDBRANCH   2   9
BRANCH   1  11
ATOM     11  O   UNL     1       9.988  -3.425  24.040  0.00  0.00    -0.349 OA
BRANCH  11  12
ATOM     12  C   UNL     1       9.052  -3.681  25.091  0.00  0.00    +0.163 C 
BRANCH  12  13
ATOM     13  C   UNL     1       8.742  -5.159  25.111  0.00  0.00    +0.028 C 
BRANCH  13  14
ATOM     14  C   UNL     1       7.658  -5.423  26.141  0.00  0.00    +0.002 C 
BRANCH  14  15
ATOM     15  C   UNL     1       6.722  -4.240  26.251  0.00  0.00    +0.000 C 
BRANCH  15  16
ATOM     16  C   UNL     1       5.343  -4.747  26.627  0.00  0.00    +0.000 C 
BRANCH  16  17
ATOM     17  C   UNL     1       5.354  -6.259  26.704  0.00  0.00    +0.000 C 
BRANCH  17  18
ATOM     18  C   UNL     1       4.132  -6.819  25.999  0.00  0.00    -0.000 C 
BRANCH  18  19
ATOM     19  C   UNL     1       4.453  -7.022  24.528  0.00  0.00    -0.000 C 
BRANCH  19  20
ATOM     20  C   UNL     1       3.746  -5.983  23.677  0.00  0.00    -0.000 C 
BRANCH  20  21
ATOM     21  C   UNL     1       4.774  -5.117  22.957  0.00  0.00    -0.000 C 
BRANCH  21  23
ATOM     22  C   UNL     1       6.297  -5.863  21.117  0.00  0.00    +0.004 C 
ATOM     23  C   UNL     1       6.026  -5.919  22.610  0.00  0.00    -0.003 C 
ENDBRANCH  21  23
ENDBRANCH  20  21
ENDBRANCH  19  20
ENDBRANCH  18  19
ENDBRANCH  17  18
ENDBRANCH  16  17
ENDBRANCH  15  16
ENDBRANCH  14  15
ENDBRANCH  13  14
ENDBRANCH  12  13
ENDBRANCH  11  12
ENDBRANCH   1  11
BRANCH   4  24
ATOM     24  O   UNL     1       8.265   1.828  23.295  0.00  0.00    -0.340 OA
BRANCH  24  25
ATOM     25  C   UNL     1       7.508   2.591  24.253  0.00  0.00    +0.282 C 
ATOM     26  C   UNL     1       6.232   3.072  23.530  0.00  0.00    +0.201 C 
ATOM     27  C   UNL     1       6.415   4.492  22.999  0.00  0.00    +0.179 C 
ATOM     28  C   UNL     1       6.857   5.399  24.154  0.00  0.00    +0.177 C 
ATOM     29  C   UNL     1       8.204   4.948  24.721  0.00  0.00    +0.178 C 
ATOM     30  O   UNL     1       8.366   3.539  24.855  0.00  0.00    -0.341 OA
BRANCH  28  31
ATOM     31  O   UNL     1       5.861   5.348  25.188  0.00  0.00    -0.386 OA
ATOM     32  H   UNL     1       5.021   5.659  24.796  0.00  0.00    +0.210 HD
ENDBRANCH  28  31
BRANCH  27  33
ATOM     33  O   UNL     1       7.349   4.557  21.920  0.00  0.00    -0.386 OA
ATOM     34  H   UNL     1       7.619   5.486  21.785  0.00  0.00    +0.210 HD
ENDBRANCH  27  33
BRANCH  26  35
ATOM     35  O   UNL     1       5.094   2.972  24.401  0.00  0.00    -0.384 OA
ATOM     36  H   UNL     1       4.492   3.717  24.185  0.00  0.00    +0.210 HD
ENDBRANCH  26  35
BRANCH  29  37
ATOM     37  C   UNL     1       9.399   5.574  23.978  0.00  0.00    +0.190 C 
BRANCH  37  38
ATOM     38  O   UNL     1       9.953   4.644  23.046  0.00  0.00    -0.392 OA
ATOM     39  H   UNL     1       9.352   3.872  23.005  0.00  0.00    +0.210 HD
ENDBRANCH  37  38
ENDBRANCH  29  37
ENDBRANCH  24  25
ENDBRANCH   4  24
BRANCH   5  40
ATOM     40  C   UNL     1      11.003   1.037  24.506  0.00  0.00    +0.190 C 
BRANCH  40  41
ATOM     41  O   UNL     1      11.052   2.313  23.845  0.00  0.00    -0.392 OA
ATOM     42  H   UNL     1      11.738   2.826  24.315  0.00  0.00    +0.210 HD
ENDBRANCH  40  41
ENDBRANCH   5  40
TORSDOF 23
ENDMDL
