MODEL 1
REMARK VINA RESULT:      -6.1      0.000      0.000
REMARK  Name = 
REMARK  9 active torsions:
REMARK  status: ('A' for Active; 'I' for Inactive)
REMARK    1  A    between atoms: C_1  and  C_2
REMARK    2  A    between atoms: C_2  and  C_3
REMARK    3  A    between atoms: C_2  and  C_4
REMARK    4  A    between atoms: C_2  and  C_5
REMARK    5  A    between atoms: C_5  and  C_6
REMARK    6  A    between atoms: C_6  and  O_8
REMARK    7  A    between atoms: O_8  and  N_9
REMARK    8  A    between atoms: C_10  and  C_11
REMARK    9  A    between atoms: C_14  and  O_15
REMARK                            x       y       z     vdW  Elec       q    Type
REMARK                         _______ _______ _______ _____ _____    ______ ____
ROOT
ATOM      1  N   UNL     1       9.540  -2.537  24.252  0.00  0.00    -0.082 NA
ATOM      2  C   UNL     1       9.918  -1.968  23.154  0.00  0.00    +0.161 C 
ENDROOT
BRANCH   2   3
ATOM      3  C   UNL     1      10.070  -0.498  23.101  0.00  0.00    -0.004 A 
ATOM      4  C   UNL     1       9.796   0.194  21.918  0.00  0.00    +0.013 A 
ATOM      5  C   UNL     1       9.922   1.586  21.892  0.00  0.00    +0.046 A 
ATOM      6  C   UNL     1      10.313   2.272  23.041  0.00  0.00    +0.117 A 
ATOM      7  C   UNL     1      10.601   1.589  24.218  0.00  0.00    +0.046 A 
ATOM      8  C   UNL     1      10.479   0.199  24.246  0.00  0.00    +0.013 A 
BRANCH   6   9
ATOM      9  O   UNL     1      10.401   3.630  22.976  0.00  0.00    -0.507 OA
ATOM     10  H   UNL     1      10.604   3.882  22.058  0.00  0.00    +0.292 HD
ENDBRANCH   6   9
ENDBRANCH   2   3
BRANCH   1  11
ATOM     11  O   UNL     1       9.449  -3.932  24.109  0.00  0.00    -0.317 OA
BRANCH  11  12
ATOM     12  C   UNL     1       8.149  -4.316  24.364  0.00  0.00    +0.336 C 
ATOM     13  O   UNL     1       7.439  -3.939  25.290  0.00  0.00    -0.248 OA
BRANCH  12  14
ATOM     14  C   UNL     1       7.678  -5.316  23.332  0.00  0.00    +0.129 C 
BRANCH  14  16
ATOM     15  C   UNL     1       6.664  -3.353  22.059  0.00  0.00    +0.011 C 
ATOM     16  C   UNL     1       6.500  -4.830  22.457  0.00  0.00    -0.028 C 
ATOM     17  C   UNL     1       6.472  -5.673  21.167  0.00  0.00    +0.011 C 
ATOM     18  C   UNL     1       5.163  -5.013  23.192  0.00  0.00    +0.011 C 
ENDBRANCH  14  16
ENDBRANCH  12  14
ENDBRANCH  11  12
ENDBRANCH   1  11
TORSDOF 6
ENDMDL
MODEL 2
REMARK VINA RESULT:      -6.1      0.044      1.177
REMARK  Name = 
REMARK  9 active torsions:
REMARK  status: ('A' for Active; 'I' for Inactive)
REMARK    1  A    between atoms: C_1  and  C_2
REMARK    2  A    between atoms: C_2  and  C_3
REMARK    3  A    between atoms: C_2  and  C_4
REMARK    4  A    between atoms: C_2  and  C_5
REMARK    5  A    between atoms: C_5  and  C_6
REMARK    6  A    between atoms: C_6  and  O_8
REMARK    7  A    between atoms: O_8  and  N_9
REMARK    8  A    between atoms: C_10  and  C_11
REMARK    9  A    between atoms: C_14  and  O_15
REMARK                            x       y       z     vdW  Elec       q    Type
REMARK                         _______ _______ _______ _____ _____    ______ ____
ROOT
ATOM      1  N   UNL     1       9.524  -2.549  24.256  0.00  0.00    -0.082 NA
ATOM      2  C   UNL     1       9.895  -1.967  23.163  0.00  0.00    +0.161 C 
ENDROOT
BRANCH   2   3
ATOM      3  C   UNL     1      10.042  -0.496  23.124  0.00  0.00    -0.004 A 
ATOM      4  C   UNL     1      10.461   0.199  24.261  0.00  0.00    +0.013 A 
ATOM      5  C   UNL     1      10.617   1.587  24.200  0.00  0.00    +0.046 A 
ATOM      6  C   UNL     1      10.359   2.264  23.009  0.00  0.00    +0.117 A 
ATOM      7  C   UNL     1       9.928   1.582  21.877  0.00  0.00    +0.046 A 
ATOM      8  C   UNL     1       9.769   0.197  21.936  0.00  0.00    +0.013 A 
BRANCH   6   9
ATOM      9  O   UNL     1      10.546   3.614  22.990  0.00  0.00    -0.507 OA
ATOM     10  H   UNL     1       9.744   4.032  22.630  0.00  0.00    +0.292 HD
ENDBRANCH   6   9
ENDBRANCH   2   3
BRANCH   1  11
ATOM     11  O   UNL     1       9.437  -3.942  24.100  0.00  0.00    -0.317 OA
BRANCH  11  12
ATOM     12  C   UNL     1       8.139  -4.333  24.355  0.00  0.00    +0.336 C 
ATOM     13  O   UNL     1       7.431  -3.969  25.287  0.00  0.00    -0.248 OA
BRANCH  12  14
ATOM     14  C   UNL     1       7.668  -5.324  23.313  0.00  0.00    +0.129 C 
BRANCH  14  16
ATOM     15  C   UNL     1       6.651  -3.352  22.056  0.00  0.00    +0.011 C 
ATOM     16  C   UNL     1       6.487  -4.832  22.445  0.00  0.00    -0.028 C 
ATOM     17  C   UNL     1       6.453  -5.667  21.152  0.00  0.00    +0.011 C 
ATOM     18  C   UNL     1       5.153  -5.017  23.185  0.00  0.00    +0.011 C 
ENDBRANCH  14  16
ENDBRANCH  12  14
ENDBRANCH  11  12
ENDBRANCH   1  11
TORSDOF 6
ENDMDL
MODEL 3
REMARK VINA RESULT:      -6.0      1.253      1.813
REMARK  Name = 
REMARK  9 active torsions:
REMARK  status: ('A' for Active; 'I' for Inactive)
REMARK    1  A    between atoms: C_1  and  C_2
REMARK    2  A    between atoms: C_2  and  C_3
REMARK    3  A    between atoms: C_2  and  C_4
REMARK    4  A    between atoms: C_2  and  C_5
REMARK    5  A    between atoms: C_5  and  C_6
REMARK    6  A    between atoms: C_6  and  O_8
REMARK    7  A    between atoms: O_8  and  N_9
REMARK    8  A    between atoms: C_10  and  C_11
REMARK    9  A    between atoms: C_14  and  O_15
REMARK                            x       y       z     vdW  Elec       q    Type
REMARK                         _______ _______ _______ _____ _____    ______ ____
ROOT
ATOM      1  N   UNL     1       8.966  -3.044  24.889  0.00  0.00    -0.082 NA
ATOM      2  C   UNL     1       9.863  -2.792  23.992  0.00  0.00    +0.161 C 
ENDROOT
BRANCH   2   3
ATOM      3  C   UNL     1       9.893  -1.471  23.330  0.00  0.00    -0.004 A 
ATOM      4  C   UNL     1       9.480  -1.341  22.001  0.00  0.00    +0.013 A 
ATOM      5  C   UNL     1       9.491  -0.080  21.398  0.00  0.00    +0.046 A 
ATOM      6  C   UNL     1       9.909   1.035  22.123  0.00  0.00    +0.117 A 
ATOM      7  C   UNL     1      10.335   0.912  23.442  0.00  0.00    +0.046 A 
ATOM      8  C   UNL     1      10.327  -0.346  24.045  0.00  0.00    +0.013 A 
BRANCH   6   9
ATOM      9  O   UNL     1       9.883   2.247  21.502  0.00  0.00    -0.507 OA
ATOM     10  H   UNL     1       9.526   2.127  20.605  0.00  0.00    +0.292 HD
ENDBRANCH   6   9
ENDBRANCH   2   3
BRANCH   1  11
ATOM     11  O   UNL     1       9.093  -4.346  25.400  0.00  0.00    -0.317 OA
BRANCH  11  12
ATOM     12  C   UNL     1       7.831  -4.862  25.607  0.00  0.00    +0.336 C 
ATOM     13  O   UNL     1       7.534  -5.820  26.313  0.00  0.00    -0.248 OA
BRANCH  12  14
ATOM     14  C   UNL     1       6.802  -4.085  24.815  0.00  0.00    +0.129 C 
BRANCH  14  16
ATOM     15  C   UNL     1       5.201  -5.885  23.979  0.00  0.00    +0.011 C 
ATOM     16  C   UNL     1       6.246  -4.829  23.580  0.00  0.00    -0.028 C 
ATOM     17  C   UNL     1       5.561  -3.800  22.660  0.00  0.00    +0.011 C 
ATOM     18  C   UNL     1       7.381  -5.508  22.797  0.00  0.00    +0.011 C 
ENDBRANCH  14  16
ENDBRANCH  12  14
ENDBRANCH  11  12
ENDBRANCH   1  11
TORSDOF 6
ENDMDL
MODEL 4
REMARK VINA RESULT:      -5.6      1.646      2.415
REMARK  Name = 
REMARK  9 active torsions:
REMARK  status: ('A' for Active; 'I' for Inactive)
REMARK    1  A    between atoms: C_1  and  C_2
REMARK    2  A    between atoms: C_2  and  C_3
REMARK    3  A    between atoms: C_2  and  C_4
REMARK    4  A    between atoms: C_2  and  C_5
REMARK    5  A    between atoms: C_5  and  C_6
REMARK    6  A    between atoms: C_6  and  O_8
REMARK    7  A    between atoms: O_8  and  N_9
REMARK    8  A    between atoms: C_10  and  C_11
REMARK    9  A    between atoms: C_14  and  O_15
REMARK                            x       y       z     vdW  Elec       q    Type
REMARK                         _______ _______ _______ _____ _____    ______ ____
ROOT
ATOM      1  N   UNL     1       8.880  -2.774  23.540  0.00  0.00    -0.082 NA
ATOM      2  C   UNL     1      10.009  -2.162  23.691  0.00  0.00    +0.161 C 
ENDROOT
BRANCH   2   3
ATOM      3  C   UNL     1      10.103  -0.712  23.416  0.00  0.00    -0.004 A 
ATOM      4  C   UNL     1       9.815  -0.218  22.141  0.00  0.00    +0.013 A 
ATOM      5  C   UNL     1       9.885   1.158  21.905  0.00  0.00    +0.046 A 
ATOM      6  C   UNL     1      10.237   2.024  22.938  0.00  0.00    +0.117 A 
ATOM      7  C   UNL     1      10.539   1.540  24.206  0.00  0.00    +0.046 A 
ATOM      8  C   UNL     1      10.472   0.167  24.444  0.00  0.00    +0.013 A 
BRANCH   6   9
ATOM      9  O   UNL     1      10.271   3.359  22.668  0.00  0.00    -0.507 OA
ATOM     10  H   UNL     1       9.363   3.663  22.496  0.00  0.00    +0.292 HD
ENDBRANCH   6   9
ENDBRANCH   2   3
BRANCH   1  11
ATOM     11  O   UNL     1       8.987  -4.142  23.843  0.00  0.00    -0.317 OA
BRANCH  11  12
ATOM     12  C   UNL     1       7.725  -4.698  23.811  0.00  0.00    +0.336 C 
ATOM     13  O   UNL     1       7.346  -5.621  23.098  0.00  0.00    -0.248 OA
BRANCH  12  14
ATOM     14  C   UNL     1       6.810  -3.999  24.792  0.00  0.00    +0.129 C 
BRANCH  14  16
ATOM     15  C   UNL     1       6.014  -3.817  27.207  0.00  0.00    +0.011 C 
ATOM     16  C   UNL     1       6.621  -4.739  26.135  0.00  0.00    -0.028 C 
ATOM     17  C   UNL     1       5.652  -5.915  25.910  0.00  0.00    +0.011 C 
ATOM     18  C   UNL     1       7.960  -5.295  26.644  0.00  0.00    +0.011 C 
ENDBRANCH  14  16
ENDBRANCH  12  14
ENDBRANCH  11  12
ENDBRANCH   1  11
TORSDOF 6
ENDMDL
MODEL 5
REMARK VINA RESULT:      -5.5      1.990      7.014
REMARK  Name = 
REMARK  9 active torsions:
REMARK  status: ('A' for Active; 'I' for Inactive)
REMARK    1  A    between atoms: C_1  and  C_2
REMARK    2  A    between atoms: C_2  and  C_3
REMARK    3  A    between atoms: C_2  and  C_4
REMARK    4  A    between atoms: C_2  and  C_5
REMARK    5  A    between atoms: C_5  and  C_6
REMARK    6  A    between atoms: C_6  and  O_8
REMARK    7  A    between atoms: O_8  and  N_9
REMARK    8  A    between atoms: C_10  and  C_11
REMARK    9  A    between atoms: C_14  and  O_15
REMARK                            x       y       z     vdW  Elec       q    Type
REMARK                         _______ _______ _______ _____ _____    ______ ____
ROOT
ATOM      1  N   UNL     1       8.987  -3.507  23.708  0.00  0.00    -0.082 NA
ATOM      2  C   UNL     1       8.226  -3.832  24.702  0.00  0.00    +0.161 C 
ENDROOT
BRANCH   2   3
ATOM      3  C   UNL     1       7.099  -4.766  24.492  0.00  0.00    -0.004 A 
ATOM      4  C   UNL     1       6.780  -5.205  23.204  0.00  0.00    +0.013 A 
ATOM      5  C   UNL     1       5.727  -6.108  23.027  0.00  0.00    +0.046 A 
ATOM      6  C   UNL     1       5.008  -6.564  24.131  0.00  0.00    +0.117 A 
ATOM      7  C   UNL     1       5.310  -6.121  25.414  0.00  0.00    +0.046 A 
ATOM      8  C   UNL     1       6.359  -5.219  25.594  0.00  0.00    +0.013 A 
BRANCH   6   9
ATOM      9  O   UNL     1       4.005  -7.459  23.913  0.00  0.00    -0.507 OA
ATOM     10  H   UNL     1       3.987  -7.678  22.965  0.00  0.00    +0.292 HD
ENDBRANCH   6   9
ENDBRANCH   2   3
BRANCH   1  11
ATOM     11  O   UNL     1       9.996  -2.611  24.097  0.00  0.00    -0.317 OA
BRANCH  11  12
ATOM     12  C   UNL     1      10.149  -1.664  23.106  0.00  0.00    +0.336 C 
ATOM     13  O   UNL     1      10.067  -1.846  21.896  0.00  0.00    -0.248 OA
BRANCH  12  14
ATOM     14  C   UNL     1      10.459  -0.310  23.707  0.00  0.00    +0.129 C 
BRANCH  14  16
ATOM     15  C   UNL     1       8.018   0.271  23.258  0.00  0.00    +0.011 C 
ATOM     16  C   UNL     1       9.459   0.805  23.329  0.00  0.00    -0.028 C 
ATOM     17  C   UNL     1       9.512   1.895  24.417  0.00  0.00    +0.011 C 
ATOM     18  C   UNL     1       9.833   1.439  21.980  0.00  0.00    +0.011 C 
ENDBRANCH  14  16
ENDBRANCH  12  14
ENDBRANCH  11  12
ENDBRANCH   1  11
TORSDOF 6
ENDMDL
MODEL 6
REMARK VINA RESULT:      -5.4      1.812      2.725
REMARK  Name = 
REMARK  9 active torsions:
REMARK  status: ('A' for Active; 'I' for Inactive)
REMARK    1  A    between atoms: C_1  and  C_2
REMARK    2  A    between atoms: C_2  and  C_3
REMARK    3  A    between atoms: C_2  and  C_4
REMARK    4  A    between atoms: C_2  and  C_5
REMARK    5  A    between atoms: C_5  and  C_6
REMARK    6  A    between atoms: C_6  and  O_8
REMARK    7  A    between atoms: O_8  and  N_9
REMARK    8  A    between atoms: C_10  and  C_11
REMARK    9  A    between atoms: C_14  and  O_15
REMARK                            x       y       z     vdW  Elec       q    Type
REMARK                         _______ _______ _______ _____ _____    ______ ____
ROOT
ATOM      1  N   UNL     1       7.831  -2.151  22.407  0.00  0.00    -0.082 NA
ATOM      2  C   UNL     1       9.090  -1.859  22.427  0.00  0.00    +0.161 C 
ENDROOT
BRANCH   2   3
ATOM      3  C   UNL     1       9.518  -0.458  22.625  0.00  0.00    -0.004 A 
ATOM      4  C   UNL     1      10.112  -0.068  23.829  0.00  0.00    +0.013 A 
ATOM      5  C   UNL     1      10.533   1.255  23.991  0.00  0.00    +0.046 A 
ATOM      6  C   UNL     1      10.363   2.172  22.954  0.00  0.00    +0.117 A 
ATOM      7  C   UNL     1       9.761   1.795  21.759  0.00  0.00    +0.046 A 
ATOM      8  C   UNL     1       9.337   0.476  21.595  0.00  0.00    +0.013 A 
BRANCH   6   9
ATOM      9  O   UNL     1      10.808   3.444  23.148  0.00  0.00    -0.507 OA
ATOM     10  H   UNL     1      11.534   3.422  23.796  0.00  0.00    +0.292 HD
ENDBRANCH   6   9
ENDBRANCH   2   3
BRANCH   1  11
ATOM     11  O   UNL     1       7.619  -3.525  22.205  0.00  0.00    -0.317 OA
BRANCH  11  12
ATOM     12  C   UNL     1       6.294  -3.721  21.873  0.00  0.00    +0.336 C 
ATOM     13  O   UNL     1       5.862  -4.336  20.904  0.00  0.00    -0.248 OA
BRANCH  12  14
ATOM     14  C   UNL     1       5.388  -3.046  22.879  0.00  0.00    +0.129 C 
BRANCH  14  16
ATOM     15  C   UNL     1       5.899  -4.995  24.441  0.00  0.00    +0.011 C 
ATOM     16  C   UNL     1       4.837  -3.983  23.978  0.00  0.00    -0.028 C 
ATOM     17  C   UNL     1       4.432  -3.124  25.191  0.00  0.00    +0.011 C 
ATOM     18  C   UNL     1       3.598  -4.741  23.476  0.00  0.00    +0.011 C 
ENDBRANCH  14  16
ENDBRANCH  12  14
ENDBRANCH  11  12
ENDBRANCH   1  11
TORSDOF 6
ENDMDL
MODEL 7
REMARK VINA RESULT:      -5.3      1.444      2.239
REMARK  Name = 
REMARK  9 active torsions:
REMARK  status: ('A' for Active; 'I' for Inactive)
REMARK    1  A    between atoms: C_1  and  C_2
REMARK    2  A    between atoms: C_2  and  C_3
REMARK    3  A    between atoms: C_2  and  C_4
REMARK    4  A    between atoms: C_2  and  C_5
REMARK    5  A    between atoms: C_5  and  C_6
REMARK    6  A    between atoms: C_6  and  O_8
REMARK    7  A    between atoms: O_8  and  N_9
REMARK    8  A    between atoms: C_10  and  C_11
REMARK    9  A    between atoms: C_14  and  O_15
REMARK                            x       y       z     vdW  Elec       q    Type
REMARK                         _______ _______ _______ _____ _____    ______ ____
ROOT
ATOM      1  N   UNL     1       8.505  -2.516  25.125  0.00  0.00    -0.082 NA
ATOM      2  C   UNL     1       9.561  -2.334  24.402  0.00  0.00    +0.161 C 
ENDROOT
BRANCH   2   3
ATOM      3  C   UNL     1       9.747  -1.058  23.679  0.00  0.00    -0.004 A 
ATOM      4  C   UNL     1      10.333   0.036  24.323  0.00  0.00    +0.013 A 
ATOM      5  C   UNL     1      10.524   1.227  23.617  0.00  0.00    +0.046 A 
ATOM      6  C   UNL     1      10.135   1.316  22.282  0.00  0.00    +0.117 A 
ATOM      7  C   UNL     1       9.539   0.237  21.638  0.00  0.00    +0.046 A 
ATOM      8  C   UNL     1       9.345  -0.953  22.340  0.00  0.00    +0.013 A 
BRANCH   6   9
ATOM      9  O   UNL     1      10.361   2.489  21.628  0.00  0.00    -0.507 OA
ATOM     10  H   UNL     1      10.481   2.297  20.682  0.00  0.00    +0.292 HD
ENDBRANCH   6   9
ENDBRANCH   2   3
BRANCH   1  11
ATOM     11  O   UNL     1       8.501  -3.785  25.729  0.00  0.00    -0.317 OA
BRANCH  11  12
ATOM     12  C   UNL     1       8.215  -4.729  24.765  0.00  0.00    +0.336 C 
ATOM     13  O   UNL     1       8.916  -5.681  24.438  0.00  0.00    -0.248 OA
BRANCH  12  14
ATOM     14  C   UNL     1       6.882  -4.437  24.112  0.00  0.00    +0.129 C 
BRANCH  14  16
ATOM     15  C   UNL     1       4.531  -4.183  25.064  0.00  0.00    +0.011 C 
ATOM     16  C   UNL     1       5.678  -5.161  24.757  0.00  0.00    -0.028 C 
ATOM     17  C   UNL     1       5.156  -6.216  23.764  0.00  0.00    +0.011 C 
ATOM     18  C   UNL     1       6.100  -5.871  26.053  0.00  0.00    +0.011 C 
ENDBRANCH  14  16
ENDBRANCH  12  14
ENDBRANCH  11  12
ENDBRANCH   1  11
TORSDOF 6
ENDMDL
MODEL 8
REMARK VINA RESULT:      -5.2      1.822      2.557
REMARK  Name = 
REMARK  9 active torsions:
REMARK  status: ('A' for Active; 'I' for Inactive)
REMARK    1  A    between atoms: C_1  and  C_2
REMARK    2  A    between atoms: C_2  and  C_3
REMARK    3  A    between atoms: C_2  and  C_4
REMARK    4  A    between atoms: C_2  and  C_5
REMARK    5  A    between atoms: C_5  and  C_6
REMARK    6  A    between atoms: C_6  and  O_8
REMARK    7  A    between atoms: O_8  and  N_9
REMARK    8  A    between atoms: C_10  and  C_11
REMARK    9  A    between atoms: C_14  and  O_15
REMARK                            x       y       z     vdW  Elec       q    Type
REMARK                         _______ _______ _______ _____ _____    ______ ____
ROOT
ATOM      1  N   UNL     1       8.041  -2.263  22.452  0.00  0.00    -0.082 NA
ATOM      2  C   UNL     1       7.605  -1.090  22.780  0.00  0.00    +0.161 C 
ENDROOT
BRANCH   2   3
ATOM      3  C   UNL     1       8.556   0.029  22.949  0.00  0.00    -0.004 A 
ATOM      4  C   UNL     1       9.140   0.630  21.829  0.00  0.00    +0.013 A 
ATOM      5  C   UNL     1      10.018   1.703  22.006  0.00  0.00    +0.046 A 
ATOM      6  C   UNL     1      10.301   2.167  23.289  0.00  0.00    +0.117 A 
ATOM      7  C   UNL     1       9.736   1.566  24.408  0.00  0.00    +0.046 A 
ATOM      8  C   UNL     1       8.861   0.494  24.236  0.00  0.00    +0.013 A 
BRANCH   6   9
ATOM      9  O   UNL     1      11.146   3.230  23.411  0.00  0.00    -0.507 OA
ATOM     10  H   UNL     1      11.022   3.622  24.292  0.00  0.00    +0.292 HD
ENDBRANCH   6   9
ENDBRANCH   2   3
BRANCH   1  11
ATOM     11  O   UNL     1       6.995  -3.195  22.343  0.00  0.00    -0.317 OA
BRANCH  11  12
ATOM     12  C   UNL     1       7.477  -4.438  22.695  0.00  0.00    +0.336 C 
ATOM     13  O   UNL     1       7.364  -5.478  22.055  0.00  0.00    -0.248 OA
BRANCH  12  14
ATOM     14  C   UNL     1       8.182  -4.378  24.032  0.00  0.00    +0.129 C 
BRANCH  14  16
ATOM     15  C   UNL     1       7.933  -5.336  26.381  0.00  0.00    +0.011 C 
ATOM     16  C   UNL     1       7.252  -4.538  25.256  0.00  0.00    -0.028 C 
ATOM     17  C   UNL     1       6.916  -3.136  25.799  0.00  0.00    +0.011 C 
ATOM     18  C   UNL     1       5.943  -5.238  24.858  0.00  0.00    +0.011 C 
ENDBRANCH  14  16
ENDBRANCH  12  14
ENDBRANCH  11  12
ENDBRANCH   1  11
TORSDOF 6
ENDMDL
MODEL 9
REMARK VINA RESULT:      -5.0      2.717      6.512
REMARK  Name = 
REMARK  9 active torsions:
REMARK  status: ('A' for Active; 'I' for Inactive)
REMARK    1  A    between atoms: C_1  and  C_2
REMARK    2  A    between atoms: C_2  and  C_3
REMARK    3  A    between atoms: C_2  and  C_4
REMARK    4  A    between atoms: C_2  and  C_5
REMARK    5  A    between atoms: C_5  and  C_6
REMARK    6  A    between atoms: C_6  and  O_8
REMARK    7  A    between atoms: O_8  and  N_9
REMARK    8  A    between atoms: C_10  and  C_11
REMARK    9  A    between atoms: C_14  and  O_15
REMARK                            x       y       z     vdW  Elec       q    Type
REMARK                         _______ _______ _______ _____ _____    ______ ____
ROOT
ATOM      1  N   UNL     1       9.742  -1.485  23.260  0.00  0.00    -0.082 NA
ATOM      2  C   UNL     1       9.631  -1.558  24.546  0.00  0.00    +0.161 C 
ENDROOT
BRANCH   2   3
ATOM      3  C   UNL     1       8.976  -2.730  25.164  0.00  0.00    -0.004 A 
ATOM      4  C   UNL     1       8.025  -2.553  26.173  0.00  0.00    +0.013 A 
ATOM      5  C   UNL     1       7.397  -3.672  26.729  0.00  0.00    +0.046 A 
ATOM      6  C   UNL     1       7.720  -4.949  26.275  0.00  0.00    +0.117 A 
ATOM      7  C   UNL     1       8.675  -5.135  25.281  0.00  0.00    +0.046 A 
ATOM      8  C   UNL     1       9.304  -4.021  24.725  0.00  0.00    +0.013 A 
BRANCH   6   9
ATOM      9  O   UNL     1       7.067  -6.008  26.830  0.00  0.00    -0.507 OA
ATOM     10  H   UNL     1       7.675  -6.768  26.854  0.00  0.00    +0.292 HD
ENDBRANCH   6   9
ENDBRANCH   2   3
BRANCH   1  11
ATOM     11  O   UNL     1      10.386  -0.302  22.860  0.00  0.00    -0.317 OA
BRANCH  11  12
ATOM     12  C   UNL     1       9.662   0.265  21.832  0.00  0.00    +0.336 C 
ATOM     13  O   UNL     1       9.203  -0.310  20.851  0.00  0.00    -0.248 OA
BRANCH  12  14
ATOM     14  C   UNL     1       9.505   1.754  22.050  0.00  0.00    +0.129 C 
BRANCH  14  16
ATOM     15  C   UNL     1       9.004   2.260  24.498  0.00  0.00    +0.011 C 
ATOM     16  C   UNL     1       8.420   2.141  23.081  0.00  0.00    -0.028 C 
ATOM     17  C   UNL     1       7.839   3.512  22.685  0.00  0.00    +0.011 C 
ATOM     18  C   UNL     1       7.281   1.108  23.086  0.00  0.00    +0.011 C 
ENDBRANCH  14  16
ENDBRANCH  12  14
ENDBRANCH  11  12
ENDBRANCH   1  11
TORSDOF 6
ENDMDL
