MODEL 1
REMARK VINA RESULT:      -8.2      0.000      0.000
REMARK  Name = 
REMARK  5 active torsions:
REMARK  status: ('A' for Active; 'I' for Inactive)
REMARK    1  A    between atoms: C_2  and  O_3
REMARK    2  A    between atoms: N_13  and  C_14
REMARK    3  A    between atoms: C_14  and  C_15
REMARK    4  A    between atoms: C_28  and  C_30
REMARK    5  A    between atoms: C_33  and  C_36
REMARK                            x       y       z     vdW  Elec       q    Type
REMARK                         _______ _______ _______ _____ _____    ______ ____
ROOT
ATOM      1  C   UNL     1       4.956  -0.160  26.436  0.00  0.00    +0.130 C 
ATOM      2  C   UNL     1       5.678  -0.662  25.196  0.00  0.00    +0.052 C 
ATOM      3  C   UNL     1       7.028   0.021  25.453  0.00  0.00    +0.072 C 
ATOM      4  C   UNL     1       8.327  -0.209  24.737  0.00  0.00    +0.106 C 
ATOM      5  C   UNL     1       9.003  -1.412  25.385  0.00  0.00    +0.110 C 
ATOM      6  C   UNL     1       8.035  -1.817  26.562  0.00  0.00    +0.100 C 
ATOM      7  C   UNL     1       9.237  -2.296  24.169  0.00  0.00    +0.228 C 
ATOM      8  O   UNL     1       9.873  -3.340  24.183  0.00  0.00    -0.275 OA
ATOM      9  N   UNL     1       8.563  -1.763  23.087  0.00  0.00    -0.237 N 
ATOM     10  C   UNL     1       8.041  -0.539  23.340  0.00  0.00    +0.227 C 
ATOM     11  O   UNL     1       7.350   0.141  22.588  0.00  0.00    -0.275 OA
ATOM     12  N   UNL     1       7.325  -0.511  26.782  0.00  0.00    -0.288 NA
ATOM     13  C   UNL     1       6.070  -0.294  27.512  0.00  0.00    +0.116 C 
ENDROOT
BRANCH   6  14
ATOM     14  C   UNL     1       7.332  -3.186  26.382  0.00  0.00    -0.029 A 
ATOM     15  C   UNL     1       7.926  -4.410  26.752  0.00  0.00    +0.006 A 
ATOM     16  C   UNL     1       7.196  -5.557  27.071  0.00  0.00    +0.016 A 
ATOM     17  C   UNL     1       5.822  -5.563  26.893  0.00  0.00    +0.065 A 
ATOM     18  C   UNL     1       5.224  -4.444  26.310  0.00  0.00    +0.016 A 
ATOM     19  C   UNL     1       5.966  -3.261  26.072  0.00  0.00    +0.006 A 
BRANCH  17  20
ATOM     20  C   UNL     1       5.039  -6.735  27.389  0.00  0.00    +0.308 C 
ATOM     21  N   UNL     1       3.920  -7.108  26.855  0.00  0.00    -0.099 NA
ATOM     22  H   UNL     1       3.634  -6.472  26.107  0.00  0.00    +0.363 HD
ATOM     23  N   UNL     1       5.452  -7.457  28.472  0.00  0.00    -0.247 N 
ATOM     24  H   UNL     1       4.879  -8.290  28.585  0.00  0.00    +0.288 HD
ATOM     25  H   UNL     1       6.441  -7.656  28.535  0.00  0.00    +0.288 HD
ENDBRANCH  17  20
ENDBRANCH   6  14
BRANCH   1  26
ATOM     26  O   UNL     1       3.767  -0.854  26.739  0.00  0.00    -0.390 OA
ATOM     27  H   UNL     1       3.089  -0.220  27.016  0.00  0.00    +0.210 HD
ENDBRANCH   1  26
BRANCH   9  28
ATOM     28  C   UNL     1       8.147  -2.525  21.926  0.00  0.00    +0.151 C 
BRANCH  28  29
ATOM     29  C   UNL     1       7.166  -3.611  22.257  0.00  0.00    -0.026 A 
ATOM     30  C   UNL     1       5.825  -3.264  22.468  0.00  0.00    +0.054 A 
ATOM     31  C   UNL     1       4.955  -4.274  22.794  0.00  0.00    +0.167 A 
ATOM     32  C   UNL     1       5.356  -5.584  22.894  0.00  0.00    +0.166 A 
ATOM     33  O   UNL     1       4.329  -6.409  23.231  0.00  0.00    -0.453 OA
ATOM     34  C   UNL     1       3.259  -5.454  23.393  0.00  0.00    +0.466 C 
ATOM     35  C   UNL     1       6.660  -5.966  22.674  0.00  0.00    +0.050 A 
ATOM     36  O   UNL     1       3.634  -4.107  23.046  0.00  0.00    -0.453 OA
ATOM     37  C   UNL     1       7.581  -4.964  22.354  0.00  0.00    +0.009 A 
ENDBRANCH  28  29
ENDBRANCH   9  28
TORSDOF 5
ENDMDL
MODEL 2
REMARK VINA RESULT:      -7.5      2.177      5.033
REMARK  Name = 
REMARK  5 active torsions:
REMARK  status: ('A' for Active; 'I' for Inactive)
REMARK    1  A    between atoms: C_2  and  O_3
REMARK    2  A    between atoms: N_13  and  C_14
REMARK    3  A    between atoms: C_14  and  C_15
REMARK    4  A    between atoms: C_28  and  C_30
REMARK    5  A    between atoms: C_33  and  C_36
REMARK                            x       y       z     vdW  Elec       q    Type
REMARK                         _______ _______ _______ _____ _____    ______ ____
ROOT
ATOM      1  C   UNL     1       7.250  -6.142  21.890  0.00  0.00    +0.130 C 
ATOM      2  C   UNL     1       7.419  -5.196  23.069  0.00  0.00    +0.052 C 
ATOM      3  C   UNL     1       7.259  -3.878  22.299  0.00  0.00    +0.072 C 
ATOM      4  C   UNL     1       7.087  -2.498  22.863  0.00  0.00    +0.106 C 
ATOM      5  C   UNL     1       5.605  -2.307  23.165  0.00  0.00    +0.110 C 
ATOM      6  C   UNL     1       4.930  -3.645  22.677  0.00  0.00    +0.100 C 
ATOM      7  C   UNL     1       5.663  -1.900  24.631  0.00  0.00    +0.228 C 
ATOM      8  O   UNL     1       4.702  -1.522  25.284  0.00  0.00    -0.275 OA
ATOM      9  N   UNL     1       6.948  -2.093  25.102  0.00  0.00    -0.237 N 
ATOM     10  C   UNL     1       7.828  -2.410  24.121  0.00  0.00    +0.227 C 
ATOM     11  O   UNL     1       9.016  -2.690  24.255  0.00  0.00    -0.275 OA
ATOM     12  N   UNL     1       5.954  -4.110  21.681  0.00  0.00    -0.288 NA
ATOM     13  C   UNL     1       6.094  -5.456  21.111  0.00  0.00    +0.116 C 
ENDROOT
BRANCH   6  14
ATOM     14  C   UNL     1       4.335  -4.522  23.808  0.00  0.00    -0.029 A 
ATOM     15  C   UNL     1       2.961  -4.541  24.124  0.00  0.00    +0.006 A 
ATOM     16  C   UNL     1       2.327  -5.618  24.747  0.00  0.00    +0.016 A 
ATOM     17  C   UNL     1       3.085  -6.680  25.213  0.00  0.00    +0.065 A 
ATOM     18  C   UNL     1       4.476  -6.591  25.122  0.00  0.00    +0.016 A 
ATOM     19  C   UNL     1       5.096  -5.533  24.413  0.00  0.00    +0.006 A 
BRANCH  17  20
ATOM     20  C   UNL     1       2.382  -7.893  25.729  0.00  0.00    +0.308 C 
ATOM     21  N   UNL     1       2.325  -9.005  25.069  0.00  0.00    -0.099 NA
ATOM     22  H   UNL     1       2.771  -8.918  24.153  0.00  0.00    +0.363 HD
ATOM     23  N   UNL     1       1.719  -7.874  26.922  0.00  0.00    -0.247 N 
ATOM     24  H   UNL     1       1.417  -8.811  27.178  0.00  0.00    +0.288 HD
ATOM     25  H   UNL     1       2.171  -7.390  27.686  0.00  0.00    +0.288 HD
ENDBRANCH  17  20
ENDBRANCH   6  14
BRANCH   1  26
ATOM     26  O   UNL     1       6.997  -7.482  22.249  0.00  0.00    -0.390 OA
ATOM     27  H   UNL     1       7.380  -8.070  21.581  0.00  0.00    +0.210 HD
ENDBRANCH   1  26
BRANCH   9  28
ATOM     28  C   UNL     1       7.287  -2.285  26.498  0.00  0.00    +0.151 C 
BRANCH  28  29
ATOM     29  C   UNL     1       6.889  -3.635  27.019  0.00  0.00    -0.026 A 
ATOM     30  C   UNL     1       5.636  -3.777  27.630  0.00  0.00    +0.054 A 
ATOM     31  C   UNL     1       5.310  -5.016  28.120  0.00  0.00    +0.167 A 
ATOM     32  C   UNL     1       6.154  -6.094  28.010  0.00  0.00    +0.166 A 
ATOM     33  O   UNL     1       5.626  -7.216  28.569  0.00  0.00    -0.453 OA
ATOM     34  C   UNL     1       4.387  -6.696  29.097  0.00  0.00    +0.466 C 
ATOM     35  C   UNL     1       7.383  -5.999  27.399  0.00  0.00    +0.050 A 
ATOM     36  O   UNL     1       4.149  -5.318  28.752  0.00  0.00    -0.453 OA
ATOM     37  C   UNL     1       7.760  -4.748  26.899  0.00  0.00    +0.009 A 
ENDBRANCH  28  29
ENDBRANCH   9  28
TORSDOF 5
ENDMDL
MODEL 3
REMARK VINA RESULT:      -7.5      2.269      6.039
REMARK  Name = 
REMARK  5 active torsions:
REMARK  status: ('A' for Active; 'I' for Inactive)
REMARK    1  A    between atoms: C_2  and  O_3
REMARK    2  A    between atoms: N_13  and  C_14
REMARK    3  A    between atoms: C_14  and  C_15
REMARK    4  A    between atoms: C_28  and  C_30
REMARK    5  A    between atoms: C_33  and  C_36
REMARK                            x       y       z     vdW  Elec       q    Type
REMARK                         _______ _______ _______ _____ _____    ______ ____
ROOT
ATOM      1  C   UNL     1       6.129  -5.847  27.858  0.00  0.00    +0.130 C 
ATOM      2  C   UNL     1       7.160  -5.192  26.953  0.00  0.00    +0.052 C 
ATOM      3  C   UNL     1       6.552  -5.617  25.609  0.00  0.00    +0.072 C 
ATOM      4  C   UNL     1       6.923  -5.132  24.238  0.00  0.00    +0.106 C 
ATOM      5  C   UNL     1       6.157  -3.838  23.985  0.00  0.00    +0.110 C 
ATOM      6  C   UNL     1       5.274  -3.647  25.276  0.00  0.00    +0.100 C 
ATOM      7  C   UNL     1       7.298  -2.899  23.619  0.00  0.00    +0.228 C 
ATOM      8  O   UNL     1       7.152  -1.755  23.214  0.00  0.00    -0.275 OA
ATOM      9  N   UNL     1       8.500  -3.525  23.886  0.00  0.00    -0.237 N 
ATOM     10  C   UNL     1       8.354  -4.831  24.218  0.00  0.00    +0.227 C 
ATOM     11  O   UNL     1       9.238  -5.612  24.556  0.00  0.00    -0.275 OA
ATOM     12  N   UNL     1       5.206  -5.067  25.763  0.00  0.00    -0.288 NA
ATOM     13  C   UNL     1       4.811  -5.531  27.098  0.00  0.00    +0.116 C 
ENDROOT
BRANCH   6  14
ATOM     14  C   UNL     1       5.663  -2.429  26.153  0.00  0.00    -0.029 A 
ATOM     15  C   UNL     1       6.964  -2.229  26.657  0.00  0.00    +0.006 A 
ATOM     16  C   UNL     1       7.474  -0.975  27.002  0.00  0.00    +0.016 A 
ATOM     17  C   UNL     1       6.638   0.129  26.987  0.00  0.00    +0.065 A 
ATOM     18  C   UNL     1       5.282  -0.069  26.714  0.00  0.00    +0.016 A 
ATOM     19  C   UNL     1       4.801  -1.330  26.285  0.00  0.00    +0.006 A 
BRANCH  17  20
ATOM     20  C   UNL     1       7.233   1.483  27.200  0.00  0.00    +0.308 C 
ATOM     21  N   UNL     1       7.669   2.218  26.228  0.00  0.00    -0.099 NA
ATOM     22  H   UNL     1       7.599   1.731  25.332  0.00  0.00    +0.363 HD
ATOM     23  N   UNL     1       7.385   2.002  28.454  0.00  0.00    -0.247 N 
ATOM     24  H   UNL     1       7.677   2.975  28.406  0.00  0.00    +0.288 HD
ATOM     25  H   UNL     1       6.621   1.858  29.101  0.00  0.00    +0.288 HD
ENDBRANCH  17  20
ENDBRANCH   6  14
BRANCH   1  26
ATOM     26  O   UNL     1       6.154  -5.395  29.194  0.00  0.00    -0.390 OA
ATOM     27  H   UNL     1       5.352  -5.694  29.647  0.00  0.00    +0.210 HD
ENDBRANCH   1  26
BRANCH   9  28
ATOM     28  C   UNL     1       9.748  -2.830  24.129  0.00  0.00    +0.151 C 
BRANCH  28  29
ATOM     29  C   UNL     1       9.794  -1.466  23.504  0.00  0.00    -0.026 A 
ATOM     30  C   UNL     1       9.878  -0.346  24.341  0.00  0.00    +0.054 A 
ATOM     31  C   UNL     1       9.892   0.889  23.743  0.00  0.00    +0.167 A 
ATOM     32  C   UNL     1       9.848   1.044  22.379  0.00  0.00    +0.166 A 
ATOM     33  O   UNL     1       9.869   2.353  22.012  0.00  0.00    -0.453 OA
ATOM     34  C   UNL     1       9.864   2.995  23.305  0.00  0.00    +0.466 C 
ATOM     35  C   UNL     1       9.787  -0.033  21.524  0.00  0.00    +0.050 A 
ATOM     36  O   UNL     1       9.953   2.070  24.406  0.00  0.00    -0.453 OA
ATOM     37  C   UNL     1       9.755  -1.309  22.095  0.00  0.00    +0.009 A 
ENDBRANCH  28  29
ENDBRANCH   9  28
TORSDOF 5
ENDMDL
MODEL 4
REMARK VINA RESULT:      -7.4      2.149      6.476
REMARK  Name = 
REMARK  5 active torsions:
REMARK  status: ('A' for Active; 'I' for Inactive)
REMARK    1  A    between atoms: C_2  and  O_3
REMARK    2  A    between atoms: N_13  and  C_14
REMARK    3  A    between atoms: C_14  and  C_15
REMARK    4  A    between atoms: C_28  and  C_30
REMARK    5  A    between atoms: C_33  and  C_36
REMARK                            x       y       z     vdW  Elec       q    Type
REMARK                         _______ _______ _______ _____ _____    ______ ____
ROOT
ATOM      1  C   UNL     1       5.704  -4.533  21.731  0.00  0.00    +0.130 C 
ATOM      2  C   UNL     1       5.581  -4.101  23.183  0.00  0.00    +0.052 C 
ATOM      3  C   UNL     1       6.170  -5.365  23.824  0.00  0.00    +0.072 C 
ATOM      4  C   UNL     1       6.575  -5.568  25.255  0.00  0.00    +0.106 C 
ATOM      5  C   UNL     1       7.993  -5.030  25.412  0.00  0.00    +0.110 C 
ATOM      6  C   UNL     1       8.398  -4.563  23.962  0.00  0.00    +0.100 C 
ATOM      7  C   UNL     1       7.802  -4.058  26.568  0.00  0.00    +0.228 C 
ATOM      8  O   UNL     1       8.709  -3.466  27.133  0.00  0.00    -0.275 OA
ATOM      9  N   UNL     1       6.450  -3.912  26.815  0.00  0.00    -0.237 N 
ATOM     10  C   UNL     1       5.687  -4.781  26.110  0.00  0.00    +0.227 C 
ATOM     11  O   UNL     1       4.461  -4.841  26.088  0.00  0.00    -0.275 OA
ATOM     12  N   UNL     1       7.463  -5.407  23.142  0.00  0.00    -0.288 NA
ATOM     13  C   UNL     1       7.099  -5.217  21.732  0.00  0.00    +0.116 C 
ENDROOT
BRANCH   6  14
ATOM     14  C   UNL     1       8.579  -3.033  23.800  0.00  0.00    -0.029 A 
ATOM     15  C   UNL     1       9.840  -2.403  23.808  0.00  0.00    +0.006 A 
ATOM     16  C   UNL     1      10.094  -1.173  23.195  0.00  0.00    +0.016 A 
ATOM     17  C   UNL     1       9.041  -0.448  22.661  0.00  0.00    +0.065 A 
ATOM     18  C   UNL     1       7.744  -0.934  22.837  0.00  0.00    +0.016 A 
ATOM     19  C   UNL     1       7.514  -2.220  23.385  0.00  0.00    +0.006 A 
BRANCH  17  20
ATOM     20  C   UNL     1       9.347   0.782  21.869  0.00  0.00    +0.308 C 
ATOM     21  N   UNL     1       8.694   1.107  20.799  0.00  0.00    -0.099 NA
ATOM     22  H   UNL     1       8.002   0.396  20.555  0.00  0.00    +0.363 HD
ATOM     23  N   UNL     1      10.371   1.614  22.218  0.00  0.00    -0.247 N 
ATOM     24  H   UNL     1      10.350   2.462  21.657  0.00  0.00    +0.288 HD
ATOM     25  H   UNL     1      10.485   1.806  23.205  0.00  0.00    +0.288 HD
ENDBRANCH  17  20
ENDBRANCH   6  14
BRANCH   1  26
ATOM     26  O   UNL     1       5.570  -3.484  20.797  0.00  0.00    -0.390 OA
ATOM     27  H   UNL     1       4.733  -3.587  20.319  0.00  0.00    +0.210 HD
ENDBRANCH   1  26
BRANCH   9  28
ATOM     28  C   UNL     1       5.858  -2.763  27.471  0.00  0.00    +0.151 C 
BRANCH  28  29
ATOM     29  C   UNL     1       6.202  -1.464  26.804  0.00  0.00    -0.026 A 
ATOM     30  C   UNL     1       5.203  -0.791  26.089  0.00  0.00    +0.054 A 
ATOM     31  C   UNL     1       5.552   0.382  25.468  0.00  0.00    +0.167 A 
ATOM     32  C   UNL     1       6.819   0.906  25.548  0.00  0.00    +0.166 A 
ATOM     33  O   UNL     1       6.937   2.069  24.854  0.00  0.00    -0.453 OA
ATOM     34  C   UNL     1       5.617   2.174  24.279  0.00  0.00    +0.466 C 
ATOM     35  C   UNL     1       7.821   0.284  26.258  0.00  0.00    +0.050 A 
ATOM     36  O   UNL     1       4.713   1.145  24.725  0.00  0.00    -0.453 OA
ATOM     37  C   UNL     1       7.510  -0.922  26.893  0.00  0.00    +0.009 A 
ENDBRANCH  28  29
ENDBRANCH   9  28
TORSDOF 5
ENDMDL
MODEL 5
REMARK VINA RESULT:      -7.4      1.574      2.190
REMARK  Name = 
REMARK  5 active torsions:
REMARK  status: ('A' for Active; 'I' for Inactive)
REMARK    1  A    between atoms: C_2  and  O_3
REMARK    2  A    between atoms: N_13  and  C_14
REMARK    3  A    between atoms: C_14  and  C_15
REMARK    4  A    between atoms: C_28  and  C_30
REMARK    5  A    between atoms: C_33  and  C_36
REMARK                            x       y       z     vdW  Elec       q    Type
REMARK                         _______ _______ _______ _____ _____    ______ ____
ROOT
ATOM      1  C   UNL     1       6.596  -0.122  26.468  0.00  0.00    +0.130 C 
ATOM      2  C   UNL     1       6.605  -1.078  25.285  0.00  0.00    +0.052 C 
ATOM      3  C   UNL     1       8.114  -1.046  25.007  0.00  0.00    +0.072 C 
ATOM      4  C   UNL     1       8.901  -1.942  24.096  0.00  0.00    +0.106 C 
ATOM      5  C   UNL     1       9.241  -3.207  24.877  0.00  0.00    +0.110 C 
ATOM      6  C   UNL     1       8.653  -2.948  26.316  0.00  0.00    +0.100 C 
ATOM      7  C   UNL     1       8.693  -4.275  23.942  0.00  0.00    +0.228 C 
ATOM      8  O   UNL     1       8.845  -5.478  24.098  0.00  0.00    -0.275 OA
ATOM      9  N   UNL     1       7.951  -3.667  22.947  0.00  0.00    -0.237 N 
ATOM     10  C   UNL     1       8.055  -2.316  22.962  0.00  0.00    +0.227 C 
ATOM     11  O   UNL     1       7.467  -1.520  22.236  0.00  0.00    -0.275 OA
ATOM     12  N   UNL     1       8.616  -1.446  26.321  0.00  0.00    -0.288 NA
ATOM     13  C   UNL     1       7.866  -0.578  27.238  0.00  0.00    +0.116 C 
ENDROOT
BRANCH   6  14
ATOM     14  C   UNL     1       7.464  -3.863  26.705  0.00  0.00    -0.029 A 
ATOM     15  C   UNL     1       7.623  -5.212  27.083  0.00  0.00    +0.006 A 
ATOM     16  C   UNL     1       6.712  -5.902  27.886  0.00  0.00    +0.016 A 
ATOM     17  C   UNL     1       5.515  -5.298  28.233  0.00  0.00    +0.065 A 
ATOM     18  C   UNL     1       5.220  -4.047  27.687  0.00  0.00    +0.016 A 
ATOM     19  C   UNL     1       6.190  -3.328  26.945  0.00  0.00    +0.006 A 
BRANCH  17  20
ATOM     20  C   UNL     1       4.626  -5.981  29.221  0.00  0.00    +0.308 C 
ATOM     21  N   UNL     1       4.291  -5.445  30.351  0.00  0.00    -0.099 NA
ATOM     22  H   UNL     1       4.751  -4.542  30.486  0.00  0.00    +0.363 HD
ATOM     23  N   UNL     1       4.149  -7.240  28.994  0.00  0.00    -0.247 N 
ATOM     24  H   UNL     1       3.460  -7.494  29.698  0.00  0.00    +0.288 HD
ATOM     25  H   UNL     1       3.837  -7.446  28.054  0.00  0.00    +0.288 HD
ENDBRANCH  17  20
ENDBRANCH   6  14
BRANCH   1  26
ATOM     26  O   UNL     1       5.411  -0.151  27.232  0.00  0.00    -0.390 OA
ATOM     27  H   UNL     1       5.630  -0.347  28.155  0.00  0.00    +0.210 HD
ENDBRANCH   1  26
BRANCH   9  28
ATOM     28  C   UNL     1       6.909  -4.325  22.185  0.00  0.00    +0.151 C 
BRANCH  28  29
ATOM     29  C   UNL     1       5.733  -4.730  23.025  0.00  0.00    -0.026 A 
ATOM     30  C   UNL     1       5.581  -6.082  23.361  0.00  0.00    +0.054 A 
ATOM     31  C   UNL     1       4.483  -6.427  24.108  0.00  0.00    +0.167 A 
ATOM     32  C   UNL     1       3.567  -5.498  24.538  0.00  0.00    +0.166 A 
ATOM     33  O   UNL     1       2.562  -6.066  25.257  0.00  0.00    -0.453 OA
ATOM     34  C   UNL     1       2.922  -7.461  25.168  0.00  0.00    +0.466 C 
ATOM     35  C   UNL     1       3.694  -4.159  24.247  0.00  0.00    +0.050 A 
ATOM     36  O   UNL     1       4.179  -7.688  24.502  0.00  0.00    -0.453 OA
ATOM     37  C   UNL     1       4.792  -3.768  23.474  0.00  0.00    +0.009 A 
ENDBRANCH  28  29
ENDBRANCH   9  28
TORSDOF 5
ENDMDL
MODEL 6
REMARK VINA RESULT:      -7.3      2.800      4.580
REMARK  Name = 
REMARK  5 active torsions:
REMARK  status: ('A' for Active; 'I' for Inactive)
REMARK    1  A    between atoms: C_2  and  O_3
REMARK    2  A    between atoms: N_13  and  C_14
REMARK    3  A    between atoms: C_14  and  C_15
REMARK    4  A    between atoms: C_28  and  C_30
REMARK    5  A    between atoms: C_33  and  C_36
REMARK                            x       y       z     vdW  Elec       q    Type
REMARK                         _______ _______ _______ _____ _____    ______ ____
ROOT
ATOM      1  C   UNL     1       7.572   3.504  21.940  0.00  0.00    +0.130 C 
ATOM      2  C   UNL     1       7.819   2.008  22.049  0.00  0.00    +0.052 C 
ATOM      3  C   UNL     1       9.298   2.073  22.451  0.00  0.00    +0.072 C 
ATOM      4  C   UNL     1      10.165   0.955  22.953  0.00  0.00    +0.106 C 
ATOM      5  C   UNL     1       9.935   0.834  24.456  0.00  0.00    +0.110 C 
ATOM      6  C   UNL     1       8.928   1.999  24.792  0.00  0.00    +0.100 C 
ATOM      7  C   UNL     1       9.563  -0.637  24.569  0.00  0.00    +0.228 C 
ATOM      8  O   UNL     1       9.402  -1.232  25.625  0.00  0.00    -0.275 OA
ATOM      9  N   UNL     1       9.373  -1.154  23.302  0.00  0.00    -0.237 N 
ATOM     10  C   UNL     1       9.735  -0.292  22.320  0.00  0.00    +0.227 C 
ATOM     11  O   UNL     1       9.625  -0.461  21.110  0.00  0.00    -0.275 OA
ATOM     12  N   UNL     1       9.195   2.922  23.637  0.00  0.00    -0.288 NA
ATOM     13  C   UNL     1       8.354   4.033  23.174  0.00  0.00    +0.116 C 
ENDROOT
BRANCH   6  14
ATOM     14  C   UNL     1       7.521   1.529  25.242  0.00  0.00    -0.029 A 
ATOM     15  C   UNL     1       6.648   0.806  24.405  0.00  0.00    +0.006 A 
ATOM     16  C   UNL     1       5.640  -0.036  24.882  0.00  0.00    +0.016 A 
ATOM     17  C   UNL     1       5.374  -0.078  26.241  0.00  0.00    +0.065 A 
ATOM     18  C   UNL     1       6.066   0.797  27.080  0.00  0.00    +0.016 A 
ATOM     19  C   UNL     1       7.140   1.581  26.591  0.00  0.00    +0.006 A 
BRANCH  17  20
ATOM     20  C   UNL     1       4.408  -1.098  26.751  0.00  0.00    +0.308 C 
ATOM     21  N   UNL     1       3.860  -1.989  25.987  0.00  0.00    -0.099 NA
ATOM     22  H   UNL     1       4.133  -1.861  25.010  0.00  0.00    +0.363 HD
ATOM     23  N   UNL     1       4.020  -1.116  28.059  0.00  0.00    -0.247 N 
ATOM     24  H   UNL     1       3.472  -1.948  28.259  0.00  0.00    +0.288 HD
ATOM     25  H   UNL     1       4.742  -0.952  28.750  0.00  0.00    +0.288 HD
ENDBRANCH  17  20
ENDBRANCH   6  14
BRANCH   1  26
ATOM     26  O   UNL     1       6.210   3.870  21.913  0.00  0.00    -0.390 OA
ATOM     27  H   UNL     1       5.673   3.123  22.220  0.00  0.00    +0.210 HD
ENDBRANCH   1  26
BRANCH   9  28
ATOM     28  C   UNL     1       8.571  -2.324  23.007  0.00  0.00    +0.151 C 
BRANCH  28  29
ATOM     29  C   UNL     1       8.413  -3.241  24.185  0.00  0.00    -0.026 A 
ATOM     30  C   UNL     1       7.184  -3.265  24.857  0.00  0.00    +0.054 A 
ATOM     31  C   UNL     1       7.076  -4.093  25.945  0.00  0.00    +0.167 A 
ATOM     32  C   UNL     1       8.111  -4.892  26.365  0.00  0.00    +0.166 A 
ATOM     33  O   UNL     1       7.781  -5.623  27.463  0.00  0.00    -0.453 OA
ATOM     34  C   UNL     1       6.445  -5.139  27.716  0.00  0.00    +0.466 C 
ATOM     35  C   UNL     1       9.326  -4.911  25.718  0.00  0.00    +0.050 A 
ATOM     36  O   UNL     1       5.967  -4.222  26.714  0.00  0.00    -0.453 OA
ATOM     37  C   UNL     1       9.482  -4.069  24.613  0.00  0.00    +0.009 A 
ENDBRANCH  28  29
ENDBRANCH   9  28
TORSDOF 5
ENDMDL
MODEL 7
REMARK VINA RESULT:      -7.3      2.903      6.036
REMARK  Name = 
REMARK  5 active torsions:
REMARK  status: ('A' for Active; 'I' for Inactive)
REMARK    1  A    between atoms: C_2  and  O_3
REMARK    2  A    between atoms: N_13  and  C_14
REMARK    3  A    between atoms: C_14  and  C_15
REMARK    4  A    between atoms: C_28  and  C_30
REMARK    5  A    between atoms: C_33  and  C_36
REMARK                            x       y       z     vdW  Elec       q    Type
REMARK                         _______ _______ _______ _____ _____    ______ ____
ROOT
ATOM      1  C   UNL     1       8.011  -5.124  26.775  0.00  0.00    +0.130 C 
ATOM      2  C   UNL     1       7.684  -3.722  26.286  0.00  0.00    +0.052 C 
ATOM      3  C   UNL     1       9.078  -3.358  25.759  0.00  0.00    +0.072 C 
ATOM      4  C   UNL     1       9.464  -2.177  24.916  0.00  0.00    +0.106 C 
ATOM      5  C   UNL     1       9.193  -2.542  23.461  0.00  0.00    +0.110 C 
ATOM      6  C   UNL     1       8.687  -4.034  23.520  0.00  0.00    +0.100 C 
ATOM      7  C   UNL     1       8.300  -1.385  23.039  0.00  0.00    +0.228 C 
ATOM      8  O   UNL     1       7.921  -1.183  21.894  0.00  0.00    -0.275 OA
ATOM      9  N   UNL     1       7.943  -0.658  24.158  0.00  0.00    -0.237 N 
ATOM     10  C   UNL     1       8.607  -1.046  25.274  0.00  0.00    +0.227 C 
ATOM     11  O   UNL     1       8.453  -0.619  26.414  0.00  0.00    -0.275 OA
ATOM     12  N   UNL     1       9.287  -4.466  24.828  0.00  0.00    -0.288 NA
ATOM     13  C   UNL     1       8.923  -5.642  25.628  0.00  0.00    +0.116 C 
ENDROOT
BRANCH   6  14
ATOM     14  C   UNL     1       7.202  -4.231  23.120  0.00  0.00    -0.029 A 
ATOM     15  C   UNL     1       6.777  -5.213  22.202  0.00  0.00    +0.006 A 
ATOM     16  C   UNL     1       5.488  -5.749  22.186  0.00  0.00    +0.016 A 
ATOM     17  C   UNL     1       4.516  -5.212  23.014  0.00  0.00    +0.065 A 
ATOM     18  C   UNL     1       4.840  -4.087  23.775  0.00  0.00    +0.016 A 
ATOM     19  C   UNL     1       6.172  -3.610  23.842  0.00  0.00    +0.006 A 
BRANCH  17  20
ATOM     20  C   UNL     1       3.191  -5.898  23.103  0.00  0.00    +0.308 C 
ATOM     21  N   UNL     1       2.066  -5.268  22.985  0.00  0.00    -0.099 NA
ATOM     22  H   UNL     1       2.212  -4.261  22.880  0.00  0.00    +0.363 HD
ATOM     23  N   UNL     1       3.100  -7.236  23.359  0.00  0.00    -0.247 N 
ATOM     24  H   UNL     1       2.141  -7.556  23.252  0.00  0.00    +0.288 HD
ATOM     25  H   UNL     1       3.764  -7.835  22.886  0.00  0.00    +0.288 HD
ENDBRANCH  17  20
ENDBRANCH   6  14
BRANCH   1  26
ATOM     26  O   UNL     1       6.882  -5.930  27.030  0.00  0.00    -0.390 OA
ATOM     27  H   UNL     1       7.176  -6.817  27.289  0.00  0.00    +0.210 HD
ENDBRANCH   1  26
BRANCH   9  28
ATOM     28  C   UNL     1       6.767   0.183  24.247  0.00  0.00    +0.151 C 
BRANCH  28  29
ATOM     29  C   UNL     1       6.997   1.573  23.732  0.00  0.00    -0.026 A 
ATOM     30  C   UNL     1       8.034   2.334  24.289  0.00  0.00    +0.054 A 
ATOM     31  C   UNL     1       8.205   3.610  23.816  0.00  0.00    +0.167 A 
ATOM     32  C   UNL     1       7.418   4.136  22.821  0.00  0.00    +0.166 A 
ATOM     33  O   UNL     1       7.764   5.415  22.517  0.00  0.00    -0.453 OA
ATOM     34  C   UNL     1       8.814   5.646  23.480  0.00  0.00    +0.466 C 
ATOM     35  C   UNL     1       6.404   3.413  22.235  0.00  0.00    +0.050 A 
ATOM     36  O   UNL     1       9.146   4.480  24.258  0.00  0.00    -0.453 OA
ATOM     37  C   UNL     1       6.187   2.112  22.700  0.00  0.00    +0.009 A 
ENDBRANCH  28  29
ENDBRANCH   9  28
TORSDOF 5
ENDMDL
MODEL 8
REMARK VINA RESULT:      -7.2      2.870      4.513
REMARK  Name = 
REMARK  5 active torsions:
REMARK  status: ('A' for Active; 'I' for Inactive)
REMARK    1  A    between atoms: C_2  and  O_3
REMARK    2  A    between atoms: N_13  and  C_14
REMARK    3  A    between atoms: C_14  and  C_15
REMARK    4  A    between atoms: C_28  and  C_30
REMARK    5  A    between atoms: C_33  and  C_36
REMARK                            x       y       z     vdW  Elec       q    Type
REMARK                         _______ _______ _______ _____ _____    ______ ____
ROOT
ATOM      1  C   UNL     1       5.978   2.922  22.235  0.00  0.00    +0.130 C 
ATOM      2  C   UNL     1       6.924   1.731  22.268  0.00  0.00    +0.052 C 
ATOM      3  C   UNL     1       8.241   2.517  22.314  0.00  0.00    +0.072 C 
ATOM      4  C   UNL     1       9.619   1.987  22.589  0.00  0.00    +0.106 C 
ATOM      5  C   UNL     1       9.795   1.928  24.102  0.00  0.00    +0.110 C 
ATOM      6  C   UNL     1       8.452   2.519  24.676  0.00  0.00    +0.100 C 
ATOM      7  C   UNL     1      10.200   0.473  24.285  0.00  0.00    +0.228 C 
ATOM      8  O   UNL     1      10.568  -0.017  25.342  0.00  0.00    -0.275 OA
ATOM      9  N   UNL     1      10.018  -0.200  23.092  0.00  0.00    -0.237 N 
ATOM     10  C   UNL     1       9.711   0.626  22.061  0.00  0.00    +0.227 C 
ATOM     11  O   UNL     1       9.443   0.302  20.908  0.00  0.00    -0.275 OA
ATOM     12  N   UNL     1       7.998   3.337  23.500  0.00  0.00    -0.288 NA
ATOM     13  C   UNL     1       6.654   3.877  23.258  0.00  0.00    +0.116 C 
ENDROOT
BRANCH   6  14
ATOM     14  C   UNL     1       7.568   1.499  25.438  0.00  0.00    -0.029 A 
ATOM     15  C   UNL     1       7.554   1.391  26.843  0.00  0.00    +0.006 A 
ATOM     16  C   UNL     1       6.475   0.881  27.569  0.00  0.00    +0.016 A 
ATOM     17  C   UNL     1       5.404   0.321  26.894  0.00  0.00    +0.065 A 
ATOM     18  C   UNL     1       5.483   0.202  25.504  0.00  0.00    +0.016 A 
ATOM     19  C   UNL     1       6.544   0.800  24.780  0.00  0.00    +0.006 A 
BRANCH  17  20
ATOM     20  C   UNL     1       4.190  -0.072  27.673  0.00  0.00    +0.308 C 
ATOM     21  N   UNL     1       3.088  -0.453  27.110  0.00  0.00    -0.099 NA
ATOM     22  H   UNL     1       3.151  -0.395  26.091  0.00  0.00    +0.363 HD
ATOM     23  N   UNL     1       4.172  -0.008  29.036  0.00  0.00    -0.247 N 
ATOM     24  H   UNL     1       3.325  -0.435  29.403  0.00  0.00    +0.288 HD
ATOM     25  H   UNL     1       5.004  -0.323  29.518  0.00  0.00    +0.288 HD
ENDBRANCH  17  20
ENDBRANCH   6  14
BRANCH   1  26
ATOM     26  O   UNL     1       4.635   2.608  22.531  0.00  0.00    -0.390 OA
ATOM     27  H   UNL     1       4.204   3.385  22.916  0.00  0.00    +0.210 HD
ENDBRANCH   1  26
BRANCH   9  28
ATOM     28  C   UNL     1       9.828  -1.632  22.981  0.00  0.00    +0.151 C 
BRANCH  28  29
ATOM     29  C   UNL     1       8.462  -2.079  23.412  0.00  0.00    -0.026 A 
ATOM     30  C   UNL     1       8.281  -2.506  24.734  0.00  0.00    +0.054 A 
ATOM     31  C   UNL     1       7.028  -2.933  25.094  0.00  0.00    +0.167 A 
ATOM     32  C   UNL     1       5.971  -2.930  24.216  0.00  0.00    +0.166 A 
ATOM     33  O   UNL     1       4.830  -3.398  24.787  0.00  0.00    -0.453 OA
ATOM     34  C   UNL     1       5.312  -3.754  26.100  0.00  0.00    +0.466 C 
ATOM     35  C   UNL     1       6.105  -2.498  22.916  0.00  0.00    +0.050 A 
ATOM     36  O   UNL     1       6.689  -3.393  26.323  0.00  0.00    -0.453 OA
ATOM     37  C   UNL     1       7.371  -2.069  22.505  0.00  0.00    +0.009 A 
ENDBRANCH  28  29
ENDBRANCH   9  28
TORSDOF 5
ENDMDL
MODEL 9
REMARK VINA RESULT:      -7.2      4.483      7.568
REMARK  Name = 
REMARK  5 active torsions:
REMARK  status: ('A' for Active; 'I' for Inactive)
REMARK    1  A    between atoms: C_2  and  O_3
REMARK    2  A    between atoms: N_13  and  C_14
REMARK    3  A    between atoms: C_14  and  C_15
REMARK    4  A    between atoms: C_28  and  C_30
REMARK    5  A    between atoms: C_33  and  C_36
REMARK                            x       y       z     vdW  Elec       q    Type
REMARK                         _______ _______ _______ _____ _____    ______ ____
ROOT
ATOM      1  C   UNL     1       6.950   4.676  26.975  0.00  0.00    +0.130 C 
ATOM      2  C   UNL     1       7.431   3.431  26.247  0.00  0.00    +0.052 C 
ATOM      3  C   UNL     1       6.113   3.083  25.542  0.00  0.00    +0.072 C 
ATOM      4  C   UNL     1       5.890   2.075  24.453  0.00  0.00    +0.106 C 
ATOM      5  C   UNL     1       6.227   2.749  23.127  0.00  0.00    +0.110 C 
ATOM      6  C   UNL     1       6.595   4.229  23.523  0.00  0.00    +0.100 C 
ATOM      7  C   UNL     1       7.244   1.769  22.560  0.00  0.00    +0.228 C 
ATOM      8  O   UNL     1       7.716   1.834  21.435  0.00  0.00    -0.275 OA
ATOM      9  N   UNL     1       7.586   0.856  23.539  0.00  0.00    -0.237 N 
ATOM     10  C   UNL     1       6.816   0.959  24.650  0.00  0.00    +0.227 C 
ATOM     11  O   UNL     1       6.929   0.320  25.691  0.00  0.00    -0.275 OA
ATOM     12  N   UNL     1       5.872   4.340  24.835  0.00  0.00    -0.288 NA
ATOM     13  C   UNL     1       6.077   5.351  25.881  0.00  0.00    +0.116 C 
ENDROOT
BRANCH   6  14
ATOM     14  C   UNL     1       8.081   4.610  23.297  0.00  0.00    -0.029 A 
ATOM     15  C   UNL     1       8.510   5.935  23.078  0.00  0.00    +0.006 A 
ATOM     16  C   UNL     1       9.802   6.385  23.359  0.00  0.00    +0.016 A 
ATOM     17  C   UNL     1      10.771   5.476  23.748  0.00  0.00    +0.065 A 
ATOM     18  C   UNL     1      10.443   4.119  23.756  0.00  0.00    +0.016 A 
ATOM     19  C   UNL     1       9.108   3.689  23.550  0.00  0.00    +0.006 A 
BRANCH  17  20
ATOM     20  C   UNL     1      12.099   5.992  24.201  0.00  0.00    +0.308 C 
ATOM     21  N   UNL     1      13.219   5.589  23.690  0.00  0.00    -0.099 NA
ATOM     22  H   UNL     1      13.068   4.853  22.996  0.00  0.00    +0.363 HD
ATOM     23  N   UNL     1      12.199   6.896  25.218  0.00  0.00    -0.247 N 
ATOM     24  H   UNL     1      13.155   7.235  25.302  0.00  0.00    +0.288 HD
ATOM     25  H   UNL     1      11.520   7.645  25.229  0.00  0.00    +0.288 HD
ENDBRANCH  17  20
ENDBRANCH   6  14
BRANCH   1  26
ATOM     26  O   UNL     1       7.984   5.492  27.480  0.00  0.00    -0.390 OA
ATOM     27  H   UNL     1       7.600   6.185  28.037  0.00  0.00    +0.210 HD
ENDBRANCH   1  26
BRANCH   9  28
ATOM     28  C   UNL     1       8.823   0.101  23.558  0.00  0.00    +0.151 C 
BRANCH  28  29
ATOM     29  C   UNL     1       8.606  -1.383  23.544  0.00  0.00    -0.026 A 
ATOM     30  C   UNL     1       7.717  -1.924  22.607  0.00  0.00    +0.054 A 
ATOM     31  C   UNL     1       7.518  -3.281  22.633  0.00  0.00    +0.167 A 
ATOM     32  C   UNL     1       8.171  -4.101  23.522  0.00  0.00    +0.166 A 
ATOM     33  O   UNL     1       7.818  -5.405  23.370  0.00  0.00    -0.453 OA
ATOM     34  C   UNL     1       6.822  -5.294  22.330  0.00  0.00    +0.466 C 
ATOM     35  C   UNL     1       9.067  -3.609  24.444  0.00  0.00    +0.050 A 
ATOM     36  O   UNL     1       6.682  -3.959  21.810  0.00  0.00    -0.453 OA
ATOM     37  C   UNL     1       9.286  -2.228  24.459  0.00  0.00    +0.009 A 
ENDBRANCH  28  29
ENDBRANCH   9  28
TORSDOF 5
ENDMDL
