MODEL 1
REMARK VINA RESULT:      -7.0      0.000      0.000
REMARK  Name = 
REMARK  13 active torsions:
REMARK  status: ('A' for Active; 'I' for Inactive)
REMARK    1  A    between atoms: C_2  and  O_3
REMARK    2  A    between atoms: C_2  and  C_4
REMARK    3  A    between atoms: C_2  and  C_6
REMARK    4  A    between atoms: C_4  and  C_5
REMARK    5  A    between atoms: C_6  and  C_7
REMARK    6  A    between atoms: C_7  and  O_9
REMARK    7  A    between atoms: C_7  and  C_10
REMARK    8  A    between atoms: C_11  and  O_12
REMARK    9  A    between atoms: C_16  and  C_17
REMARK   10  A    between atoms: C_17  and  C_18
REMARK   11  A    between atoms: C_18  and  O_20
REMARK   12  A    between atoms: O_20  and  C_21
REMARK   13  A    between atoms: C_28  and  O_29
REMARK                            x       y       z     vdW  Elec       q    Type
REMARK                         _______ _______ _______ _____ _____    ______ ____
ROOT
ATOM      1  C   UNL     1       6.271  -5.278  24.129  0.00  0.00    +0.027 A 
ATOM      2  C   UNL     1       6.383  -5.113  25.531  0.00  0.00    -0.027 A 
ATOM      3  C   UNL     1       7.138  -4.023  26.024  0.00  0.00    +0.017 A 
ATOM      4  C   UNL     1       7.780  -3.117  25.157  0.00  0.00    +0.037 A 
ATOM      5  C   UNL     1       8.491  -1.947  25.720  0.00  0.00    +0.195 C 
ATOM      6  C   UNL     1       9.176  -1.003  24.811  0.00  0.00    +0.037 A 
ATOM      7  C   UNL     1       9.158  -1.203  23.431  0.00  0.00    +0.075 A 
ATOM      8  C   UNL     1       8.349  -2.308  22.870  0.00  0.00    +0.202 C 
ATOM      9  O   UNL     1       8.155  -2.352  21.663  0.00  0.00    -0.286 OA
ATOM     10  C   UNL     1       9.855  -0.305  22.601  0.00  0.00    +0.128 A 
ATOM     11  C   UNL     1      10.516   0.801  23.137  0.00  0.00    +0.046 A 
ATOM     12  C   UNL     1      10.504   1.011  24.513  0.00  0.00    +0.004 A 
ATOM     13  C   UNL     1       9.847   0.107  25.351  0.00  0.00    +0.012 A 
ATOM     14  O   UNL     1       8.507  -1.765  26.930  0.00  0.00    -0.287 OA
ATOM     15  C   UNL     1       7.711  -3.295  23.782  0.00  0.00    +0.075 A 
ATOM     16  C   UNL     1       6.973  -4.382  23.284  0.00  0.00    +0.134 A 
ENDROOT
BRANCH  10  17
ATOM     17  O   UNL     1       9.921  -0.500  21.251  0.00  0.00    -0.506 OA
ATOM     18  H   UNL     1      10.011   0.341  20.777  0.00  0.00    +0.292 HD
ENDBRANCH  10  17
BRANCH  16  19
ATOM     19  O   UNL     1       6.914  -4.557  21.924  0.00  0.00    -0.506 OA
ATOM     20  H   UNL     1       6.599  -3.726  21.510  0.00  0.00    +0.292 HD
ENDBRANCH  16  19
BRANCH   1  21
ATOM     21  C   UNL     1       5.327  -6.306  23.511  0.00  0.00    +0.151 C 
BRANCH  21  22
ATOM     22  O   UNL     1       5.936  -6.866  22.338  0.00  0.00    -0.387 OA
ATOM     23  H   UNL     1       5.918  -7.835  22.453  0.00  0.00    +0.210 HD
ENDBRANCH  21  22
BRANCH  21  24
ATOM     24  C   UNL     1       4.000  -5.631  23.115  0.00  0.00    +0.067 C 
BRANCH  24  25
ATOM     25  C   UNL     1       2.789  -6.455  23.560  0.00  0.00    +0.117 C 
BRANCH  25  26
ATOM     26  O   UNL     1       3.211  -7.804  23.768  0.00  0.00    -0.392 OA
ATOM     27  H   UNL     1       3.600  -7.861  24.657  0.00  0.00    +0.210 HD
ENDBRANCH  25  26
BRANCH  25  28
ATOM     28  C   UNL     1       2.153  -5.901  24.841  0.00  0.00    +0.028 C 
ATOM     29  C   UNL     1       2.486  -4.428  25.043  0.00  0.00    +0.006 C 
ENDBRANCH  25  28
ENDBRANCH  24  25
ENDBRANCH  21  24
ENDBRANCH   1  21
BRANCH   2  30
ATOM     30  C   UNL     1       5.661  -5.999  26.543  0.00  0.00    +0.156 C 
BRANCH  30  31
ATOM     31  C   UNL     1       6.069  -5.838  27.999  0.00  0.00    +0.311 C 
ATOM     32  O   UNL     1       7.032  -6.364  28.537  0.00  0.00    -0.250 OA
BRANCH  31  33
ATOM     33  O   UNL     1       5.160  -5.033  28.625  0.00  0.00    -0.468 OA
ATOM     34  C   UNL     1       3.773  -5.359  28.463  0.00  0.00    +0.280 C 
ENDBRANCH  31  33
ENDBRANCH  30  31
ENDBRANCH   2  30
TORSDOF 11
ENDMDL
MODEL 2
REMARK VINA RESULT:      -6.9      1.844      7.667
REMARK  Name = 
REMARK  13 active torsions:
REMARK  status: ('A' for Active; 'I' for Inactive)
REMARK    1  A    between atoms: C_2  and  O_3
REMARK    2  A    between atoms: C_2  and  C_4
REMARK    3  A    between atoms: C_2  and  C_6
REMARK    4  A    between atoms: C_4  and  C_5
REMARK    5  A    between atoms: C_6  and  C_7
REMARK    6  A    between atoms: C_7  and  O_9
REMARK    7  A    between atoms: C_7  and  C_10
REMARK    8  A    between atoms: C_11  and  O_12
REMARK    9  A    between atoms: C_16  and  C_17
REMARK   10  A    between atoms: C_17  and  C_18
REMARK   11  A    between atoms: C_18  and  O_20
REMARK   12  A    between atoms: O_20  and  C_21
REMARK   13  A    between atoms: C_28  and  O_29
REMARK                            x       y       z     vdW  Elec       q    Type
REMARK                         _______ _______ _______ _____ _____    ______ ____
ROOT
ATOM      1  C   UNL     1       7.824  -5.126  24.758  0.00  0.00    +0.027 A 
ATOM      2  C   UNL     1       6.880  -5.321  23.719  0.00  0.00    -0.027 A 
ATOM      3  C   UNL     1       5.580  -5.758  24.062  0.00  0.00    +0.017 A 
ATOM      4  C   UNL     1       5.213  -6.007  25.399  0.00  0.00    +0.037 A 
ATOM      5  C   UNL     1       3.817  -6.384  25.715  0.00  0.00    +0.195 C 
ATOM      6  C   UNL     1       3.433  -6.658  27.117  0.00  0.00    +0.037 A 
ATOM      7  C   UNL     1       4.373  -6.563  28.143  0.00  0.00    +0.075 A 
ATOM      8  C   UNL     1       5.735  -6.074  27.835  0.00  0.00    +0.202 C 
ATOM      9  O   UNL     1       6.488  -5.783  28.755  0.00  0.00    -0.286 OA
ATOM     10  C   UNL     1       3.981  -6.870  29.460  0.00  0.00    +0.128 A 
ATOM     11  C   UNL     1       2.662  -7.216  29.752  0.00  0.00    +0.046 A 
ATOM     12  C   UNL     1       1.722  -7.279  28.727  0.00  0.00    +0.004 A 
ATOM     13  C   UNL     1       2.107  -7.012  27.411  0.00  0.00    +0.012 A 
ATOM     14  O   UNL     1       2.987  -6.464  24.819  0.00  0.00    -0.287 OA
ATOM     15  C   UNL     1       6.142  -5.858  26.420  0.00  0.00    +0.075 A 
ATOM     16  C   UNL     1       7.440  -5.437  26.087  0.00  0.00    +0.134 A 
ENDROOT
BRANCH  10  17
ATOM     17  O   UNL     1       4.884  -6.857  30.485  0.00  0.00    -0.506 OA
ATOM     18  H   UNL     1       5.297  -5.986  30.579  0.00  0.00    +0.292 HD
ENDBRANCH  10  17
BRANCH  16  19
ATOM     19  O   UNL     1       8.356  -5.297  27.099  0.00  0.00    -0.506 OA
ATOM     20  H   UNL     1       8.424  -4.350  27.338  0.00  0.00    +0.292 HD
ENDBRANCH  16  19
BRANCH   1  21
ATOM     21  C   UNL     1       9.183  -4.479  24.502  0.00  0.00    +0.151 C 
BRANCH  21  22
ATOM     22  O   UNL     1      10.198  -5.219  25.195  0.00  0.00    -0.387 OA
ATOM     23  H   UNL     1      10.282  -4.813  26.078  0.00  0.00    +0.210 HD
ENDBRANCH  21  22
BRANCH  21  24
ATOM     24  C   UNL     1       9.180  -3.027  25.016  0.00  0.00    +0.067 C 
BRANCH  24  25
ATOM     25  C   UNL     1       9.954  -2.094  24.082  0.00  0.00    +0.117 C 
BRANCH  25  26
ATOM     26  O   UNL     1       9.780  -2.550  22.740  0.00  0.00    -0.392 OA
ATOM     27  H   UNL     1       9.038  -3.177  22.732  0.00  0.00    +0.210 HD
ENDBRANCH  25  26
BRANCH  25  28
ATOM     28  C   UNL     1       9.490  -0.637  24.206  0.00  0.00    +0.028 C 
ATOM     29  C   UNL     1       9.151  -0.275  25.646  0.00  0.00    +0.006 C 
ENDBRANCH  25  28
ENDBRANCH  24  25
ENDBRANCH  21  24
ENDBRANCH   1  21
BRANCH   2  30
ATOM     30  C   UNL     1       7.166  -5.006  22.253  0.00  0.00    +0.156 C 
BRANCH  30  31
ATOM     31  C   UNL     1       6.485  -3.774  21.679  0.00  0.00    +0.311 C 
ATOM     32  O   UNL     1       5.634  -3.768  20.801  0.00  0.00    -0.250 OA
BRANCH  31  33
ATOM     33  O   UNL     1       7.005  -2.662  22.280  0.00  0.00    -0.468 OA
ATOM     34  C   UNL     1       6.141  -1.927  23.158  0.00  0.00    +0.280 C 
ENDBRANCH  31  33
ENDBRANCH  30  31
ENDBRANCH   2  30
TORSDOF 11
ENDMDL
MODEL 3
REMARK VINA RESULT:      -6.8      1.925      4.739
REMARK  Name = 
REMARK  13 active torsions:
REMARK  status: ('A' for Active; 'I' for Inactive)
REMARK    1  A    between atoms: C_2  and  O_3
REMARK    2  A    between atoms: C_2  and  C_4
REMARK    3  A    between atoms: C_2  and  C_6
REMARK    4  A    between atoms: C_4  and  C_5
REMARK    5  A    between atoms: C_6  and  C_7
REMARK    6  A    between atoms: C_7  and  O_9
REMARK    7  A    between atoms: C_7  and  C_10
REMARK    8  A    between atoms: C_11  and  O_12
REMARK    9  A    between atoms: C_16  and  C_17
REMARK   10  A    between atoms: C_17  and  C_18
REMARK   11  A    between atoms: C_18  and  O_20
REMARK   12  A    between atoms: O_20  and  C_21
REMARK   13  A    between atoms: C_28  and  O_29
REMARK                            x       y       z     vdW  Elec       q    Type
REMARK                         _______ _______ _______ _____ _____    ______ ____
ROOT
ATOM      1  C   UNL     1       6.490  -3.327  24.523  0.00  0.00    +0.027 A 
ATOM      2  C   UNL     1       7.049  -3.701  23.276  0.00  0.00    -0.027 A 
ATOM      3  C   UNL     1       7.861  -2.766  22.593  0.00  0.00    +0.017 A 
ATOM      4  C   UNL     1       8.114  -1.484  23.119  0.00  0.00    +0.037 A 
ATOM      5  C   UNL     1       9.037  -0.572  22.407  0.00  0.00    +0.195 C 
ATOM      6  C   UNL     1       9.293   0.779  22.951  0.00  0.00    +0.037 A 
ATOM      7  C   UNL     1       8.676   1.201  24.128  0.00  0.00    +0.075 A 
ATOM      8  C   UNL     1       7.848   0.243  24.895  0.00  0.00    +0.202 C 
ATOM      9  O   UNL     1       7.489   0.537  26.027  0.00  0.00    -0.286 OA
ATOM     10  C   UNL     1       8.913   2.508  24.594  0.00  0.00    +0.128 A 
ATOM     11  C   UNL     1       9.790   3.359  23.923  0.00  0.00    +0.046 A 
ATOM     12  C   UNL     1      10.426   2.921  22.765  0.00  0.00    +0.004 A 
ATOM     13  C   UNL     1      10.171   1.640  22.272  0.00  0.00    +0.012 A 
ATOM     14  O   UNL     1       9.584  -0.938  21.375  0.00  0.00    -0.287 OA
ATOM     15  C   UNL     1       7.538  -1.094  24.320  0.00  0.00    +0.075 A 
ATOM     16  C   UNL     1       6.719  -2.010  24.999  0.00  0.00    +0.134 A 
ENDROOT
BRANCH  10  17
ATOM     17  O   UNL     1       8.277   2.986  25.705  0.00  0.00    -0.506 OA
ATOM     18  H   UNL     1       8.076   3.929  25.617  0.00  0.00    +0.292 HD
ENDBRANCH  10  17
BRANCH  16  19
ATOM     19  O   UNL     1       6.146  -1.617  26.182  0.00  0.00    -0.506 OA
ATOM     20  H   UNL     1       5.286  -1.187  25.991  0.00  0.00    +0.292 HD
ENDBRANCH  16  19
BRANCH   1  21
ATOM     21  C   UNL     1       5.762  -4.330  25.414  0.00  0.00    +0.151 C 
BRANCH  21  22
ATOM     22  O   UNL     1       5.275  -3.659  26.585  0.00  0.00    -0.387 OA
ATOM     23  H   UNL     1       6.058  -3.446  27.127  0.00  0.00    +0.210 HD
ENDBRANCH  21  22
BRANCH  21  24
ATOM     24  C   UNL     1       6.726  -5.451  25.842  0.00  0.00    +0.067 C 
BRANCH  24  25
ATOM     25  C   UNL     1       7.584  -5.036  27.039  0.00  0.00    +0.117 C 
BRANCH  25  26
ATOM     26  O   UNL     1       7.699  -6.151  27.923  0.00  0.00    -0.392 OA
ATOM     27  H   UNL     1       8.095  -6.887  27.425  0.00  0.00    +0.210 HD
ENDBRANCH  25  26
BRANCH  25  28
ATOM     28  C   UNL     1       8.978  -4.558  26.613  0.00  0.00    +0.028 C 
ATOM     29  C   UNL     1       9.495  -5.333  25.407  0.00  0.00    +0.006 C 
ENDBRANCH  25  28
ENDBRANCH  24  25
ENDBRANCH  21  24
ENDBRANCH   1  21
BRANCH   2  30
ATOM     30  C   UNL     1       6.890  -5.092  22.666  0.00  0.00    +0.156 C 
BRANCH  30  31
ATOM     31  C   UNL     1       5.802  -5.252  21.617  0.00  0.00    +0.311 C 
ATOM     32  O   UNL     1       5.971  -5.582  20.453  0.00  0.00    -0.250 OA
BRANCH  31  33
ATOM     33  O   UNL     1       4.598  -4.932  22.178  0.00  0.00    -0.468 OA
ATOM     34  C   UNL     1       3.933  -5.954  22.934  0.00  0.00    +0.280 C 
ENDBRANCH  31  33
ENDBRANCH  30  31
ENDBRANCH   2  30
TORSDOF 11
ENDMDL
MODEL 4
REMARK VINA RESULT:      -6.6      1.890      2.631
REMARK  Name = 
REMARK  13 active torsions:
REMARK  status: ('A' for Active; 'I' for Inactive)
REMARK    1  A    between atoms: C_2  and  O_3
REMARK    2  A    between atoms: C_2  and  C_4
REMARK    3  A    between atoms: C_2  and  C_6
REMARK    4  A    between atoms: C_4  and  C_5
REMARK    5  A    between atoms: C_6  and  C_7
REMARK    6  A    between atoms: C_7  and  O_9
REMARK    7  A    between atoms: C_7  and  C_10
REMARK    8  A    between atoms: C_11  and  O_12
REMARK    9  A    between atoms: C_16  and  C_17
REMARK   10  A    between atoms: C_17  and  C_18
REMARK   11  A    between atoms: C_18  and  O_20
REMARK   12  A    between atoms: O_20  and  C_21
REMARK   13  A    between atoms: C_28  and  O_29
REMARK                            x       y       z     vdW  Elec       q    Type
REMARK                         _______ _______ _______ _____ _____    ______ ____
ROOT
ATOM      1  C   UNL     1       7.309  -3.307  24.306  0.00  0.00    +0.027 A 
ATOM      2  C   UNL     1       6.787  -2.984  25.583  0.00  0.00    -0.027 A 
ATOM      3  C   UNL     1       6.892  -1.649  26.037  0.00  0.00    +0.017 A 
ATOM      4  C   UNL     1       7.505  -0.649  25.257  0.00  0.00    +0.037 A 
ATOM      5  C   UNL     1       7.518   0.749  25.741  0.00  0.00    +0.195 C 
ATOM      6  C   UNL     1       8.173   1.797  24.930  0.00  0.00    +0.037 A 
ATOM      7  C   UNL     1       8.778   1.481  23.713  0.00  0.00    +0.075 A 
ATOM      8  C   UNL     1       8.659   0.105  23.182  0.00  0.00    +0.202 C 
ATOM      9  O   UNL     1       8.994  -0.120  22.026  0.00  0.00    -0.286 OA
ATOM     10  C   UNL     1       9.426   2.498  22.987  0.00  0.00    +0.128 A 
ATOM     11  C   UNL     1       9.427   3.815  23.445  0.00  0.00    +0.046 A 
ATOM     12  C   UNL     1       8.796   4.129  24.645  0.00  0.00    +0.004 A 
ATOM     13  C   UNL     1       8.180   3.123  25.393  0.00  0.00    +0.012 A 
ATOM     14  O   UNL     1       6.986   1.033  26.806  0.00  0.00    -0.287 OA
ATOM     15  C   UNL     1       8.056  -0.964  24.023  0.00  0.00    +0.075 A 
ATOM     16  C   UNL     1       7.968  -2.290  23.569  0.00  0.00    +0.134 A 
ENDROOT
BRANCH  10  17
ATOM     17  O   UNL     1      10.089   2.221  21.825  0.00  0.00    -0.506 OA
ATOM     18  H   UNL     1       9.626   1.544  21.309  0.00  0.00    +0.292 HD
ENDBRANCH  10  17
BRANCH  16  19
ATOM     19  O   UNL     1       8.521  -2.598  22.351  0.00  0.00    -0.506 OA
ATOM     20  H   UNL     1       9.480  -2.758  22.468  0.00  0.00    +0.292 HD
ENDBRANCH  16  19
BRANCH   1  21
ATOM     21  C   UNL     1       7.073  -4.669  23.659  0.00  0.00    +0.151 C 
BRANCH  21  22
ATOM     22  O   UNL     1       8.326  -5.204  23.209  0.00  0.00    -0.387 OA
ATOM     23  H   UNL     1       8.416  -4.949  22.272  0.00  0.00    +0.210 HD
ENDBRANCH  21  22
BRANCH  21  24
ATOM     24  C   UNL     1       6.128  -4.522  22.452  0.00  0.00    +0.067 C 
BRANCH  24  25
ATOM     25  C   UNL     1       5.240  -5.756  22.273  0.00  0.00    +0.117 C 
BRANCH  25  26
ATOM     26  O   UNL     1       6.079  -6.887  22.037  0.00  0.00    -0.392 OA
ATOM     27  H   UNL     1       6.956  -6.558  21.776  0.00  0.00    +0.210 HD
ENDBRANCH  25  26
BRANCH  25  28
ATOM     28  C   UNL     1       4.349  -6.009  23.494  0.00  0.00    +0.028 C 
ATOM     29  C   UNL     1       3.335  -4.888  23.694  0.00  0.00    +0.006 C 
ENDBRANCH  25  28
ENDBRANCH  24  25
ENDBRANCH  21  24
ENDBRANCH   1  21
BRANCH   2  30
ATOM     30  C   UNL     1       6.040  -3.984  26.463  0.00  0.00    +0.156 C 
BRANCH  30  31
ATOM     31  C   UNL     1       6.830  -5.192  26.938  0.00  0.00    +0.311 C 
ATOM     32  O   UNL     1       7.926  -5.166  27.479  0.00  0.00    -0.250 OA
BRANCH  31  33
ATOM     33  O   UNL     1       6.132  -6.325  26.630  0.00  0.00    -0.468 OA
ATOM     34  C   UNL     1       4.962  -6.608  27.410  0.00  0.00    +0.280 C 
ENDBRANCH  31  33
ENDBRANCH  30  31
ENDBRANCH   2  30
TORSDOF 11
ENDMDL
MODEL 5
REMARK VINA RESULT:      -6.5      3.431      8.515
REMARK  Name = 
REMARK  13 active torsions:
REMARK  status: ('A' for Active; 'I' for Inactive)
REMARK    1  A    between atoms: C_2  and  O_3
REMARK    2  A    between atoms: C_2  and  C_4
REMARK    3  A    between atoms: C_2  and  C_6
REMARK    4  A    between atoms: C_4  and  C_5
REMARK    5  A    between atoms: C_6  and  C_7
REMARK    6  A    between atoms: C_7  and  O_9
REMARK    7  A    between atoms: C_7  and  C_10
REMARK    8  A    between atoms: C_11  and  O_12
REMARK    9  A    between atoms: C_16  and  C_17
REMARK   10  A    between atoms: C_17  and  C_18
REMARK   11  A    between atoms: C_18  and  O_20
REMARK   12  A    between atoms: O_20  and  C_21
REMARK   13  A    between atoms: C_28  and  O_29
REMARK                            x       y       z     vdW  Elec       q    Type
REMARK                         _______ _______ _______ _____ _____    ______ ____
ROOT
ATOM      1  C   UNL     1       8.814   1.660  23.460  0.00  0.00    +0.027 A 
ATOM      2  C   UNL     1       7.606   2.027  24.103  0.00  0.00    -0.027 A 
ATOM      3  C   UNL     1       6.924   1.051  24.866  0.00  0.00    +0.017 A 
ATOM      4  C   UNL     1       7.413  -0.265  24.990  0.00  0.00    +0.037 A 
ATOM      5  C   UNL     1       6.706  -1.227  25.865  0.00  0.00    +0.195 C 
ATOM      6  C   UNL     1       7.211  -2.612  25.985  0.00  0.00    +0.037 A 
ATOM      7  C   UNL     1       8.345  -3.019  25.283  0.00  0.00    +0.075 A 
ATOM      8  C   UNL     1       9.112  -2.021  24.503  0.00  0.00    +0.202 C 
ATOM      9  O   UNL     1      10.216  -2.322  24.071  0.00  0.00    -0.286 OA
ATOM     10  C   UNL     1       8.773  -4.356  25.391  0.00  0.00    +0.128 A 
ATOM     11  C   UNL     1       8.108  -5.255  26.225  0.00  0.00    +0.046 A 
ATOM     12  C   UNL     1       6.994  -4.834  26.945  0.00  0.00    +0.004 A 
ATOM     13  C   UNL     1       6.538  -3.520  26.819  0.00  0.00    +0.012 A 
ATOM     14  O   UNL     1       5.713  -0.874  26.486  0.00  0.00    -0.287 OA
ATOM     15  C   UNL     1       8.573  -0.645  24.330  0.00  0.00    +0.075 A 
ATOM     16  C   UNL     1       9.251   0.314  23.559  0.00  0.00    +0.134 A 
ENDROOT
BRANCH  10  17
ATOM     17  O   UNL     1       9.838  -4.815  24.670  0.00  0.00    -0.506 OA
ATOM     18  H   UNL     1      10.654  -4.790  25.192  0.00  0.00    +0.292 HD
ENDBRANCH  10  17
BRANCH  16  19
ATOM     19  O   UNL     1      10.393  -0.069  22.904  0.00  0.00    -0.506 OA
ATOM     20  H   UNL     1      10.675  -0.945  23.241  0.00  0.00    +0.292 HD
ENDBRANCH  16  19
BRANCH   1  21
ATOM     21  C   UNL     1       9.710   2.690  22.778  0.00  0.00    +0.151 C 
BRANCH  21  22
ATOM     22  O   UNL     1      10.098   2.200  21.486  0.00  0.00    -0.387 OA
ATOM     23  H   UNL     1       9.639   1.348  21.364  0.00  0.00    +0.210 HD
ENDBRANCH  21  22
BRANCH  21  24
ATOM     24  C   UNL     1      10.973   2.933  23.624  0.00  0.00    +0.067 C 
BRANCH  24  25
ATOM     25  C   UNL     1      11.413   4.398  23.580  0.00  0.00    +0.117 C 
BRANCH  25  26
ATOM     26  O   UNL     1      12.031   4.648  22.317  0.00  0.00    -0.392 OA
ATOM     27  H   UNL     1      12.935   4.294  22.353  0.00  0.00    +0.210 HD
ENDBRANCH  25  26
BRANCH  25  28
ATOM     28  C   UNL     1      10.238   5.361  23.789  0.00  0.00    +0.028 C 
ATOM     29  C   UNL     1      10.594   6.483  24.757  0.00  0.00    +0.006 C 
ENDBRANCH  25  28
ENDBRANCH  24  25
ENDBRANCH  21  24
ENDBRANCH   1  21
BRANCH   2  30
ATOM     30  C   UNL     1       7.041   3.445  24.087  0.00  0.00    +0.156 C 
BRANCH  30  31
ATOM     31  C   UNL     1       6.577   3.975  22.740  0.00  0.00    +0.311 C 
ATOM     32  O   UNL     1       6.993   4.980  22.182  0.00  0.00    -0.250 OA
BRANCH  31  33
ATOM     33  O   UNL     1       5.588   3.162  22.263  0.00  0.00    -0.468 OA
ATOM     34  C   UNL     1       4.279   3.321  22.829  0.00  0.00    +0.280 C 
ENDBRANCH  31  33
ENDBRANCH  30  31
ENDBRANCH   2  30
TORSDOF 11
ENDMDL
MODEL 6
REMARK VINA RESULT:      -6.1      3.012      4.965
REMARK  Name = 
REMARK  13 active torsions:
REMARK  status: ('A' for Active; 'I' for Inactive)
REMARK    1  A    between atoms: C_2  and  O_3
REMARK    2  A    between atoms: C_2  and  C_4
REMARK    3  A    between atoms: C_2  and  C_6
REMARK    4  A    between atoms: C_4  and  C_5
REMARK    5  A    between atoms: C_6  and  C_7
REMARK    6  A    between atoms: C_7  and  O_9
REMARK    7  A    between atoms: C_7  and  C_10
REMARK    8  A    between atoms: C_11  and  O_12
REMARK    9  A    between atoms: C_16  and  C_17
REMARK   10  A    between atoms: C_17  and  C_18
REMARK   11  A    between atoms: C_18  and  O_20
REMARK   12  A    between atoms: O_20  and  C_21
REMARK   13  A    between atoms: C_28  and  O_29
REMARK                            x       y       z     vdW  Elec       q    Type
REMARK                         _______ _______ _______ _____ _____    ______ ____
ROOT
ATOM      1  C   UNL     1       8.647  -1.080  24.262  0.00  0.00    +0.027 A 
ATOM      2  C   UNL     1       7.654  -0.925  25.261  0.00  0.00    -0.027 A 
ATOM      3  C   UNL     1       7.369   0.378  25.732  0.00  0.00    +0.017 A 
ATOM      4  C   UNL     1       8.050   1.508  25.239  0.00  0.00    +0.037 A 
ATOM      5  C   UNL     1       7.659   2.857  25.705  0.00  0.00    +0.195 C 
ATOM      6  C   UNL     1       8.382   4.043  25.198  0.00  0.00    +0.037 A 
ATOM      7  C   UNL     1       9.428   3.903  24.286  0.00  0.00    +0.075 A 
ATOM      8  C   UNL     1       9.735   2.563  23.737  0.00  0.00    +0.202 C 
ATOM      9  O   UNL     1      10.496   2.469  22.783  0.00  0.00    -0.286 OA
ATOM     10  C   UNL     1      10.119   5.052  23.856  0.00  0.00    +0.128 A 
ATOM     11  C   UNL     1       9.740   6.321  24.292  0.00  0.00    +0.046 A 
ATOM     12  C   UNL     1       8.676   6.456  25.180  0.00  0.00    +0.004 A 
ATOM     13  C   UNL     1       8.005   5.321  25.642  0.00  0.00    +0.012 A 
ATOM     14  O   UNL     1       6.740   2.987  26.503  0.00  0.00    -0.287 OA
ATOM     15  C   UNL     1       9.053   1.362  24.291  0.00  0.00    +0.075 A 
ATOM     16  C   UNL     1       9.353   0.071  23.826  0.00  0.00    +0.134 A 
ENDROOT
BRANCH  10  17
ATOM     17  O   UNL     1      11.192   4.955  23.016  0.00  0.00    -0.506 OA
ATOM     18  H   UNL     1      11.533   5.830  22.779  0.00  0.00    +0.292 HD
ENDBRANCH  10  17
BRANCH  16  19
ATOM     19  O   UNL     1      10.349  -0.068  22.893  0.00  0.00    -0.506 OA
ATOM     20  H   UNL     1      10.345  -0.989  22.559  0.00  0.00    +0.292 HD
ENDBRANCH  16  19
BRANCH   1  21
ATOM     21  C   UNL     1       8.886  -2.415  23.563  0.00  0.00    +0.151 C 
BRANCH  21  22
ATOM     22  O   UNL     1      10.295  -2.599  23.360  0.00  0.00    -0.387 OA
ATOM     23  H   UNL     1      10.576  -3.294  23.986  0.00  0.00    +0.210 HD
ENDBRANCH  21  22
BRANCH  21  24
ATOM     24  C   UNL     1       8.176  -2.429  22.196  0.00  0.00    +0.067 C 
BRANCH  24  25
ATOM     25  C   UNL     1       7.118  -3.532  22.118  0.00  0.00    +0.117 C 
BRANCH  25  26
ATOM     26  O   UNL     1       7.382  -4.487  23.147  0.00  0.00    -0.392 OA
ATOM     27  H   UNL     1       6.745  -5.215  23.048  0.00  0.00    +0.210 HD
ENDBRANCH  25  26
BRANCH  25  28
ATOM     28  C   UNL     1       5.695  -2.981  22.266  0.00  0.00    +0.028 C 
ATOM     29  C   UNL     1       4.831  -3.880  23.141  0.00  0.00    +0.006 C 
ENDBRANCH  25  28
ENDBRANCH  24  25
ENDBRANCH  21  24
ENDBRANCH   1  21
BRANCH   2  30
ATOM     30  C   UNL     1       6.814  -2.081  25.799  0.00  0.00    +0.156 C 
BRANCH  30  31
ATOM     31  C   UNL     1       7.554  -3.145  26.593  0.00  0.00    +0.311 C 
ATOM     32  O   UNL     1       8.759  -3.183  26.794  0.00  0.00    -0.250 OA
BRANCH  31  33
ATOM     33  O   UNL     1       6.655  -4.081  27.021  0.00  0.00    -0.468 OA
ATOM     34  C   UNL     1       7.166  -5.381  27.345  0.00  0.00    +0.280 C 
ENDBRANCH  31  33
ENDBRANCH  30  31
ENDBRANCH   2  30
TORSDOF 11
ENDMDL
MODEL 7
REMARK VINA RESULT:      -6.1      2.508      4.478
REMARK  Name = 
REMARK  13 active torsions:
REMARK  status: ('A' for Active; 'I' for Inactive)
REMARK    1  A    between atoms: C_2  and  O_3
REMARK    2  A    between atoms: C_2  and  C_4
REMARK    3  A    between atoms: C_2  and  C_6
REMARK    4  A    between atoms: C_4  and  C_5
REMARK    5  A    between atoms: C_6  and  C_7
REMARK    6  A    between atoms: C_7  and  O_9
REMARK    7  A    between atoms: C_7  and  C_10
REMARK    8  A    between atoms: C_11  and  O_12
REMARK    9  A    between atoms: C_16  and  C_17
REMARK   10  A    between atoms: C_17  and  C_18
REMARK   11  A    between atoms: C_18  and  O_20
REMARK   12  A    between atoms: O_20  and  C_21
REMARK   13  A    between atoms: C_28  and  O_29
REMARK                            x       y       z     vdW  Elec       q    Type
REMARK                         _______ _______ _______ _____ _____    ______ ____
ROOT
ATOM      1  C   UNL     1       5.502  -2.410  24.504  0.00  0.00    +0.027 A 
ATOM      2  C   UNL     1       6.237  -2.974  23.431  0.00  0.00    -0.027 A 
ATOM      3  C   UNL     1       7.285  -2.215  22.860  0.00  0.00    +0.017 A 
ATOM      4  C   UNL     1       7.603  -0.924  23.326  0.00  0.00    +0.037 A 
ATOM      5  C   UNL     1       8.760  -0.204  22.750  0.00  0.00    +0.195 C 
ATOM      6  C   UNL     1       9.086   1.156  23.229  0.00  0.00    +0.037 A 
ATOM      7  C   UNL     1       8.315   1.766  24.218  0.00  0.00    +0.075 A 
ATOM      8  C   UNL     1       7.232   0.996  24.870  0.00  0.00    +0.202 C 
ATOM      9  O   UNL     1       6.703   1.445  25.878  0.00  0.00    -0.286 OA
ATOM     10  C   UNL     1       8.631   3.078  24.620  0.00  0.00    +0.128 A 
ATOM     11  C   UNL     1       9.728   3.747  24.080  0.00  0.00    +0.046 A 
ATOM     12  C   UNL     1      10.512   3.121  23.115  0.00  0.00    +0.004 A 
ATOM     13  C   UNL     1      10.187   1.834  22.681  0.00  0.00    +0.012 A 
ATOM     14  O   UNL     1       9.443  -0.736  21.885  0.00  0.00    -0.287 OA
ATOM     15  C   UNL     1       6.862  -0.348  24.349  0.00  0.00    +0.075 A 
ATOM     16  C   UNL     1       5.810  -1.088  24.914  0.00  0.00    +0.134 A 
ENDROOT
BRANCH  10  17
ATOM     17  O   UNL     1       7.862   3.738  25.537  0.00  0.00    -0.506 OA
ATOM     18  H   UNL     1       6.919   3.643  25.339  0.00  0.00    +0.292 HD
ENDBRANCH  10  17
BRANCH  16  19
ATOM     19  O   UNL     1       5.077  -0.511  25.919  0.00  0.00    -0.506 OA
ATOM     20  H   UNL     1       5.147   0.464  25.845  0.00  0.00    +0.292 HD
ENDBRANCH  16  19
BRANCH   1  21
ATOM     21  C   UNL     1       4.487  -3.224  25.301  0.00  0.00    +0.151 C 
BRANCH  21  22
ATOM     22  O   UNL     1       3.299  -2.443  25.495  0.00  0.00    -0.387 OA
ATOM     23  H   UNL     1       2.900  -2.322  24.612  0.00  0.00    +0.210 HD
ENDBRANCH  21  22
BRANCH  21  24
ATOM     24  C   UNL     1       5.072  -3.598  26.675  0.00  0.00    +0.067 C 
BRANCH  24  25
ATOM     25  C   UNL     1       4.720  -5.033  27.072  0.00  0.00    +0.117 C 
BRANCH  25  26
ATOM     26  O   UNL     1       3.319  -5.227  26.871  0.00  0.00    -0.392 OA
ATOM     27  H   UNL     1       2.880  -4.367  26.982  0.00  0.00    +0.210 HD
ENDBRANCH  25  26
BRANCH  25  28
ATOM     28  C   UNL     1       5.514  -6.067  26.265  0.00  0.00    +0.028 C 
ATOM     29  C   UNL     1       4.604  -6.912  25.382  0.00  0.00    +0.006 C 
ENDBRANCH  25  28
ENDBRANCH  24  25
ENDBRANCH  21  24
ENDBRANCH   1  21
BRANCH   2  30
ATOM     30  C   UNL     1       6.014  -4.392  22.912  0.00  0.00    +0.156 C 
BRANCH  30  31
ATOM     31  C   UNL     1       7.218  -5.319  22.932  0.00  0.00    +0.311 C 
ATOM     32  O   UNL     1       8.048  -5.399  23.825  0.00  0.00    -0.250 OA
BRANCH  31  33
ATOM     33  O   UNL     1       7.246  -6.031  21.766  0.00  0.00    -0.468 OA
ATOM     34  C   UNL     1       6.190  -5.793  20.825  0.00  0.00    +0.280 C 
ENDBRANCH  31  33
ENDBRANCH  30  31
ENDBRANCH   2  30
TORSDOF 11
ENDMDL
MODEL 8
REMARK VINA RESULT:      -6.0      2.238      7.891
REMARK  Name = 
REMARK  13 active torsions:
REMARK  status: ('A' for Active; 'I' for Inactive)
REMARK    1  A    between atoms: C_2  and  O_3
REMARK    2  A    between atoms: C_2  and  C_4
REMARK    3  A    between atoms: C_2  and  C_6
REMARK    4  A    between atoms: C_4  and  C_5
REMARK    5  A    between atoms: C_6  and  C_7
REMARK    6  A    between atoms: C_7  and  O_9
REMARK    7  A    between atoms: C_7  and  C_10
REMARK    8  A    between atoms: C_11  and  O_12
REMARK    9  A    between atoms: C_16  and  C_17
REMARK   10  A    between atoms: C_17  and  C_18
REMARK   11  A    between atoms: C_18  and  O_20
REMARK   12  A    between atoms: O_20  and  C_21
REMARK   13  A    between atoms: C_28  and  O_29
REMARK                            x       y       z     vdW  Elec       q    Type
REMARK                         _______ _______ _______ _____ _____    ______ ____
ROOT
ATOM      1  C   UNL     1       7.904  -0.719  24.740  0.00  0.00    +0.027 A 
ATOM      2  C   UNL     1       7.497  -0.657  23.384  0.00  0.00    -0.027 A 
ATOM      3  C   UNL     1       6.710  -1.711  22.866  0.00  0.00    +0.017 A 
ATOM      4  C   UNL     1       6.335  -2.812  23.661  0.00  0.00    +0.037 A 
ATOM      5  C   UNL     1       5.443  -3.850  23.096  0.00  0.00    +0.195 C 
ATOM      6  C   UNL     1       5.058  -5.012  23.925  0.00  0.00    +0.037 A 
ATOM      7  C   UNL     1       5.527  -5.140  25.233  0.00  0.00    +0.075 A 
ATOM      8  C   UNL     1       6.322  -4.043  25.827  0.00  0.00    +0.202 C 
ATOM      9  O   UNL     1       6.547  -4.051  27.031  0.00  0.00    -0.286 OA
ATOM     10  C   UNL     1       5.173  -6.281  25.978  0.00  0.00    +0.128 A 
ATOM     11  C   UNL     1       4.324  -7.250  25.443  0.00  0.00    +0.046 A 
ATOM     12  C   UNL     1       3.836  -7.101  24.148  0.00  0.00    +0.004 A 
ATOM     13  C   UNL     1       4.210  -5.992  23.385  0.00  0.00    +0.012 A 
ATOM     14  O   UNL     1       5.025  -3.740  21.951  0.00  0.00    -0.287 OA
ATOM     15  C   UNL     1       6.762  -2.903  24.978  0.00  0.00    +0.075 A 
ATOM     16  C   UNL     1       7.556  -1.867  25.498  0.00  0.00    +0.134 A 
ENDROOT
BRANCH  10  17
ATOM     17  O   UNL     1       5.663  -6.480  27.237  0.00  0.00    -0.506 OA
ATOM     18  H   UNL     1       5.890  -5.640  27.663  0.00  0.00    +0.292 HD
ENDBRANCH  10  17
BRANCH  16  19
ATOM     19  O   UNL     1       7.981  -1.964  26.798  0.00  0.00    -0.506 OA
ATOM     20  H   UNL     1       8.471  -1.149  27.034  0.00  0.00    +0.292 HD
ENDBRANCH  16  19
BRANCH   1  21
ATOM     21  C   UNL     1       8.590   0.456  25.431  0.00  0.00    +0.151 C 
BRANCH  21  22
ATOM     22  O   UNL     1       9.784  -0.006  26.079  0.00  0.00    -0.387 OA
ATOM     23  H   UNL     1      10.117  -0.752  25.546  0.00  0.00    +0.210 HD
ENDBRANCH  21  22
BRANCH  21  24
ATOM     24  C   UNL     1       7.650   1.068  26.487  0.00  0.00    +0.067 C 
BRANCH  24  25
ATOM     25  C   UNL     1       7.260   2.505  26.135  0.00  0.00    +0.117 C 
BRANCH  25  26
ATOM     26  O   UNL     1       8.420   3.182  25.647  0.00  0.00    -0.392 OA
ATOM     27  H   UNL     1       8.198   3.565  24.781  0.00  0.00    +0.210 HD
ENDBRANCH  25  26
BRANCH  25  28
ATOM     28  C   UNL     1       6.141   2.562  25.089  0.00  0.00    +0.028 C 
ATOM     29  C   UNL     1       6.426   3.604  24.015  0.00  0.00    +0.006 C 
ENDBRANCH  25  28
ENDBRANCH  24  25
ENDBRANCH  21  24
ENDBRANCH   1  21
BRANCH   2  30
ATOM     30  C   UNL     1       7.793   0.531  22.471  0.00  0.00    +0.156 C 
BRANCH  30  31
ATOM     31  C   UNL     1       9.085   0.467  21.672  0.00  0.00    +0.311 C 
ATOM     32  O   UNL     1       9.590  -0.542  21.205  0.00  0.00    -0.250 OA
BRANCH  31  33
ATOM     33  O   UNL     1       9.614   1.724  21.589  0.00  0.00    -0.468 OA
ATOM     34  C   UNL     1      10.165   2.285  22.788  0.00  0.00    +0.280 C 
ENDBRANCH  31  33
ENDBRANCH  30  31
ENDBRANCH   2  30
TORSDOF 11
ENDMDL
MODEL 9
REMARK VINA RESULT:      -5.9      3.627      7.685
REMARK  Name = 
REMARK  13 active torsions:
REMARK  status: ('A' for Active; 'I' for Inactive)
REMARK    1  A    between atoms: C_2  and  O_3
REMARK    2  A    between atoms: C_2  and  C_4
REMARK    3  A    between atoms: C_2  and  C_6
REMARK    4  A    between atoms: C_4  and  C_5
REMARK    5  A    between atoms: C_6  and  C_7
REMARK    6  A    between atoms: C_7  and  O_9
REMARK    7  A    between atoms: C_7  and  C_10
REMARK    8  A    between atoms: C_11  and  O_12
REMARK    9  A    between atoms: C_16  and  C_17
REMARK   10  A    between atoms: C_17  and  C_18
REMARK   11  A    between atoms: C_18  and  O_20
REMARK   12  A    between atoms: O_20  and  C_21
REMARK   13  A    between atoms: C_28  and  O_29
REMARK                            x       y       z     vdW  Elec       q    Type
REMARK                         _______ _______ _______ _____ _____    ______ ____
ROOT
ATOM      1  C   UNL     1       7.134   1.144  22.936  0.00  0.00    +0.027 A 
ATOM      2  C   UNL     1       6.133   1.500  23.874  0.00  0.00    -0.027 A 
ATOM      3  C   UNL     1       5.774   0.560  24.867  0.00  0.00    +0.017 A 
ATOM      4  C   UNL     1       6.377  -0.711  24.934  0.00  0.00    +0.037 A 
ATOM      5  C   UNL     1       6.025  -1.629  26.041  0.00  0.00    +0.195 C 
ATOM      6  C   UNL     1       6.649  -2.968  26.106  0.00  0.00    +0.037 A 
ATOM      7  C   UNL     1       7.565  -3.374  25.136  0.00  0.00    +0.075 A 
ATOM      8  C   UNL     1       7.999  -2.409  24.100  0.00  0.00    +0.202 C 
ATOM      9  O   UNL     1       8.955  -2.686  23.389  0.00  0.00    -0.286 OA
ATOM     10  C   UNL     1       8.108  -4.671  25.208  0.00  0.00    +0.128 A 
ATOM     11  C   UNL     1       7.779  -5.527  26.258  0.00  0.00    +0.046 A 
ATOM     12  C   UNL     1       6.886  -5.105  27.239  0.00  0.00    +0.004 A 
ATOM     13  C   UNL     1       6.313  -3.834  27.159  0.00  0.00    +0.012 A 
ATOM     14  O   UNL     1       5.225  -1.276  26.897  0.00  0.00    -0.287 OA
ATOM     15  C   UNL     1       7.329  -1.085  23.995  0.00  0.00    +0.075 A 
ATOM     16  C   UNL     1       7.683  -0.162  22.997  0.00  0.00    +0.134 A 
ENDROOT
BRANCH  10  17
ATOM     17  O   UNL     1       8.957  -5.134  24.242  0.00  0.00    -0.506 OA
ATOM     18  H   UNL     1       9.098  -4.471  23.550  0.00  0.00    +0.292 HD
ENDBRANCH  10  17
BRANCH  16  19
ATOM     19  O   UNL     1       8.619  -0.539  22.067  0.00  0.00    -0.506 OA
ATOM     20  H   UNL     1       8.693  -1.516  22.069  0.00  0.00    +0.292 HD
ENDBRANCH  16  19
BRANCH   1  21
ATOM     21  C   UNL     1       7.716   2.157  21.954  0.00  0.00    +0.151 C 
BRANCH  21  22
ATOM     22  O   UNL     1       8.457   1.463  20.940  0.00  0.00    -0.387 OA
ATOM     23  H   UNL     1       9.394   1.490  21.214  0.00  0.00    +0.210 HD
ENDBRANCH  21  22
BRANCH  21  24
ATOM     24  C   UNL     1       8.659   3.124  22.693  0.00  0.00    +0.067 C 
BRANCH  24  25
ATOM     25  C   UNL     1      10.040   2.505  22.924  0.00  0.00    +0.117 C 
BRANCH  25  26
ATOM     26  O   UNL     1      11.033   3.484  22.617  0.00  0.00    -0.392 OA
ATOM     27  H   UNL     1      10.643   4.117  21.990  0.00  0.00    +0.210 HD
ENDBRANCH  25  26
BRANCH  25  28
ATOM     28  C   UNL     1      10.217   2.011  24.365  0.00  0.00    +0.028 C 
ATOM     29  C   UNL     1      10.972   0.688  24.418  0.00  0.00    +0.006 C 
ENDBRANCH  25  28
ENDBRANCH  24  25
ENDBRANCH  21  24
ENDBRANCH   1  21
BRANCH   2  30
ATOM     30  C   UNL     1       5.479   2.879  23.923  0.00  0.00    +0.156 C 
BRANCH  30  31
ATOM     31  C   UNL     1       4.034   2.961  23.461  0.00  0.00    +0.311 C 
ATOM     32  O   UNL     1       3.047   2.753  24.150  0.00  0.00    -0.250 OA
BRANCH  31  33
ATOM     33  O   UNL     1       4.013   3.273  22.130  0.00  0.00    -0.468 OA
ATOM     34  C   UNL     1       2.776   3.759  21.590  0.00  0.00    +0.280 C 
ENDBRANCH  31  33
ENDBRANCH  30  31
ENDBRANCH   2  30
TORSDOF 11
ENDMDL
