MODEL 1
REMARK VINA RESULT:      -6.6      0.000      0.000
REMARK  Name = 
REMARK  18 active torsions:
REMARK  status: ('A' for Active; 'I' for Inactive)
REMARK    1  A    between atoms: O_1  and  C_2
REMARK    2  A    between atoms: C_2  and  C_3
REMARK    3  A    between atoms: C_6  and  O_8
REMARK    4  A    between atoms: O_8  and  C_9
REMARK    5  A    between atoms: C_11  and  O_13
REMARK    6  A    between atoms: C_14  and  O_16
REMARK    7  A    between atoms: C_17  and  O_19
REMARK    8  A    between atoms: O_19  and  C_20
REMARK    9  A    between atoms: C_22  and  O_24
REMARK   10  A    between atoms: C_25  and  O_27
REMARK   11  A    between atoms: C_28  and  O_30
REMARK   12  A    between atoms: C_32  and  C_34
REMARK   13  A    between atoms: C_34  and  O_35
REMARK   14  A    between atoms: C_37  and  C_39
REMARK   15  A    between atoms: C_39  and  O_40
REMARK   16  A    between atoms: C_41  and  O_43
REMARK   17  A    between atoms: C_44  and  O_46
REMARK   18  A    between atoms: C_47  and  O_49
REMARK                            x       y       z     vdW  Elec       q    Type
REMARK                         _______ _______ _______ _____ _____    ______ ____
ROOT
ATOM      1  C   UNL     1       5.661  -4.723  24.130  0.00  0.00    +0.183 C 
ATOM      2  C   UNL     1       6.581  -4.467  22.830  0.00  0.00    +0.178 C 
ATOM      3  O   UNL     1       7.856  -3.797  23.040  0.00  0.00    -0.341 OA
ATOM      4  C   UNL     1       7.894  -2.661  23.945  0.00  0.00    +0.282 C 
ATOM      5  C   UNL     1       6.985  -2.907  25.126  0.00  0.00    +0.201 C 
ATOM      6  C   UNL     1       5.547  -3.292  24.634  0.00  0.00    +0.179 C 
ENDROOT
BRANCH   6   7
ATOM      7  O   UNL     1       4.995  -2.436  23.625  0.00  0.00    -0.386 OA
ATOM      8  H   UNL     1       5.343  -2.727  22.760  0.00  0.00    +0.210 HD
ENDBRANCH   6   7
BRANCH   5   9
ATOM      9  O   UNL     1       7.746  -3.871  25.900  0.00  0.00    -0.384 OA
ATOM     10  H   UNL     1       7.807  -3.520  26.811  0.00  0.00    +0.210 HD
ENDBRANCH   5   9
BRANCH   4  11
ATOM     11  O   UNL     1       7.711  -1.354  23.392  0.00  0.00    -0.340 OA
BRANCH  11  12
ATOM     12  C   UNL     1       8.642  -0.370  23.897  0.00  0.00    +0.183 C 
ATOM     13  C   UNL     1       8.078   1.060  23.697  0.00  0.00    +0.178 C 
ATOM     14  O   UNL     1       7.921   1.345  22.306  0.00  0.00    -0.341 OA
ATOM     15  C   UNL     1       9.147   1.253  21.561  0.00  0.00    +0.279 C 
ATOM     16  C   UNL     1       9.952  -0.061  21.752  0.00  0.00    +0.201 C 
ATOM     17  C   UNL     1      10.054  -0.376  23.244  0.00  0.00    +0.179 C 
BRANCH  17  18
ATOM     18  O   UNL     1      10.925   0.558  23.912  0.00  0.00    -0.386 OA
ATOM     19  H   UNL     1      11.670   0.054  24.308  0.00  0.00    +0.210 HD
ENDBRANCH  17  18
BRANCH  16  20
ATOM     20  O   UNL     1       9.379  -1.131  21.013  0.00  0.00    -0.384 OA
ATOM     21  H   UNL     1       8.676  -0.780  20.440  0.00  0.00    +0.210 HD
ENDBRANCH  16  20
BRANCH  15  22
ATOM     22  O   UNL     1      10.003   2.342  21.911  0.00  0.00    -0.365 OA
ATOM     23  H   UNL     1      10.898   1.962  21.964  0.00  0.00    +0.213 HD
ENDBRANCH  15  22
BRANCH  13  24
ATOM     24  C   UNL     1       6.755   1.216  24.464  0.00  0.00    +0.190 C 
BRANCH  24  25
ATOM     25  O   UNL     1       5.719   0.423  23.868  0.00  0.00    -0.392 OA
ATOM     26  H   UNL     1       6.138  -0.137  23.183  0.00  0.00    +0.210 HD
ENDBRANCH  24  25
ENDBRANCH  13  24
ENDBRANCH  11  12
ENDBRANCH   4  11
BRANCH   2  27
ATOM     27  C   UNL     1       6.798  -5.619  21.836  0.00  0.00    +0.190 C 
BRANCH  27  28
ATOM     28  O   UNL     1       5.964  -6.739  22.214  0.00  0.00    -0.392 OA
ATOM     29  H   UNL     1       6.550  -7.508  22.361  0.00  0.00    +0.210 HD
ENDBRANCH  27  28
ENDBRANCH   2  27
BRANCH   1  30
ATOM     30  O   UNL     1       6.086  -5.618  25.243  0.00  0.00    -0.340 OA
BRANCH  30  35
ATOM     31  C   UNL     1       2.936  -7.590  24.660  0.00  0.00    +0.178 C 
ATOM     32  C   UNL     1       2.096  -7.269  25.890  0.00  0.00    +0.177 C 
ATOM     33  C   UNL     1       2.720  -6.175  26.781  0.00  0.00    +0.179 C 
ATOM     34  C   UNL     1       4.260  -6.251  26.944  0.00  0.00    +0.201 C 
ATOM     35  C   UNL     1       5.040  -6.657  25.655  0.00  0.00    +0.282 C 
ATOM     36  O   UNL     1       4.119  -6.822  24.597  0.00  0.00    -0.341 OA
BRANCH  34  37
ATOM     37  O   UNL     1       4.503  -7.230  27.976  0.00  0.00    -0.384 OA
ATOM     38  H   UNL     1       3.670  -7.335  28.471  0.00  0.00    +0.210 HD
ENDBRANCH  34  37
BRANCH  33  39
ATOM     39  O   UNL     1       2.300  -4.868  26.373  0.00  0.00    -0.386 OA
ATOM     40  H   UNL     1       1.506  -4.625  26.887  0.00  0.00    +0.210 HD
ENDBRANCH  33  39
BRANCH  32  41
ATOM     41  O   UNL     1       1.950  -8.515  26.596  0.00  0.00    -0.386 OA
ATOM     42  H   UNL     1       2.824  -8.774  26.933  0.00  0.00    +0.210 HD
ENDBRANCH  32  41
BRANCH  31  43
ATOM     43  C   UNL     1       2.140  -7.293  23.359  0.00  0.00    +0.190 C 
BRANCH  43  44
ATOM     44  O   UNL     1       2.923  -6.530  22.440  0.00  0.00    -0.392 OA
ATOM     45  H   UNL     1       2.695  -6.801  21.534  0.00  0.00    +0.210 HD
ENDBRANCH  43  44
ENDBRANCH  31  43
ENDBRANCH  30  35
ENDBRANCH   1  30
TORSDOF 18
ENDMDL
MODEL 2
REMARK VINA RESULT:      -6.6      2.085      3.611
REMARK  Name = 
REMARK  18 active torsions:
REMARK  status: ('A' for Active; 'I' for Inactive)
REMARK    1  A    between atoms: O_1  and  C_2
REMARK    2  A    between atoms: C_2  and  C_3
REMARK    3  A    between atoms: C_6  and  O_8
REMARK    4  A    between atoms: O_8  and  C_9
REMARK    5  A    between atoms: C_11  and  O_13
REMARK    6  A    between atoms: C_14  and  O_16
REMARK    7  A    between atoms: C_17  and  O_19
REMARK    8  A    between atoms: O_19  and  C_20
REMARK    9  A    between atoms: C_22  and  O_24
REMARK   10  A    between atoms: C_25  and  O_27
REMARK   11  A    between atoms: C_28  and  O_30
REMARK   12  A    between atoms: C_32  and  C_34
REMARK   13  A    between atoms: C_34  and  O_35
REMARK   14  A    between atoms: C_37  and  C_39
REMARK   15  A    between atoms: C_39  and  O_40
REMARK   16  A    between atoms: C_41  and  O_43
REMARK   17  A    between atoms: C_44  and  O_46
REMARK   18  A    between atoms: C_47  and  O_49
REMARK                            x       y       z     vdW  Elec       q    Type
REMARK                         _______ _______ _______ _____ _____    ______ ____
ROOT
ATOM      1  C   UNL     1       7.785  -2.420  23.773  0.00  0.00    +0.183 C 
ATOM      2  C   UNL     1       8.883  -1.281  23.454  0.00  0.00    +0.178 C 
ATOM      3  O   UNL     1       9.150  -0.305  24.501  0.00  0.00    -0.341 OA
ATOM      4  C   UNL     1       8.021   0.240  25.234  0.00  0.00    +0.282 C 
ATOM      5  C   UNL     1       6.988  -0.833  25.473  0.00  0.00    +0.201 C 
ATOM      6  C   UNL     1       6.603  -1.528  24.120  0.00  0.00    +0.179 C 
ENDROOT
BRANCH   6   7
ATOM      7  O   UNL     1       6.298  -0.637  23.040  0.00  0.00    -0.386 OA
ATOM      8  H   UNL     1       6.668  -1.020  22.221  0.00  0.00    +0.210 HD
ENDBRANCH   6   7
BRANCH   5   9
ATOM      9  O   UNL     1       7.608  -1.626  26.520  0.00  0.00    -0.384 OA
ATOM     10  H   UNL     1       8.012  -2.404  26.086  0.00  0.00    +0.210 HD
ENDBRANCH   5   9
BRANCH   4  11
ATOM     11  O   UNL     1       7.432   1.454  24.756  0.00  0.00    -0.340 OA
BRANCH  11  12
ATOM     12  C   UNL     1       8.379   2.532  24.574  0.00  0.00    +0.183 C 
ATOM     13  C   UNL     1       7.673   3.903  24.728  0.00  0.00    +0.178 C 
ATOM     14  O   UNL     1       6.684   4.073  23.712  0.00  0.00    -0.341 OA
ATOM     15  C   UNL     1       7.215   4.004  22.378  0.00  0.00    +0.279 C 
ATOM     16  C   UNL     1       8.095   2.763  22.067  0.00  0.00    +0.201 C 
ATOM     17  C   UNL     1       9.105   2.568  23.198  0.00  0.00    +0.179 C 
BRANCH  17  18
ATOM     18  O   UNL     1      10.108   3.604  23.181  0.00  0.00    -0.386 OA
ATOM     19  H   UNL     1      10.580   3.588  24.043  0.00  0.00    +0.210 HD
ENDBRANCH  17  18
BRANCH  16  20
ATOM     20  O   UNL     1       7.298   1.607  21.850  0.00  0.00    -0.384 OA
ATOM     21  H   UNL     1       7.724   1.050  21.175  0.00  0.00    +0.210 HD
ENDBRANCH  16  20
BRANCH  15  22
ATOM     22  O   UNL     1       7.999   5.170  22.115  0.00  0.00    -0.365 OA
ATOM     23  H   UNL     1       7.543   5.630  21.388  0.00  0.00    +0.213 HD
ENDBRANCH  15  22
BRANCH  13  24
ATOM     24  C   UNL     1       7.072   4.030  26.137  0.00  0.00    +0.190 C 
BRANCH  24  25
ATOM     25  O   UNL     1       7.722   3.140  27.054  0.00  0.00    -0.392 OA
ATOM     26  H   UNL     1       7.970   3.663  27.843  0.00  0.00    +0.210 HD
ENDBRANCH  24  25
ENDBRANCH  13  24
ENDBRANCH  11  12
ENDBRANCH   4  11
BRANCH   2  27
ATOM     27  C   UNL     1      10.224  -1.698  22.828  0.00  0.00    +0.190 C 
BRANCH  27  28
ATOM     28  O   UNL     1      10.160  -1.509  21.395  0.00  0.00    -0.392 OA
ATOM     29  H   UNL     1       9.250  -1.225  21.174  0.00  0.00    +0.210 HD
ENDBRANCH  27  28
ENDBRANCH   2  27
BRANCH   1  30
ATOM     30  O   UNL     1       7.981  -3.440  24.842  0.00  0.00    -0.340 OA
BRANCH  30  35
ATOM     31  C   UNL     1       6.289  -5.959  22.620  0.00  0.00    +0.178 C 
ATOM     32  C   UNL     1       4.902  -6.087  23.238  0.00  0.00    +0.177 C 
ATOM     33  C   UNL     1       4.645  -5.065  24.365  0.00  0.00    +0.179 C 
ATOM     34  C   UNL     1       5.846  -4.800  25.308  0.00  0.00    +0.201 C 
ATOM     35  C   UNL     1       7.238  -4.756  24.605  0.00  0.00    +0.282 C 
ATOM     36  O   UNL     1       7.055  -4.934  23.215  0.00  0.00    -0.341 OA
BRANCH  34  37
ATOM     37  O   UNL     1       5.835  -5.869  26.277  0.00  0.00    -0.384 OA
ATOM     38  H   UNL     1       6.475  -6.538  25.971  0.00  0.00    +0.210 HD
ENDBRANCH  34  37
BRANCH  33  39
ATOM     39  O   UNL     1       4.106  -3.843  23.846  0.00  0.00    -0.386 OA
ATOM     40  H   UNL     1       4.334  -3.120  24.463  0.00  0.00    +0.210 HD
ENDBRANCH  33  39
BRANCH  32  41
ATOM     41  O   UNL     1       4.814  -7.443  23.716  0.00  0.00    -0.386 OA
ATOM     42  H   UNL     1       5.629  -7.643  24.206  0.00  0.00    +0.210 HD
ENDBRANCH  32  41
BRANCH  31  43
ATOM     43  C   UNL     1       6.187  -5.620  21.107  0.00  0.00    +0.190 C 
BRANCH  43  44
ATOM     44  O   UNL     1       5.675  -4.302  20.909  0.00  0.00    -0.392 OA
ATOM     45  H   UNL     1       4.892  -4.352  20.335  0.00  0.00    +0.210 HD
ENDBRANCH  43  44
ENDBRANCH  31  43
ENDBRANCH  30  35
ENDBRANCH   1  30
TORSDOF 18
ENDMDL
MODEL 3
REMARK VINA RESULT:      -6.5      2.034      8.651
REMARK  Name = 
REMARK  18 active torsions:
REMARK  status: ('A' for Active; 'I' for Inactive)
REMARK    1  A    between atoms: O_1  and  C_2
REMARK    2  A    between atoms: C_2  and  C_3
REMARK    3  A    between atoms: C_6  and  O_8
REMARK    4  A    between atoms: O_8  and  C_9
REMARK    5  A    between atoms: C_11  and  O_13
REMARK    6  A    between atoms: C_14  and  O_16
REMARK    7  A    between atoms: C_17  and  O_19
REMARK    8  A    between atoms: O_19  and  C_20
REMARK    9  A    between atoms: C_22  and  O_24
REMARK   10  A    between atoms: C_25  and  O_27
REMARK   11  A    between atoms: C_28  and  O_30
REMARK   12  A    between atoms: C_32  and  C_34
REMARK   13  A    between atoms: C_34  and  O_35
REMARK   14  A    between atoms: C_37  and  C_39
REMARK   15  A    between atoms: C_39  and  O_40
REMARK   16  A    between atoms: C_41  and  O_43
REMARK   17  A    between atoms: C_44  and  O_46
REMARK   18  A    between atoms: C_47  and  O_49
REMARK                            x       y       z     vdW  Elec       q    Type
REMARK                         _______ _______ _______ _____ _____    ______ ____
ROOT
ATOM      1  C   UNL     1       8.158  -0.358  24.470  0.00  0.00    +0.183 C 
ATOM      2  C   UNL     1       7.875  -1.676  25.357  0.00  0.00    +0.178 C 
ATOM      3  O   UNL     1       8.158  -2.964  24.741  0.00  0.00    -0.341 OA
ATOM      4  C   UNL     1       7.763  -3.164  23.358  0.00  0.00    +0.282 C 
ATOM      5  C   UNL     1       7.991  -1.901  22.564  0.00  0.00    +0.201 C 
ATOM      6  C   UNL     1       7.291  -0.685  23.264  0.00  0.00    +0.179 C 
ENDROOT
BRANCH   6   7
ATOM      7  O   UNL     1       5.930  -0.905  23.657  0.00  0.00    -0.386 OA
ATOM      8  H   UNL     1       5.775  -1.869  23.679  0.00  0.00    +0.210 HD
ENDBRANCH   6   7
BRANCH   5   9
ATOM      9  O   UNL     1       9.435  -1.891  22.414  0.00  0.00    -0.384 OA
ATOM     10  H   UNL     1       9.776  -1.180  22.991  0.00  0.00    +0.210 HD
ENDBRANCH   5   9
BRANCH   4  11
ATOM     11  O   UNL     1       6.475  -3.733  23.102  0.00  0.00    -0.340 OA
BRANCH  11  12
ATOM     12  C   UNL     1       6.258  -5.007  23.751  0.00  0.00    +0.183 C 
ATOM     13  C   UNL     1       5.458  -5.957  22.824  0.00  0.00    +0.178 C 
ATOM     14  O   UNL     1       4.160  -5.424  22.561  0.00  0.00    -0.341 OA
ATOM     15  C   UNL     1       3.377  -5.213  23.748  0.00  0.00    +0.279 C 
ATOM     16  C   UNL     1       4.071  -4.404  24.878  0.00  0.00    +0.201 C 
ATOM     17  C   UNL     1       5.480  -4.956  25.097  0.00  0.00    +0.179 C 
BRANCH  17  18
ATOM     18  O   UNL     1       5.436  -6.261  25.707  0.00  0.00    -0.386 OA
ATOM     19  H   UNL     1       5.901  -6.212  26.572  0.00  0.00    +0.210 HD
ENDBRANCH  17  18
BRANCH  16  20
ATOM     20  O   UNL     1       4.075  -3.013  24.589  0.00  0.00    -0.384 OA
ATOM     21  H   UNL     1       3.623  -2.863  23.741  0.00  0.00    +0.210 HD
ENDBRANCH  16  20
BRANCH  15  22
ATOM     22  O   UNL     1       2.987  -6.475  24.295  0.00  0.00    -0.365 OA
ATOM     23  H   UNL     1       2.480  -6.264  25.098  0.00  0.00    +0.213 HD
ENDBRANCH  15  22
BRANCH  13  24
ATOM     24  C   UNL     1       6.243  -6.211  21.526  0.00  0.00    +0.190 C 
BRANCH  24  25
ATOM     25  O   UNL     1       5.967  -5.196  20.552  0.00  0.00    -0.392 OA
ATOM     26  H   UNL     1       6.404  -4.374  20.855  0.00  0.00    +0.210 HD
ENDBRANCH  24  25
ENDBRANCH  13  24
ENDBRANCH  11  12
ENDBRANCH   4  11
BRANCH   2  27
ATOM     27  C   UNL     1       8.376  -1.714  26.810  0.00  0.00    +0.190 C 
BRANCH  27  28
ATOM     28  O   UNL     1       9.207  -0.556  27.059  0.00  0.00    -0.392 OA
ATOM     29  H   UNL     1       9.230  -0.410  28.026  0.00  0.00    +0.210 HD
ENDBRANCH  27  28
ENDBRANCH   2  27
BRANCH   1  30
ATOM     30  O   UNL     1       9.528   0.021  24.020  0.00  0.00    -0.340 OA
BRANCH  30  35
ATOM     31  C   UNL     1       8.775   3.634  24.745  0.00  0.00    +0.178 C 
ATOM     32  C   UNL     1       8.362   4.180  23.384  0.00  0.00    +0.177 C 
ATOM     33  C   UNL     1       8.227   3.082  22.307  0.00  0.00    +0.179 C 
ATOM     34  C   UNL     1       9.307   1.971  22.354  0.00  0.00    +0.201 C 
ATOM     35  C   UNL     1       9.726   1.520  23.788  0.00  0.00    +0.282 C 
ATOM     36  O   UNL     1       8.958   2.234  24.735  0.00  0.00    -0.341 OA
BRANCH  34  37
ATOM     37  O   UNL     1      10.457   2.504  21.666  0.00  0.00    -0.384 OA
ATOM     38  H   UNL     1      10.246   3.425  21.430  0.00  0.00    +0.210 HD
ENDBRANCH  34  37
BRANCH  33  39
ATOM     39  O   UNL     1       6.905   2.530  22.289  0.00  0.00    -0.386 OA
ATOM     40  H   UNL     1       6.319   3.150  21.814  0.00  0.00    +0.210 HD
ENDBRANCH  33  39
BRANCH  32  41
ATOM     41  O   UNL     1       9.365   5.152  23.034  0.00  0.00    -0.386 OA
ATOM     42  H   UNL     1      10.094   4.686  22.592  0.00  0.00    +0.210 HD
ENDBRANCH  32  41
BRANCH  31  43
ATOM     43  C   UNL     1       7.686   3.935  25.811  0.00  0.00    +0.190 C 
BRANCH  43  44
ATOM     44  O   UNL     1       7.590   2.874  26.762  0.00  0.00    -0.392 OA
ATOM     45  H   UNL     1       8.070   3.130  27.567  0.00  0.00    +0.210 HD
ENDBRANCH  43  44
ENDBRANCH  31  43
ENDBRANCH  30  35
ENDBRANCH   1  30
TORSDOF 18
ENDMDL
MODEL 4
REMARK VINA RESULT:      -6.5      1.321      2.065
REMARK  Name = 
REMARK  18 active torsions:
REMARK  status: ('A' for Active; 'I' for Inactive)
REMARK    1  A    between atoms: O_1  and  C_2
REMARK    2  A    between atoms: C_2  and  C_3
REMARK    3  A    between atoms: C_6  and  O_8
REMARK    4  A    between atoms: O_8  and  C_9
REMARK    5  A    between atoms: C_11  and  O_13
REMARK    6  A    between atoms: C_14  and  O_16
REMARK    7  A    between atoms: C_17  and  O_19
REMARK    8  A    between atoms: O_19  and  C_20
REMARK    9  A    between atoms: C_22  and  O_24
REMARK   10  A    between atoms: C_25  and  O_27
REMARK   11  A    between atoms: C_28  and  O_30
REMARK   12  A    between atoms: C_32  and  C_34
REMARK   13  A    between atoms: C_34  and  O_35
REMARK   14  A    between atoms: C_37  and  C_39
REMARK   15  A    between atoms: C_39  and  O_40
REMARK   16  A    between atoms: C_41  and  O_43
REMARK   17  A    between atoms: C_44  and  O_46
REMARK   18  A    between atoms: C_47  and  O_49
REMARK                            x       y       z     vdW  Elec       q    Type
REMARK                         _______ _______ _______ _____ _____    ______ ____
ROOT
ATOM      1  C   UNL     1       5.996  -3.914  24.317  0.00  0.00    +0.183 C 
ATOM      2  C   UNL     1       6.445  -3.168  22.959  0.00  0.00    +0.178 C 
ATOM      3  O   UNL     1       7.821  -2.701  22.882  0.00  0.00    -0.341 OA
ATOM      4  C   UNL     1       8.394  -2.057  24.051  0.00  0.00    +0.282 C 
ATOM      5  C   UNL     1       7.917  -2.743  25.308  0.00  0.00    +0.201 C 
ATOM      6  C   UNL     1       6.351  -2.828  25.321  0.00  0.00    +0.179 C 
ENDROOT
BRANCH   6   7
ATOM      7  O   UNL     1       5.669  -1.605  25.014  0.00  0.00    -0.386 OA
ATOM      8  H   UNL     1       5.424  -1.177  25.858  0.00  0.00    +0.210 HD
ENDBRANCH   6   7
BRANCH   5   9
ATOM      9  O   UNL     1       8.688  -3.973  25.295  0.00  0.00    -0.384 OA
ATOM     10  H   UNL     1       8.698  -4.294  24.372  0.00  0.00    +0.210 HD
ENDBRANCH   5   9
BRANCH   4  11
ATOM     11  O   UNL     1       8.298  -0.633  24.149  0.00  0.00    -0.340 OA
BRANCH  11  12
ATOM     12  C   UNL     1       8.963   0.074  23.076  0.00  0.00    +0.183 C 
ATOM     13  C   UNL     1       9.759   1.280  23.635  0.00  0.00    +0.178 C 
ATOM     14  O   UNL     1       8.875   2.225  24.240  0.00  0.00    -0.341 OA
ATOM     15  C   UNL     1       7.882   2.740  23.336  0.00  0.00    +0.279 C 
ATOM     16  C   UNL     1       7.071   1.674  22.550  0.00  0.00    +0.201 C 
ATOM     17  C   UNL     1       8.035   0.642  21.964  0.00  0.00    +0.179 C 
BRANCH  17  18
ATOM     18  O   UNL     1       8.816   1.211  20.894  0.00  0.00    -0.386 OA
ATOM     19  H   UNL     1       9.556   1.721  21.292  0.00  0.00    +0.210 HD
ENDBRANCH  17  18
BRANCH  16  20
ATOM     20  O   UNL     1       6.073   1.078  23.367  0.00  0.00    -0.384 OA
ATOM     21  H   UNL     1       5.255   0.984  22.850  0.00  0.00    +0.210 HD
ENDBRANCH  16  20
BRANCH  15  22
ATOM     22  O   UNL     1       8.504   3.604  22.383  0.00  0.00    -0.365 OA
ATOM     23  H   UNL     1       8.293   3.223  21.512  0.00  0.00    +0.213 HD
ENDBRANCH  15  22
BRANCH  13  24
ATOM     24  C   UNL     1      10.832   0.792  24.621  0.00  0.00    +0.190 C 
BRANCH  24  25
ATOM     25  O   UNL     1      10.238   0.348  25.848  0.00  0.00    -0.392 OA
ATOM     26  H   UNL     1      10.966   0.077  26.444  0.00  0.00    +0.210 HD
ENDBRANCH  24  25
ENDBRANCH  13  24
ENDBRANCH  11  12
ENDBRANCH   4  11
BRANCH   2  27
ATOM     27  C   UNL     1       6.071  -3.799  21.608  0.00  0.00    +0.190 C 
BRANCH  27  28
ATOM     28  O   UNL     1       5.338  -5.025  21.840  0.00  0.00    -0.392 OA
ATOM     29  H   UNL     1       5.343  -5.535  21.006  0.00  0.00    +0.210 HD
ENDBRANCH  27  28
ENDBRANCH   2  27
BRANCH   1  30
ATOM     30  O   UNL     1       6.589  -5.213  24.747  0.00  0.00    -0.340 OA
BRANCH  30  35
ATOM     31  C   UNL     1       3.322  -7.014  24.265  0.00  0.00    +0.178 C 
ATOM     32  C   UNL     1       2.648  -6.874  25.624  0.00  0.00    +0.177 C 
ATOM     33  C   UNL     1       3.414  -5.943  26.587  0.00  0.00    +0.179 C 
ATOM     34  C   UNL     1       4.959  -6.071  26.545  0.00  0.00    +0.201 C 
ATOM     35  C   UNL     1       5.563  -6.284  25.122  0.00  0.00    +0.282 C 
ATOM     36  O   UNL     1       4.516  -6.267  24.173  0.00  0.00    -0.341 OA
BRANCH  34  37
ATOM     37  O   UNL     1       5.288  -7.202  27.377  0.00  0.00    -0.384 OA
ATOM     38  H   UNL     1       4.460  -7.497  27.797  0.00  0.00    +0.210 HD
ENDBRANCH  34  37
BRANCH  33  39
ATOM     39  O   UNL     1       2.996  -4.581  26.438  0.00  0.00    -0.386 OA
ATOM     40  H   UNL     1       2.274  -4.551  25.781  0.00  0.00    +0.210 HD
ENDBRANCH  33  39
BRANCH  32  41
ATOM     41  O   UNL     1       2.543  -8.213  26.144  0.00  0.00    -0.386 OA
ATOM     42  H   UNL     1       2.228  -8.154  27.062  0.00  0.00    +0.210 HD
ENDBRANCH  32  41
BRANCH  31  43
ATOM     43  C   UNL     1       2.388  -6.504  23.133  0.00  0.00    +0.190 C 
BRANCH  43  44
ATOM     44  O   UNL     1       2.599  -5.115  22.879  0.00  0.00    -0.392 OA
ATOM     45  H   UNL     1       1.742  -4.656  22.916  0.00  0.00    +0.210 HD
ENDBRANCH  43  44
ENDBRANCH  31  43
ENDBRANCH  30  35
ENDBRANCH   1  30
TORSDOF 18
ENDMDL
MODEL 5
REMARK VINA RESULT:      -6.5      1.699      8.714
REMARK  Name = 
REMARK  18 active torsions:
REMARK  status: ('A' for Active; 'I' for Inactive)
REMARK    1  A    between atoms: O_1  and  C_2
REMARK    2  A    between atoms: C_2  and  C_3
REMARK    3  A    between atoms: C_6  and  O_8
REMARK    4  A    between atoms: O_8  and  C_9
REMARK    5  A    between atoms: C_11  and  O_13
REMARK    6  A    between atoms: C_14  and  O_16
REMARK    7  A    between atoms: C_17  and  O_19
REMARK    8  A    between atoms: O_19  and  C_20
REMARK    9  A    between atoms: C_22  and  O_24
REMARK   10  A    between atoms: C_25  and  O_27
REMARK   11  A    between atoms: C_28  and  O_30
REMARK   12  A    between atoms: C_32  and  C_34
REMARK   13  A    between atoms: C_34  and  O_35
REMARK   14  A    between atoms: C_37  and  C_39
REMARK   15  A    between atoms: C_39  and  O_40
REMARK   16  A    between atoms: C_41  and  O_43
REMARK   17  A    between atoms: C_44  and  O_46
REMARK   18  A    between atoms: C_47  and  O_49
REMARK                            x       y       z     vdW  Elec       q    Type
REMARK                         _______ _______ _______ _____ _____    ______ ____
ROOT
ATOM      1  C   UNL     1       7.414  -1.807  24.581  0.00  0.00    +0.183 C 
ATOM      2  C   UNL     1       6.781  -2.008  26.051  0.00  0.00    +0.178 C 
ATOM      3  O   UNL     1       6.927  -3.320  26.664  0.00  0.00    -0.341 OA
ATOM      4  C   UNL     1       6.714  -4.493  25.833  0.00  0.00    +0.282 C 
ATOM      5  C   UNL     1       7.270  -4.258  24.450  0.00  0.00    +0.201 C 
ATOM      6  C   UNL     1       6.693  -2.929  23.850  0.00  0.00    +0.179 C 
ENDROOT
BRANCH   6   7
ATOM      7  O   UNL     1       5.271  -2.777  23.954  0.00  0.00    -0.386 OA
ATOM      8  H   UNL     1       4.854  -3.436  23.366  0.00  0.00    +0.210 HD
ENDBRANCH   6   7
BRANCH   5   9
ATOM      9  O   UNL     1       8.701  -4.365  24.674  0.00  0.00    -0.384 OA
ATOM     10  H   UNL     1       9.132  -3.728  24.072  0.00  0.00    +0.210 HD
ENDBRANCH   5   9
BRANCH   4  11
ATOM     11  O   UNL     1       5.400  -5.058  25.793  0.00  0.00    -0.340 OA
BRANCH  11  12
ATOM     12  C   UNL     1       5.313  -6.377  26.379  0.00  0.00    +0.183 C 
ATOM     13  C   UNL     1       3.914  -6.993  26.120  0.00  0.00    +0.178 C 
ATOM     14  O   UNL     1       2.900  -6.213  26.755  0.00  0.00    -0.341 OA
ATOM     15  C   UNL     1       3.070  -6.102  28.178  0.00  0.00    +0.279 C 
ATOM     16  C   UNL     1       4.475  -5.644  28.654  0.00  0.00    +0.201 C 
ATOM     17  C   UNL     1       5.543  -6.451  27.916  0.00  0.00    +0.179 C 
BRANCH  17  18
ATOM     18  O   UNL     1       5.556  -7.822  28.362  0.00  0.00    -0.386 OA
ATOM     19  H   UNL     1       6.265  -7.919  29.035  0.00  0.00    +0.210 HD
ENDBRANCH  17  18
BRANCH  16  20
ATOM     20  O   UNL     1       4.645  -4.243  28.486  0.00  0.00    -0.384 OA
ATOM     21  H   UNL     1       5.465  -3.968  28.931  0.00  0.00    +0.210 HD
ENDBRANCH  16  20
BRANCH  15  22
ATOM     22  O   UNL     1       2.792  -7.362  28.793  0.00  0.00    -0.365 OA
ATOM     23  H   UNL     1       3.322  -8.013  28.301  0.00  0.00    +0.213 HD
ENDBRANCH  15  22
BRANCH  13  24
ATOM     24  C   UNL     1       3.669  -7.126  24.608  0.00  0.00    +0.190 C 
BRANCH  24  25
ATOM     25  O   UNL     1       4.908  -7.244  23.896  0.00  0.00    -0.392 OA
ATOM     26  H   UNL     1       4.732  -7.770  23.089  0.00  0.00    +0.210 HD
ENDBRANCH  24  25
ENDBRANCH  13  24
ENDBRANCH  11  12
ENDBRANCH   4  11
BRANCH   2  27
ATOM     27  C   UNL     1       7.046  -0.940  27.125  0.00  0.00    +0.190 C 
BRANCH  27  28
ATOM     28  O   UNL     1       8.393  -0.435  26.973  0.00  0.00    -0.392 OA
ATOM     29  H   UNL     1       8.673  -0.072  27.837  0.00  0.00    +0.210 HD
ENDBRANCH  27  28
ENDBRANCH   2  27
BRANCH   1  30
ATOM     30  O   UNL     1       8.880  -1.898  24.325  0.00  0.00    -0.340 OA
BRANCH  30  35
ATOM     31  C   UNL     1       9.542   1.761  23.756  0.00  0.00    +0.178 C 
ATOM     32  C   UNL     1       8.929   2.013  22.384  0.00  0.00    +0.177 C 
ATOM     33  C   UNL     1       8.143   0.801  21.841  0.00  0.00    +0.179 C 
ATOM     34  C   UNL     1       8.785  -0.583  22.114  0.00  0.00    +0.201 C 
ATOM     35  C   UNL     1       9.454  -0.733  23.516  0.00  0.00    +0.282 C 
ATOM     36  O   UNL     1       9.269   0.464  24.242  0.00  0.00    -0.341 OA
BRANCH  34  37
ATOM     37  O   UNL     1       9.781  -0.770  21.087  0.00  0.00    -0.384 OA
ATOM     38  H   UNL     1      10.535  -1.227  21.502  0.00  0.00    +0.210 HD
ENDBRANCH  34  37
BRANCH  33  39
ATOM     39  O   UNL     1       6.774   0.837  22.262  0.00  0.00    -0.386 OA
ATOM     40  H   UNL     1       6.238   0.347  21.609  0.00  0.00    +0.210 HD
ENDBRANCH  33  39
BRANCH  32  41
ATOM     41  O   UNL     1      10.030   2.364  21.526  0.00  0.00    -0.386 OA
ATOM     42  H   UNL     1      10.742   1.719  21.670  0.00  0.00    +0.210 HD
ENDBRANCH  32  41
BRANCH  31  43
ATOM     43  C   UNL     1       8.974   2.759  24.803  0.00  0.00    +0.190 C 
BRANCH  43  44
ATOM     44  O   UNL     1       8.187   2.083  25.784  0.00  0.00    -0.392 OA
ATOM     45  H   UNL     1       8.365   2.478  26.654  0.00  0.00    +0.210 HD
ENDBRANCH  43  44
ENDBRANCH  31  43
ENDBRANCH  30  35
ENDBRANCH   1  30
TORSDOF 18
ENDMDL
MODEL 6
REMARK VINA RESULT:      -6.5      1.540      8.494
REMARK  Name = 
REMARK  18 active torsions:
REMARK  status: ('A' for Active; 'I' for Inactive)
REMARK    1  A    between atoms: O_1  and  C_2
REMARK    2  A    between atoms: C_2  and  C_3
REMARK    3  A    between atoms: C_6  and  O_8
REMARK    4  A    between atoms: O_8  and  C_9
REMARK    5  A    between atoms: C_11  and  O_13
REMARK    6  A    between atoms: C_14  and  O_16
REMARK    7  A    between atoms: C_17  and  O_19
REMARK    8  A    between atoms: O_19  and  C_20
REMARK    9  A    between atoms: C_22  and  O_24
REMARK   10  A    between atoms: C_25  and  O_27
REMARK   11  A    between atoms: C_28  and  O_30
REMARK   12  A    between atoms: C_32  and  C_34
REMARK   13  A    between atoms: C_34  and  O_35
REMARK   14  A    between atoms: C_37  and  C_39
REMARK   15  A    between atoms: C_39  and  O_40
REMARK   16  A    between atoms: C_41  and  O_43
REMARK   17  A    between atoms: C_44  and  O_46
REMARK   18  A    between atoms: C_47  and  O_49
REMARK                            x       y       z     vdW  Elec       q    Type
REMARK                         _______ _______ _______ _____ _____    ______ ____
ROOT
ATOM      1  C   UNL     1       7.581  -2.443  23.913  0.00  0.00    +0.183 C 
ATOM      2  C   UNL     1       6.210  -2.371  24.759  0.00  0.00    +0.178 C 
ATOM      3  O   UNL     1       6.153  -3.130  26.000  0.00  0.00    -0.341 OA
ATOM      4  C   UNL     1       6.708  -4.473  26.008  0.00  0.00    +0.282 C 
ATOM      5  C   UNL     1       7.961  -4.523  25.168  0.00  0.00    +0.201 C 
ATOM      6  C   UNL     1       7.678  -3.951  23.735  0.00  0.00    +0.179 C 
ENDROOT
BRANCH   6   7
ATOM      7  O   UNL     1       6.507  -4.467  23.089  0.00  0.00    -0.386 OA
ATOM      8  H   UNL     1       6.203  -3.802  22.441  0.00  0.00    +0.210 HD
ENDBRANCH   6   7
BRANCH   5   9
ATOM      9  O   UNL     1       8.925  -3.848  26.018  0.00  0.00    -0.384 OA
ATOM     10  H   UNL     1       8.420  -3.414  26.733  0.00  0.00    +0.210 HD
ENDBRANCH   5   9
BRANCH   4  11
ATOM     11  O   UNL     1       5.828  -5.565  25.724  0.00  0.00    -0.340 OA
BRANCH  11  12
ATOM     12  C   UNL     1       4.430  -5.261  25.935  0.00  0.00    +0.183 C 
ATOM     13  C   UNL     1       3.756  -6.374  26.776  0.00  0.00    +0.178 C 
ATOM     14  O   UNL     1       3.786  -7.618  26.075  0.00  0.00    -0.341 OA
ATOM     15  C   UNL     1       3.122  -7.573  24.800  0.00  0.00    +0.279 C 
ATOM     16  C   UNL     1       3.552  -6.416  23.858  0.00  0.00    +0.201 C 
ATOM     17  C   UNL     1       3.570  -5.106  24.647  0.00  0.00    +0.179 C 
BRANCH  17  18
ATOM     18  O   UNL     1       2.232  -4.683  24.979  0.00  0.00    -0.386 OA
ATOM     19  H   UNL     1       1.604  -5.173  24.404  0.00  0.00    +0.210 HD
ENDBRANCH  17  18
BRANCH  16  20
ATOM     20  O   UNL     1       4.802  -6.690  23.240  0.00  0.00    -0.384 OA
ATOM     21  H   UNL     1       5.479  -6.800  23.928  0.00  0.00    +0.210 HD
ENDBRANCH  16  20
BRANCH  15  22
ATOM     22  O   UNL     1       1.710  -7.470  24.999  0.00  0.00    -0.365 OA
ATOM     23  H   UNL     1       1.558  -7.740  25.922  0.00  0.00    +0.213 HD
ENDBRANCH  15  22
BRANCH  13  24
ATOM     24  C   UNL     1       4.434  -6.478  28.152  0.00  0.00    +0.190 C 
BRANCH  24  25
ATOM     25  O   UNL     1       5.413  -7.525  28.163  0.00  0.00    -0.392 OA
ATOM     26  H   UNL     1       6.236  -7.160  27.779  0.00  0.00    +0.210 HD
ENDBRANCH  24  25
ENDBRANCH  13  24
ENDBRANCH  11  12
ENDBRANCH   4  11
BRANCH   2  27
ATOM     27  C   UNL     1       5.560  -0.999  25.001  0.00  0.00    +0.190 C 
BRANCH  27  28
ATOM     28  O   UNL     1       6.593   0.009  25.094  0.00  0.00    -0.392 OA
ATOM     29  H   UNL     1       7.443  -0.416  24.863  0.00  0.00    +0.210 HD
ENDBRANCH  27  28
ENDBRANCH   2  27
BRANCH   1  30
ATOM     30  O   UNL     1       8.871  -1.912  24.438  0.00  0.00    -0.340 OA
BRANCH  30  35
ATOM     31  C   UNL     1       9.586   1.721  23.778  0.00  0.00    +0.178 C 
ATOM     32  C   UNL     1       9.002   1.940  22.388  0.00  0.00    +0.177 C 
ATOM     33  C   UNL     1       8.212   0.722  21.865  0.00  0.00    +0.179 C 
ATOM     34  C   UNL     1       8.833  -0.661  22.189  0.00  0.00    +0.201 C 
ATOM     35  C   UNL     1       9.474  -0.778  23.607  0.00  0.00    +0.282 C 
ATOM     36  O   UNL     1       9.289   0.442  24.295  0.00  0.00    -0.341 OA
BRANCH  34  37
ATOM     37  O   UNL     1       9.846  -0.888  21.187  0.00  0.00    -0.384 OA
ATOM     38  H   UNL     1       9.563  -0.414  20.384  0.00  0.00    +0.210 HD
ENDBRANCH  34  37
BRANCH  33  39
ATOM     39  O   UNL     1       6.836   0.785  22.258  0.00  0.00    -0.386 OA
ATOM     40  H   UNL     1       6.765   0.467  23.179  0.00  0.00    +0.210 HD
ENDBRANCH  33  39
BRANCH  32  41
ATOM     41  O   UNL     1      10.123   2.255  21.541  0.00  0.00    -0.386 OA
ATOM     42  H   UNL     1      10.911   2.340  22.104  0.00  0.00    +0.210 HD
ENDBRANCH  32  41
BRANCH  31  43
ATOM     43  C   UNL     1       9.011   2.755  24.785  0.00  0.00    +0.190 C 
BRANCH  43  44
ATOM     44  O   UNL     1       8.246   2.110  25.804  0.00  0.00    -0.392 OA
ATOM     45  H   UNL     1       8.824   1.493  26.286  0.00  0.00    +0.210 HD
ENDBRANCH  43  44
ENDBRANCH  31  43
ENDBRANCH  30  35
ENDBRANCH   1  30
TORSDOF 18
ENDMDL
MODEL 7
REMARK VINA RESULT:      -6.4      1.695      2.233
REMARK  Name = 
REMARK  18 active torsions:
REMARK  status: ('A' for Active; 'I' for Inactive)
REMARK    1  A    between atoms: O_1  and  C_2
REMARK    2  A    between atoms: C_2  and  C_3
REMARK    3  A    between atoms: C_6  and  O_8
REMARK    4  A    between atoms: O_8  and  C_9
REMARK    5  A    between atoms: C_11  and  O_13
REMARK    6  A    between atoms: C_14  and  O_16
REMARK    7  A    between atoms: C_17  and  O_19
REMARK    8  A    between atoms: O_19  and  C_20
REMARK    9  A    between atoms: C_22  and  O_24
REMARK   10  A    between atoms: C_25  and  O_27
REMARK   11  A    between atoms: C_28  and  O_30
REMARK   12  A    between atoms: C_32  and  C_34
REMARK   13  A    between atoms: C_34  and  O_35
REMARK   14  A    between atoms: C_37  and  C_39
REMARK   15  A    between atoms: C_39  and  O_40
REMARK   16  A    between atoms: C_41  and  O_43
REMARK   17  A    between atoms: C_44  and  O_46
REMARK   18  A    between atoms: C_47  and  O_49
REMARK                            x       y       z     vdW  Elec       q    Type
REMARK                         _______ _______ _______ _____ _____    ______ ____
ROOT
ATOM      1  C   UNL     1       6.280  -3.673  24.149  0.00  0.00    +0.183 C 
ATOM      2  C   UNL     1       6.279  -3.163  22.618  0.00  0.00    +0.178 C 
ATOM      3  O   UNL     1       7.336  -2.243  22.224  0.00  0.00    -0.341 OA
ATOM      4  C   UNL     1       7.688  -1.170  23.138  0.00  0.00    +0.282 C 
ATOM      5  C   UNL     1       7.631  -1.661  24.563  0.00  0.00    +0.201 C 
ATOM      6  C   UNL     1       6.241  -2.326  24.855  0.00  0.00    +0.179 C 
ENDROOT
BRANCH   6   7
ATOM      7  O   UNL     1       5.099  -1.564  24.442  0.00  0.00    -0.386 OA
ATOM      8  H   UNL     1       5.192  -1.375  23.488  0.00  0.00    +0.210 HD
ENDBRANCH   6   7
BRANCH   5   9
ATOM      9  O   UNL     1       8.832  -2.473  24.654  0.00  0.00    -0.384 OA
ATOM     10  H   UNL     1       8.597  -3.273  25.163  0.00  0.00    +0.210 HD
ENDBRANCH   5   9
BRANCH   4  11
ATOM     11  O   UNL     1       7.029   0.091  22.979  0.00  0.00    -0.340 OA
BRANCH  11  12
ATOM     12  C   UNL     1       7.550   1.134  23.834  0.00  0.00    +0.183 C 
ATOM     13  C   UNL     1       6.605   2.363  23.824  0.00  0.00    +0.178 C 
ATOM     14  O   UNL     1       6.533   2.927  22.515  0.00  0.00    -0.341 OA
ATOM     15  C   UNL     1       7.807   3.355  22.004  0.00  0.00    +0.279 C 
ATOM     16  C   UNL     1       8.946   2.302  22.072  0.00  0.00    +0.201 C 
ATOM     17  C   UNL     1       8.963   1.670  23.464  0.00  0.00    +0.179 C 
BRANCH  17  18
ATOM     18  O   UNL     1       9.425   2.610  24.454  0.00  0.00    -0.386 OA
ATOM     19  H   UNL     1      10.399   2.698  24.364  0.00  0.00    +0.210 HD
ENDBRANCH  17  18
BRANCH  16  20
ATOM     20  O   UNL     1       8.816   1.333  21.041  0.00  0.00    -0.384 OA
ATOM     21  H   UNL     1       7.905   1.351  20.701  0.00  0.00    +0.210 HD
ENDBRANCH  16  20
BRANCH  15  22
ATOM     22  O   UNL     1       8.244   4.514  22.717  0.00  0.00    -0.365 OA
ATOM     23  H   UNL     1       8.233   5.238  22.066  0.00  0.00    +0.213 HD
ENDBRANCH  15  22
BRANCH  13  24
ATOM     24  C   UNL     1       5.217   1.964  24.351  0.00  0.00    +0.190 C 
BRANCH  24  25
ATOM     25  O   UNL     1       5.327   1.012  25.418  0.00  0.00    -0.392 OA
ATOM     26  H   UNL     1       5.676   0.182  25.034  0.00  0.00    +0.210 HD
ENDBRANCH  24  25
ENDBRANCH  13  24
ENDBRANCH  11  12
ENDBRANCH   4  11
BRANCH   2  27
ATOM     27  C   UNL     1       6.089  -4.193  21.493  0.00  0.00    +0.190 C 
BRANCH  27  28
ATOM     28  O   UNL     1       5.782  -5.482  22.073  0.00  0.00    -0.392 OA
ATOM     29  H   UNL     1       6.567  -5.773  22.579  0.00  0.00    +0.210 HD
ENDBRANCH  27  28
ENDBRANCH   2  27
BRANCH   1  30
ATOM     30  O   UNL     1       7.381  -4.506  24.710  0.00  0.00    -0.340 OA
BRANCH  30  35
ATOM     31  C   UNL     1       4.834  -6.988  25.936  0.00  0.00    +0.178 C 
ATOM     32  C   UNL     1       4.679  -6.624  27.407  0.00  0.00    +0.177 C 
ATOM     33  C   UNL     1       5.430  -5.333  27.794  0.00  0.00    +0.179 C 
ATOM     34  C   UNL     1       6.824  -5.155  27.138  0.00  0.00    +0.201 C 
ATOM     35  C   UNL     1       6.916  -5.619  25.651  0.00  0.00    +0.282 C 
ATOM     36  O   UNL     1       5.644  -6.070  25.233  0.00  0.00    -0.341 OA
BRANCH  34  37
ATOM     37  O   UNL     1       7.742  -5.928  27.938  0.00  0.00    -0.384 OA
ATOM     38  H   UNL     1       8.600  -5.466  27.914  0.00  0.00    +0.210 HD
ENDBRANCH  34  37
BRANCH  33  39
ATOM     39  O   UNL     1       4.609  -4.175  27.604  0.00  0.00    -0.386 OA
ATOM     40  H   UNL     1       4.152  -4.259  26.744  0.00  0.00    +0.210 HD
ENDBRANCH  33  39
BRANCH  32  41
ATOM     41  O   UNL     1       5.161  -7.764  28.142  0.00  0.00    -0.386 OA
ATOM     42  H   UNL     1       5.882  -7.465  28.722  0.00  0.00    +0.210 HD
ENDBRANCH  32  41
BRANCH  31  43
ATOM     43  C   UNL     1       3.453  -7.002  25.224  0.00  0.00    +0.190 C 
BRANCH  43  44
ATOM     44  O   UNL     1       3.516  -7.724  23.994  0.00  0.00    -0.392 OA
ATOM     45  H   UNL     1       2.620  -8.016  23.755  0.00  0.00    +0.210 HD
ENDBRANCH  43  44
ENDBRANCH  31  43
ENDBRANCH  30  35
ENDBRANCH   1  30
TORSDOF 18
ENDMDL
MODEL 8
REMARK VINA RESULT:      -6.4      2.381      9.306
REMARK  Name = 
REMARK  18 active torsions:
REMARK  status: ('A' for Active; 'I' for Inactive)
REMARK    1  A    between atoms: O_1  and  C_2
REMARK    2  A    between atoms: C_2  and  C_3
REMARK    3  A    between atoms: C_6  and  O_8
REMARK    4  A    between atoms: O_8  and  C_9
REMARK    5  A    between atoms: C_11  and  O_13
REMARK    6  A    between atoms: C_14  and  O_16
REMARK    7  A    between atoms: C_17  and  O_19
REMARK    8  A    between atoms: O_19  and  C_20
REMARK    9  A    between atoms: C_22  and  O_24
REMARK   10  A    between atoms: C_25  and  O_27
REMARK   11  A    between atoms: C_28  and  O_30
REMARK   12  A    between atoms: C_32  and  C_34
REMARK   13  A    between atoms: C_34  and  O_35
REMARK   14  A    between atoms: C_37  and  C_39
REMARK   15  A    between atoms: C_39  and  O_40
REMARK   16  A    between atoms: C_41  and  O_43
REMARK   17  A    between atoms: C_44  and  O_46
REMARK   18  A    between atoms: C_47  and  O_49
REMARK                            x       y       z     vdW  Elec       q    Type
REMARK                         _______ _______ _______ _____ _____    ______ ____
ROOT
ATOM      1  C   UNL     1       8.568   0.351  23.242  0.00  0.00    +0.183 C 
ATOM      2  C   UNL     1       8.803  -0.681  24.459  0.00  0.00    +0.178 C 
ATOM      3  O   UNL     1       9.340  -1.992  24.124  0.00  0.00    -0.341 OA
ATOM      4  C   UNL     1       8.813  -2.670  22.952  0.00  0.00    +0.282 C 
ATOM      5  C   UNL     1       8.555  -1.674  21.848  0.00  0.00    +0.201 C 
ATOM      6  C   UNL     1       7.656  -0.501  22.373  0.00  0.00    +0.179 C 
ENDROOT
BRANCH   6   7
ATOM      7  O   UNL     1       6.486  -0.903  23.098  0.00  0.00    -0.386 OA
ATOM      8  H   UNL     1       6.613  -1.828  23.386  0.00  0.00    +0.210 HD
ENDBRANCH   6   7
BRANCH   5   9
ATOM      9  O   UNL     1       9.898  -1.377  21.384  0.00  0.00    -0.384 OA
ATOM     10  H   UNL     1      10.137  -2.072  20.740  0.00  0.00    +0.210 HD
ENDBRANCH   5   9
BRANCH   4  11
ATOM     11  O   UNL     1       7.713  -3.567  23.132  0.00  0.00    -0.340 OA
BRANCH  11  12
ATOM     12  C   UNL     1       8.056  -4.778  23.845  0.00  0.00    +0.183 C 
ATOM     13  C   UNL     1       6.980  -5.868  23.608  0.00  0.00    +0.178 C 
ATOM     14  O   UNL     1       5.720  -5.448  24.131  0.00  0.00    -0.341 OA
ATOM     15  C   UNL     1       5.751  -5.166  25.541  0.00  0.00    +0.279 C 
ATOM     16  C   UNL     1       6.874  -4.202  26.009  0.00  0.00    +0.201 C 
ATOM     17  C   UNL     1       8.201  -4.637  25.387  0.00  0.00    +0.179 C 
BRANCH  17  18
ATOM     18  O   UNL     1       8.665  -5.873  25.968  0.00  0.00    -0.386 OA
ATOM     19  H   UNL     1       8.368  -6.612  25.393  0.00  0.00    +0.210 HD
ENDBRANCH  17  18
BRANCH  16  20
ATOM     20  O   UNL     1       6.554  -2.850  25.708  0.00  0.00    -0.384 OA
ATOM     21  H   UNL     1       5.682  -2.819  25.280  0.00  0.00    +0.210 HD
ENDBRANCH  16  20
BRANCH  15  22
ATOM     22  O   UNL     1       5.893  -6.387  26.271  0.00  0.00    -0.365 OA
ATOM     23  H   UNL     1       5.517  -7.077  25.697  0.00  0.00    +0.213 HD
ENDBRANCH  15  22
BRANCH  13  24
ATOM     24  C   UNL     1       6.892  -6.205  22.110  0.00  0.00    +0.190 C 
BRANCH  24  25
ATOM     25  O   UNL     1       5.528  -6.356  21.698  0.00  0.00    -0.392 OA
ATOM     26  H   UNL     1       4.971  -6.290  22.500  0.00  0.00    +0.210 HD
ENDBRANCH  24  25
ENDBRANCH  13  24
ENDBRANCH  11  12
ENDBRANCH   4  11
BRANCH   2  27
ATOM     27  C   UNL     1       9.508  -0.181  25.731  0.00  0.00    +0.190 C 
BRANCH  27  28
ATOM     28  O   UNL     1      10.433   0.875  25.380  0.00  0.00    -0.392 OA
ATOM     29  H   UNL     1      10.899   1.144  26.196  0.00  0.00    +0.210 HD
ENDBRANCH  27  28
ENDBRANCH   2  27
BRANCH   1  30
ATOM     30  O   UNL     1       9.692   0.886  22.422  0.00  0.00    -0.340 OA
BRANCH  30  35
ATOM     31  C   UNL     1      11.199   4.288  22.975  0.00  0.00    +0.178 C 
ATOM     32  C   UNL     1      10.081   5.051  23.673  0.00  0.00    +0.177 C 
ATOM     33  C   UNL     1       8.880   4.157  24.047  0.00  0.00    +0.179 C 
ATOM     34  C   UNL     1       8.491   3.091  22.991  0.00  0.00    +0.201 C 
ATOM     35  C   UNL     1       9.696   2.409  22.270  0.00  0.00    +0.282 C 
ATOM     36  O   UNL     1      10.899   2.919  22.808  0.00  0.00    -0.341 OA
BRANCH  34  37
ATOM     37  O   UNL     1       7.678   3.775  22.016  0.00  0.00    -0.384 OA
ATOM     38  H   UNL     1       7.991   3.495  21.136  0.00  0.00    +0.210 HD
ENDBRANCH  34  37
BRANCH  33  39
ATOM     39  O   UNL     1       9.049   3.573  25.344  0.00  0.00    -0.386 OA
ATOM     40  H   UNL     1       9.954   3.210  25.402  0.00  0.00    +0.210 HD
ENDBRANCH  33  39
BRANCH  32  41
ATOM     41  O   UNL     1       9.702   6.102  22.765  0.00  0.00    -0.386 OA
ATOM     42  H   UNL     1      10.123   6.926  23.066  0.00  0.00    +0.210 HD
ENDBRANCH  32  41
BRANCH  31  43
ATOM     43  C   UNL     1      12.512   4.360  23.802  0.00  0.00    +0.190 C 
BRANCH  43  44
ATOM     44  O   UNL     1      12.856   5.712  24.105  0.00  0.00    -0.392 OA
ATOM     45  H   UNL     1      12.392   5.979  24.917  0.00  0.00    +0.210 HD
ENDBRANCH  43  44
ENDBRANCH  31  43
ENDBRANCH  30  35
ENDBRANCH   1  30
TORSDOF 18
ENDMDL
MODEL 9
REMARK VINA RESULT:      -6.3      2.114      8.755
REMARK  Name = 
REMARK  18 active torsions:
REMARK  status: ('A' for Active; 'I' for Inactive)
REMARK    1  A    between atoms: O_1  and  C_2
REMARK    2  A    between atoms: C_2  and  C_3
REMARK    3  A    between atoms: C_6  and  O_8
REMARK    4  A    between atoms: O_8  and  C_9
REMARK    5  A    between atoms: C_11  and  O_13
REMARK    6  A    between atoms: C_14  and  O_16
REMARK    7  A    between atoms: C_17  and  O_19
REMARK    8  A    between atoms: O_19  and  C_20
REMARK    9  A    between atoms: C_22  and  O_24
REMARK   10  A    between atoms: C_25  and  O_27
REMARK   11  A    between atoms: C_28  and  O_30
REMARK   12  A    between atoms: C_32  and  C_34
REMARK   13  A    between atoms: C_34  and  O_35
REMARK   14  A    between atoms: C_37  and  C_39
REMARK   15  A    between atoms: C_39  and  O_40
REMARK   16  A    between atoms: C_41  and  O_43
REMARK   17  A    between atoms: C_44  and  O_46
REMARK   18  A    between atoms: C_47  and  O_49
REMARK                            x       y       z     vdW  Elec       q    Type
REMARK                         _______ _______ _______ _____ _____    ______ ____
ROOT
ATOM      1  C   UNL     1       8.016  -0.986  24.627  0.00  0.00    +0.183 C 
ATOM      2  C   UNL     1       8.415  -2.549  24.611  0.00  0.00    +0.178 C 
ATOM      3  O   UNL     1       7.473  -3.468  23.989  0.00  0.00    -0.341 OA
ATOM      4  C   UNL     1       6.057  -3.287  24.259  0.00  0.00    +0.282 C 
ATOM      5  C   UNL     1       5.723  -1.817  24.319  0.00  0.00    +0.201 C 
ATOM      6  C   UNL     1       6.672  -1.085  25.331  0.00  0.00    +0.179 C 
ENDROOT
BRANCH   6   7
ATOM      7  O   UNL     1       6.808  -1.717  26.610  0.00  0.00    -0.386 OA
ATOM      8  H   UNL     1       6.163  -1.308  27.219  0.00  0.00    +0.210 HD
ENDBRANCH   6   7
BRANCH   5   9
ATOM      9  O   UNL     1       5.762  -1.437  22.918  0.00  0.00    -0.384 OA
ATOM     10  H   UNL     1       5.554  -0.483  22.875  0.00  0.00    +0.210 HD
ENDBRANCH   5   9
BRANCH   4  11
ATOM     11  O   UNL     1       5.483  -4.012  25.351  0.00  0.00    -0.340 OA
BRANCH  11  12
ATOM     12  C   UNL     1       6.257  -5.163  25.761  0.00  0.00    +0.183 C 
ATOM     13  C   UNL     1       5.388  -6.445  25.711  0.00  0.00    +0.178 C 
ATOM     14  O   UNL     1       4.304  -6.350  26.636  0.00  0.00    -0.341 OA
ATOM     15  C   UNL     1       4.728  -6.165  27.997  0.00  0.00    +0.279 C 
ATOM     16  C   UNL     1       5.739  -5.011  28.236  0.00  0.00    +0.201 C 
ATOM     17  C   UNL     1       6.856  -5.099  27.196  0.00  0.00    +0.179 C 
BRANCH  17  18
ATOM     18  O   UNL     1       7.704  -6.238  27.442  0.00  0.00    -0.386 OA
ATOM     19  H   UNL     1       7.251  -6.824  28.088  0.00  0.00    +0.210 HD
ENDBRANCH  17  18
BRANCH  16  20
ATOM     20  O   UNL     1       5.090  -3.746  28.226  0.00  0.00    -0.384 OA
ATOM     21  H   UNL     1       4.641  -3.627  27.372  0.00  0.00    +0.210 HD
ENDBRANCH  16  20
BRANCH  15  22
ATOM     22  O   UNL     1       5.323  -7.371  28.482  0.00  0.00    -0.365 OA
ATOM     23  H   UNL     1       4.835  -8.093  28.048  0.00  0.00    +0.213 HD
ENDBRANCH  15  22
BRANCH  13  24
ATOM     24  C   UNL     1       4.893  -6.690  24.276  0.00  0.00    +0.190 C 
BRANCH  24  25
ATOM     25  O   UNL     1       4.015  -7.821  24.222  0.00  0.00    -0.392 OA
ATOM     26  H   UNL     1       3.133  -7.521  24.524  0.00  0.00    +0.210 HD
ENDBRANCH  24  25
ENDBRANCH  13  24
ENDBRANCH  11  12
ENDBRANCH   4  11
BRANCH   2  27
ATOM     27  C   UNL     1       9.836  -2.948  24.182  0.00  0.00    +0.190 C 
BRANCH  27  28
ATOM     28  O   UNL     1      10.090  -4.314  24.585  0.00  0.00    -0.392 OA
ATOM     29  H   UNL     1       9.380  -4.577  25.204  0.00  0.00    +0.210 HD
ENDBRANCH  27  28
ENDBRANCH   2  27
BRANCH   1  30
ATOM     30  O   UNL     1       7.875  -0.186  23.377  0.00  0.00    -0.340 OA
BRANCH  30  35
ATOM     31  C   UNL     1       8.371   3.312  24.669  0.00  0.00    +0.178 C 
ATOM     32  C   UNL     1       8.289   4.160  23.406  0.00  0.00    +0.177 C 
ATOM     33  C   UNL     1       7.872   3.351  22.160  0.00  0.00    +0.179 C 
ATOM     34  C   UNL     1       8.488   1.933  22.051  0.00  0.00    +0.201 C 
ATOM     35  C   UNL     1       8.602   1.160  23.402  0.00  0.00    +0.282 C 
ATOM     36  O   UNL     1       8.054   1.956  24.432  0.00  0.00    -0.341 OA
BRANCH  34  37
ATOM     37  O   UNL     1       9.806   2.113  21.492  0.00  0.00    -0.384 OA
ATOM     38  H   UNL     1       9.696   2.213  20.529  0.00  0.00    +0.210 HD
ENDBRANCH  34  37
BRANCH  33  39
ATOM     39  O   UNL     1       6.447   3.317  22.014  0.00  0.00    -0.386 OA
ATOM     40  H   UNL     1       6.120   4.236  21.965  0.00  0.00    +0.210 HD
ENDBRANCH  33  39
BRANCH  32  41
ATOM     41  O   UNL     1       9.594   4.749  23.249  0.00  0.00    -0.386 OA
ATOM     42  H   UNL     1      10.035   4.738  24.115  0.00  0.00    +0.210 HD
ENDBRANCH  32  41
BRANCH  31  43
ATOM     43  C   UNL     1       7.369   3.824  25.740  0.00  0.00    +0.190 C 
BRANCH  43  44
ATOM     44  O   UNL     1       7.674   3.287  27.028  0.00  0.00    -0.392 OA
ATOM     45  H   UNL     1       7.363   2.367  27.065  0.00  0.00    +0.210 HD
ENDBRANCH  43  44
ENDBRANCH  31  43
ENDBRANCH  30  35
ENDBRANCH   1  30
TORSDOF 18
ENDMDL
