MODEL 1
REMARK VINA RESULT:      -6.6      0.000      0.000
REMARK  Name = 
REMARK  6 active torsions:
REMARK  status: ('A' for Active; 'I' for Inactive)
REMARK    1  A    between atoms: C_1  and  N_2
REMARK    2  A    between atoms: C_8  and  C_12
REMARK    3  A    between atoms: C_15  and  C_17
REMARK    4  A    between atoms: C_17  and  O_18
REMARK    5  A    between atoms: C_19  and  O_21
REMARK    6  A    between atoms: C_22  and  O_24
REMARK                            x       y       z     vdW  Elec       q    Type
REMARK                         _______ _______ _______ _____ _____    ______ ____
ROOT
ATOM      1  C   UNL     1      10.184   3.179  23.730  0.00  0.00    +0.127 C 
ATOM      2  N   UNL     1       9.361   2.156  24.339  0.00  0.00    -0.330 N 
ATOM      3  H   UNL     1       9.438   2.060  25.350  0.00  0.00    +0.147 HD
ATOM      4  C   UNL     1       9.449   0.902  23.731  0.00  0.00    +0.150 A 
ATOM      5  C   UNL     1       9.225  -0.324  24.417  0.00  0.00    +0.151 A 
ATOM      6  C   UNL     1       9.332  -1.565  23.706  0.00  0.00    +0.119 A 
ATOM      7  C   UNL     1       9.120  -2.580  24.596  0.00  0.00    +0.093 A 
ATOM      8  N   UNL     1       8.838  -1.927  25.769  0.00  0.00    -0.276 N 
ATOM      9  H   UNL     1       8.621  -2.357  26.664  0.00  0.00    +0.189 HD
ATOM     10  N   UNL     1       9.626  -1.700  22.399  0.00  0.00    -0.232 NA
ATOM     11  C   UNL     1       9.827  -0.478  21.842  0.00  0.00    +0.224 A 
ATOM     12  N   UNL     1       8.926  -0.582  25.709  0.00  0.00    -0.168 NA
ATOM     13  N   UNL     1       9.765   0.764  22.408  0.00  0.00    -0.219 NA
ENDROOT
BRANCH   7  14
ATOM     14  C   UNL     1       9.139  -4.062  24.490  0.00  0.00    +0.200 C 
ATOM     15  C   UNL     1       9.269  -4.839  25.814  0.00  0.00    +0.180 C 
ATOM     16  C   UNL     1       7.841  -5.265  26.175  0.00  0.00    +0.177 C 
ATOM     17  C   UNL     1       6.987  -4.621  25.095  0.00  0.00    +0.175 C 
ATOM     18  O   UNL     1       7.852  -4.441  23.950  0.00  0.00    -0.360 OA
BRANCH  15  19
ATOM     19  O   UNL     1      10.084  -6.013  25.627  0.00  0.00    -0.386 OA
ATOM     20  H   UNL     1      10.634  -5.884  24.835  0.00  0.00    +0.210 HD
ENDBRANCH  15  19
BRANCH  16  21
ATOM     21  O   UNL     1       7.483  -4.798  27.473  0.00  0.00    -0.386 OA
ATOM     22  H   UNL     1       6.581  -4.434  27.442  0.00  0.00    +0.210 HD
ENDBRANCH  16  21
BRANCH  17  23
ATOM     23  C   UNL     1       5.785  -5.456  24.675  0.00  0.00    +0.190 C 
BRANCH  23  24
ATOM     24  O   UNL     1       5.419  -6.322  25.750  0.00  0.00    -0.392 OA
ATOM     25  H   UNL     1       5.480  -5.783  26.562  0.00  0.00    +0.210 HD
ENDBRANCH  23  24
ENDBRANCH  17  23
ENDBRANCH   7  14
TORSDOF 5
ENDMDL
MODEL 2
REMARK VINA RESULT:      -6.4      1.638      2.497
REMARK  Name = 
REMARK  6 active torsions:
REMARK  status: ('A' for Active; 'I' for Inactive)
REMARK    1  A    between atoms: C_1  and  N_2
REMARK    2  A    between atoms: C_8  and  C_12
REMARK    3  A    between atoms: C_15  and  C_17
REMARK    4  A    between atoms: C_17  and  O_18
REMARK    5  A    between atoms: C_19  and  O_21
REMARK    6  A    between atoms: C_22  and  O_24
REMARK                            x       y       z     vdW  Elec       q    Type
REMARK                         _______ _______ _______ _____ _____    ______ ____
ROOT
ATOM      1  C   UNL     1      10.688   3.383  23.422  0.00  0.00    +0.127 C 
ATOM      2  N   UNL     1      10.865   1.991  23.774  0.00  0.00    -0.330 N 
ATOM      3  H   UNL     1      11.468   1.445  23.161  0.00  0.00    +0.147 HD
ATOM      4  C   UNL     1       9.678   1.298  24.018  0.00  0.00    +0.150 A 
ATOM      5  C   UNL     1       9.530  -0.104  23.823  0.00  0.00    +0.151 A 
ATOM      6  C   UNL     1       8.271  -0.730  24.107  0.00  0.00    +0.119 A 
ATOM      7  C   UNL     1       8.381  -2.056  23.794  0.00  0.00    +0.093 A 
ATOM      8  N   UNL     1       9.689  -2.189  23.402  0.00  0.00    -0.276 N 
ATOM      9  H   UNL     1      10.145  -3.043  23.096  0.00  0.00    +0.189 HD
ATOM     10  N   UNL     1       7.169  -0.108  24.566  0.00  0.00    -0.232 NA
ATOM     11  C   UNL     1       7.414   1.219  24.710  0.00  0.00    +0.224 A 
ATOM     12  N   UNL     1      10.394  -1.039  23.372  0.00  0.00    -0.168 NA
ATOM     13  N   UNL     1       8.553   1.932  24.468  0.00  0.00    -0.219 NA
ENDROOT
BRANCH   7  14
ATOM     14  C   UNL     1       7.434  -3.201  23.821  0.00  0.00    +0.200 C 
ATOM     15  C   UNL     1       8.026  -4.583  23.485  0.00  0.00    +0.180 C 
ATOM     16  C   UNL     1       8.279  -5.255  24.840  0.00  0.00    +0.177 C 
ATOM     17  C   UNL     1       7.914  -4.180  25.851  0.00  0.00    +0.175 C 
ATOM     18  O   UNL     1       6.972  -3.306  25.188  0.00  0.00    -0.360 OA
BRANCH  15  19
ATOM     19  O   UNL     1       7.074  -5.365  22.736  0.00  0.00    -0.386 OA
ATOM     20  H   UNL     1       6.331  -5.591  23.322  0.00  0.00    +0.210 HD
ENDBRANCH  15  19
BRANCH  16  21
ATOM     21  O   UNL     1       9.644  -5.649  24.965  0.00  0.00    -0.386 OA
ATOM     22  H   UNL     1       9.682  -6.596  25.184  0.00  0.00    +0.210 HD
ENDBRANCH  16  21
BRANCH  17  23
ATOM     23  C   UNL     1       7.273  -4.720  27.123  0.00  0.00    +0.190 C 
BRANCH  23  24
ATOM     24  O   UNL     1       7.907  -5.947  27.483  0.00  0.00    -0.392 OA
ATOM     25  H   UNL     1       8.132  -6.390  26.643  0.00  0.00    +0.210 HD
ENDBRANCH  23  24
ENDBRANCH  17  23
ENDBRANCH   7  14
TORSDOF 5
ENDMDL
MODEL 3
REMARK VINA RESULT:      -6.4      1.798      2.397
REMARK  Name = 
REMARK  6 active torsions:
REMARK  status: ('A' for Active; 'I' for Inactive)
REMARK    1  A    between atoms: C_1  and  N_2
REMARK    2  A    between atoms: C_8  and  C_12
REMARK    3  A    between atoms: C_15  and  C_17
REMARK    4  A    between atoms: C_17  and  O_18
REMARK    5  A    between atoms: C_19  and  O_21
REMARK    6  A    between atoms: C_22  and  O_24
REMARK                            x       y       z     vdW  Elec       q    Type
REMARK                         _______ _______ _______ _____ _____    ______ ____
ROOT
ATOM      1  C   UNL     1      10.279   2.740  23.363  0.00  0.00    +0.127 C 
ATOM      2  N   UNL     1       9.079   2.054  22.937  0.00  0.00    -0.330 N 
ATOM      3  H   UNL     1       8.208   2.366  23.362  0.00  0.00    +0.147 HD
ATOM      4  C   UNL     1       9.160   0.660  22.980  0.00  0.00    +0.150 A 
ATOM      5  C   UNL     1       8.034  -0.190  23.166  0.00  0.00    +0.151 A 
ATOM      6  C   UNL     1       8.216  -1.612  23.190  0.00  0.00    +0.119 A 
ATOM      7  C   UNL     1       7.000  -2.187  23.427  0.00  0.00    +0.093 A 
ATOM      8  N   UNL     1       6.140  -1.119  23.472  0.00  0.00    -0.276 N 
ATOM      9  H   UNL     1       5.136  -1.155  23.628  0.00  0.00    +0.189 HD
ATOM     10  N   UNL     1       9.388  -2.258  23.043  0.00  0.00    -0.232 NA
ATOM     11  C   UNL     1      10.393  -1.360  22.880  0.00  0.00    +0.224 A 
ATOM     12  N   UNL     1       6.727   0.091  23.356  0.00  0.00    -0.168 NA
ATOM     13  N   UNL     1      10.353   0.005  22.848  0.00  0.00    -0.219 NA
ENDROOT
BRANCH   7  14
ATOM     14  C   UNL     1       6.542  -3.590  23.606  0.00  0.00    +0.200 C 
ATOM     15  C   UNL     1       7.563  -4.690  23.263  0.00  0.00    +0.180 C 
ATOM     16  C   UNL     1       8.164  -5.119  24.607  0.00  0.00    +0.177 C 
ATOM     17  C   UNL     1       7.524  -4.171  25.608  0.00  0.00    +0.175 C 
ATOM     18  O   UNL     1       6.273  -3.746  25.019  0.00  0.00    -0.360 OA
BRANCH  15  19
ATOM     19  O   UNL     1       6.898  -5.817  22.656  0.00  0.00    -0.386 OA
ATOM     20  H   UNL     1       6.444  -6.319  23.355  0.00  0.00    +0.210 HD
ENDBRANCH  15  19
BRANCH  16  21
ATOM     21  O   UNL     1       9.583  -4.988  24.595  0.00  0.00    -0.386 OA
ATOM     22  H   UNL     1       9.821  -4.090  24.885  0.00  0.00    +0.210 HD
ENDBRANCH  16  21
BRANCH  17  23
ATOM     23  C   UNL     1       7.239  -4.803  26.964  0.00  0.00    +0.190 C 
BRANCH  23  24
ATOM     24  O   UNL     1       8.061  -5.959  27.123  0.00  0.00    -0.392 OA
ATOM     25  H   UNL     1       8.954  -5.696  26.830  0.00  0.00    +0.210 HD
ENDBRANCH  23  24
ENDBRANCH  17  23
ENDBRANCH   7  14
TORSDOF 5
ENDMDL
MODEL 4
REMARK VINA RESULT:      -6.3      1.728      1.987
REMARK  Name = 
REMARK  6 active torsions:
REMARK  status: ('A' for Active; 'I' for Inactive)
REMARK    1  A    between atoms: C_1  and  N_2
REMARK    2  A    between atoms: C_8  and  C_12
REMARK    3  A    between atoms: C_15  and  C_17
REMARK    4  A    between atoms: C_17  and  O_18
REMARK    5  A    between atoms: C_19  and  O_21
REMARK    6  A    between atoms: C_22  and  O_24
REMARK                            x       y       z     vdW  Elec       q    Type
REMARK                         _______ _______ _______ _____ _____    ______ ____
ROOT
ATOM      1  C   UNL     1       7.775   2.359  22.855  0.00  0.00    +0.127 C 
ATOM      2  N   UNL     1       7.388   1.057  22.356  0.00  0.00    -0.330 N 
ATOM      3  H   UNL     1       6.398   0.829  22.415  0.00  0.00    +0.147 HD
ATOM      4  C   UNL     1       8.153  -0.003  22.848  0.00  0.00    +0.150 A 
ATOM      5  C   UNL     1       7.665  -1.334  22.978  0.00  0.00    +0.151 A 
ATOM      6  C   UNL     1       8.528  -2.359  23.488  0.00  0.00    +0.119 A 
ATOM      7  C   UNL     1       7.808  -3.519  23.556  0.00  0.00    +0.093 A 
ATOM      8  N   UNL     1       6.586  -3.172  23.037  0.00  0.00    -0.276 N 
ATOM      9  H   UNL     1       5.782  -3.782  22.922  0.00  0.00    +0.189 HD
ATOM     10  N   UNL     1       9.808  -2.193  23.866  0.00  0.00    -0.232 NA
ATOM     11  C   UNL     1      10.172  -0.894  23.710  0.00  0.00    +0.224 A 
ATOM     12  N   UNL     1       6.452  -1.869  22.715  0.00  0.00    -0.168 NA
ATOM     13  N   UNL     1       9.449   0.169  23.249  0.00  0.00    -0.219 NA
ENDROOT
BRANCH   7  14
ATOM     14  C   UNL     1       8.114  -4.894  24.029  0.00  0.00    +0.200 C 
ATOM     15  C   UNL     1       8.737  -5.009  25.433  0.00  0.00    +0.180 C 
ATOM     16  C   UNL     1       7.572  -5.360  26.366  0.00  0.00    +0.177 C 
ATOM     17  C   UNL     1       6.355  -5.320  25.456  0.00  0.00    +0.175 C 
ATOM     18  O   UNL     1       6.843  -5.579  24.119  0.00  0.00    -0.360 OA
BRANCH  15  19
ATOM     19  O   UNL     1       9.709  -6.075  25.463  0.00  0.00    -0.386 OA
ATOM     20  H   UNL     1      10.588  -5.696  25.289  0.00  0.00    +0.210 HD
ENDBRANCH  15  19
BRANCH  16  21
ATOM     21  O   UNL     1       7.464  -4.411  27.424  0.00  0.00    -0.386 OA
ATOM     22  H   UNL     1       7.525  -4.877  28.276  0.00  0.00    +0.210 HD
ENDBRANCH  16  21
BRANCH  17  23
ATOM     23  C   UNL     1       5.292  -6.355  25.799  0.00  0.00    +0.190 C 
BRANCH  23  24
ATOM     24  O   UNL     1       5.553  -6.881  27.100  0.00  0.00    -0.392 OA
ATOM     25  H   UNL     1       4.872  -6.499  27.686  0.00  0.00    +0.210 HD
ENDBRANCH  23  24
ENDBRANCH  17  23
ENDBRANCH   7  14
TORSDOF 5
ENDMDL
MODEL 5
REMARK VINA RESULT:      -6.3      3.919      6.437
REMARK  Name = 
REMARK  6 active torsions:
REMARK  status: ('A' for Active; 'I' for Inactive)
REMARK    1  A    between atoms: C_1  and  N_2
REMARK    2  A    between atoms: C_8  and  C_12
REMARK    3  A    between atoms: C_15  and  C_17
REMARK    4  A    between atoms: C_17  and  O_18
REMARK    5  A    between atoms: C_19  and  O_21
REMARK    6  A    between atoms: C_22  and  O_24
REMARK                            x       y       z     vdW  Elec       q    Type
REMARK                         _______ _______ _______ _____ _____    ______ ____
ROOT
ATOM      1  C   UNL     1       8.313  -5.119  25.674  0.00  0.00    +0.127 C 
ATOM      2  N   UNL     1       8.667  -3.842  26.255  0.00  0.00    -0.330 N 
ATOM      3  H   UNL     1       8.000  -3.449  26.917  0.00  0.00    +0.147 HD
ATOM      4  C   UNL     1       9.053  -2.870  25.330  0.00  0.00    +0.150 A 
ATOM      5  C   UNL     1       8.899  -1.472  25.545  0.00  0.00    +0.151 A 
ATOM      6  C   UNL     1       9.331  -0.547  24.538  0.00  0.00    +0.119 A 
ATOM      7  C   UNL     1       9.030   0.714  24.967  0.00  0.00    +0.093 A 
ATOM      8  N   UNL     1       8.498   0.512  26.216  0.00  0.00    -0.276 N 
ATOM      9  H   UNL     1       8.157   1.228  26.852  0.00  0.00    +0.189 HD
ATOM     10  N   UNL     1       9.899  -0.874  23.362  0.00  0.00    -0.232 NA
ATOM     11  C   UNL     1       9.993  -2.224  23.254  0.00  0.00    +0.224 A 
ATOM     12  N   UNL     1       8.371  -0.781  26.579  0.00  0.00    -0.168 NA
ATOM     13  N   UNL     1       9.613  -3.203  24.128  0.00  0.00    -0.219 NA
ENDROOT
BRANCH   7  14
ATOM     14  C   UNL     1       9.181   2.068  24.372  0.00  0.00    +0.200 C 
ATOM     15  C   UNL     1       9.912   2.140  23.018  0.00  0.00    +0.180 C 
ATOM     16  C   UNL     1       8.802   2.220  21.964  0.00  0.00    +0.177 C 
ATOM     17  C   UNL     1       7.522   2.085  22.774  0.00  0.00    +0.175 C 
ATOM     18  O   UNL     1       7.840   2.541  24.108  0.00  0.00    -0.360 OA
BRANCH  15  19
ATOM     19  O   UNL     1      10.720   3.332  22.949  0.00  0.00    -0.386 OA
ATOM     20  H   UNL     1      11.530   3.185  23.467  0.00  0.00    +0.210 HD
ENDBRANCH  15  19
BRANCH  16  21
ATOM     21  O   UNL     1       8.930   1.168  21.010  0.00  0.00    -0.386 OA
ATOM     22  H   UNL     1       9.805   0.756  21.107  0.00  0.00    +0.210 HD
ENDBRANCH  16  21
BRANCH  17  23
ATOM     23  C   UNL     1       6.360   2.910  22.237  0.00  0.00    +0.190 C 
BRANCH  23  24
ATOM     24  O   UNL     1       6.834   4.208  21.879  0.00  0.00    -0.392 OA
ATOM     25  H   UNL     1       6.049   4.789  21.874  0.00  0.00    +0.210 HD
ENDBRANCH  23  24
ENDBRANCH  17  23
ENDBRANCH   7  14
TORSDOF 5
ENDMDL
MODEL 6
REMARK VINA RESULT:      -6.1      3.404      6.156
REMARK  Name = 
REMARK  6 active torsions:
REMARK  status: ('A' for Active; 'I' for Inactive)
REMARK    1  A    between atoms: C_1  and  N_2
REMARK    2  A    between atoms: C_8  and  C_12
REMARK    3  A    between atoms: C_15  and  C_17
REMARK    4  A    between atoms: C_17  and  O_18
REMARK    5  A    between atoms: C_19  and  O_21
REMARK    6  A    between atoms: C_22  and  O_24
REMARK                            x       y       z     vdW  Elec       q    Type
REMARK                         _______ _______ _______ _____ _____    ______ ____
ROOT
ATOM      1  C   UNL     1       4.340  -6.410  26.789  0.00  0.00    +0.127 C 
ATOM      2  N   UNL     1       5.714  -6.400  26.337  0.00  0.00    -0.330 N 
ATOM      3  H   UNL     1       6.427  -6.387  27.063  0.00  0.00    +0.147 HD
ATOM      4  C   UNL     1       6.000  -5.433  25.370  0.00  0.00    +0.150 A 
ATOM      5  C   UNL     1       7.287  -4.854  25.191  0.00  0.00    +0.151 A 
ATOM      6  C   UNL     1       7.486  -3.871  24.165  0.00  0.00    +0.119 A 
ATOM      7  C   UNL     1       8.783  -3.446  24.236  0.00  0.00    +0.093 A 
ATOM      8  N   UNL     1       9.321  -4.216  25.236  0.00  0.00    -0.276 N 
ATOM      9  H   UNL     1      10.279  -4.186  25.575  0.00  0.00    +0.189 HD
ATOM     10  N   UNL     1       6.547  -3.424  23.312  0.00  0.00    -0.232 NA
ATOM     11  C   UNL     1       5.360  -4.031  23.571  0.00  0.00    +0.224 A 
ATOM     12  N   UNL     1       8.450  -5.042  25.852  0.00  0.00    -0.168 NA
ATOM     13  N   UNL     1       5.041  -4.966  24.514  0.00  0.00    -0.219 NA
ENDROOT
BRANCH   7  14
ATOM     14  C   UNL     1       9.576  -2.432  23.493  0.00  0.00    +0.200 C 
ATOM     15  C   UNL     1       8.880  -1.771  22.289  0.00  0.00    +0.180 C 
ATOM     16  C   UNL     1       8.362  -0.425  22.810  0.00  0.00    +0.177 C 
ATOM     17  C   UNL     1       8.704  -0.454  24.291  0.00  0.00    +0.175 C 
ATOM     18  O   UNL     1       9.825  -1.356  24.428  0.00  0.00    -0.360 OA
BRANCH  15  19
ATOM     19  O   UNL     1       9.830  -1.537  21.229  0.00  0.00    -0.386 OA
ATOM     20  H   UNL     1       9.339  -1.317  20.419  0.00  0.00    +0.210 HD
ENDBRANCH  15  19
BRANCH  16  21
ATOM     21  O   UNL     1       6.957  -0.305  22.601  0.00  0.00    -0.386 OA
ATOM     22  H   UNL     1       6.497  -0.964  23.149  0.00  0.00    +0.210 HD
ENDBRANCH  16  21
BRANCH  17  23
ATOM     23  C   UNL     1       9.093   0.903  24.863  0.00  0.00    +0.190 C 
BRANCH  23  24
ATOM     24  O   UNL     1      10.475   0.881  25.221  0.00  0.00    -0.392 OA
ATOM     25  H   UNL     1      10.532   1.305  26.099  0.00  0.00    +0.210 HD
ENDBRANCH  23  24
ENDBRANCH  17  23
ENDBRANCH   7  14
TORSDOF 5
ENDMDL
MODEL 7
REMARK VINA RESULT:      -6.1      1.603      1.970
REMARK  Name = 
REMARK  6 active torsions:
REMARK  status: ('A' for Active; 'I' for Inactive)
REMARK    1  A    between atoms: C_1  and  N_2
REMARK    2  A    between atoms: C_8  and  C_12
REMARK    3  A    between atoms: C_15  and  C_17
REMARK    4  A    between atoms: C_17  and  O_18
REMARK    5  A    between atoms: C_19  and  O_21
REMARK    6  A    between atoms: C_22  and  O_24
REMARK                            x       y       z     vdW  Elec       q    Type
REMARK                         _______ _______ _______ _____ _____    ______ ____
ROOT
ATOM      1  C   UNL     1       9.162   4.452  24.507  0.00  0.00    +0.127 C 
ATOM      2  N   UNL     1       8.523   3.188  24.804  0.00  0.00    -0.330 N 
ATOM      3  H   UNL     1       8.513   2.908  25.783  0.00  0.00    +0.147 HD
ATOM      4  C   UNL     1       8.943   2.123  24.005  0.00  0.00    +0.150 A 
ATOM      5  C   UNL     1       8.921   0.764  24.427  0.00  0.00    +0.151 A 
ATOM      6  C   UNL     1       9.368  -0.263  23.532  0.00  0.00    +0.119 A 
ATOM      7  C   UNL     1       9.291  -1.457  24.192  0.00  0.00    +0.093 A 
ATOM      8  N   UNL     1       8.753  -1.121  25.409  0.00  0.00    -0.276 N 
ATOM      9  H   UNL     1       8.543  -1.755  26.174  0.00  0.00    +0.189 HD
ATOM     10  N   UNL     1       9.819  -0.073  22.278  0.00  0.00    -0.232 NA
ATOM     11  C   UNL     1       9.806   1.251  21.978  0.00  0.00    +0.224 A 
ATOM     12  N   UNL     1       8.553   0.200  25.598  0.00  0.00    -0.168 NA
ATOM     13  N   UNL     1       9.417   2.318  22.737  0.00  0.00    -0.219 NA
ENDROOT
BRANCH   7  14
ATOM     14  C   UNL     1       9.643  -2.856  23.833  0.00  0.00    +0.200 C 
ATOM     15  C   UNL     1       9.287  -3.937  24.871  0.00  0.00    +0.180 C 
ATOM     16  C   UNL     1       7.968  -4.549  24.383  0.00  0.00    +0.177 C 
ATOM     17  C   UNL     1       7.611  -3.712  23.165  0.00  0.00    +0.175 C 
ATOM     18  O   UNL     1       8.857  -3.178  22.662  0.00  0.00    -0.360 OA
BRANCH  15  19
ATOM     19  O   UNL     1      10.304  -4.958  24.898  0.00  0.00    -0.386 OA
ATOM     20  H   UNL     1       9.947  -5.738  25.358  0.00  0.00    +0.210 HD
ENDBRANCH  15  19
BRANCH  16  21
ATOM     21  O   UNL     1       6.964  -4.462  25.390  0.00  0.00    -0.386 OA
ATOM     22  H   UNL     1       6.833  -5.341  25.785  0.00  0.00    +0.210 HD
ENDBRANCH  16  21
BRANCH  17  23
ATOM     23  C   UNL     1       6.929  -4.499  22.052  0.00  0.00    +0.190 C 
BRANCH  23  24
ATOM     24  O   UNL     1       5.789  -3.772  21.597  0.00  0.00    -0.392 OA
ATOM     25  H   UNL     1       5.351  -3.427  22.398  0.00  0.00    +0.210 HD
ENDBRANCH  23  24
ENDBRANCH  17  23
ENDBRANCH   7  14
TORSDOF 5
ENDMDL
MODEL 8
REMARK VINA RESULT:      -6.0      4.032      6.680
REMARK  Name = 
REMARK  6 active torsions:
REMARK  status: ('A' for Active; 'I' for Inactive)
REMARK    1  A    between atoms: C_1  and  N_2
REMARK    2  A    between atoms: C_8  and  C_12
REMARK    3  A    between atoms: C_15  and  C_17
REMARK    4  A    between atoms: C_17  and  O_18
REMARK    5  A    between atoms: C_19  and  O_21
REMARK    6  A    between atoms: C_22  and  O_24
REMARK                            x       y       z     vdW  Elec       q    Type
REMARK                         _______ _______ _______ _____ _____    ______ ____
ROOT
ATOM      1  C   UNL     1       7.056  -6.103  21.985  0.00  0.00    +0.127 C 
ATOM      2  N   UNL     1       6.429  -4.943  22.581  0.00  0.00    -0.330 N 
ATOM      3  H   UNL     1       5.771  -4.435  21.992  0.00  0.00    +0.147 HD
ATOM      4  C   UNL     1       7.315  -4.051  23.188  0.00  0.00    +0.150 A 
ATOM      5  C   UNL     1       7.062  -2.657  23.323  0.00  0.00    +0.151 A 
ATOM      6  C   UNL     1       8.031  -1.820  23.968  0.00  0.00    +0.119 A 
ATOM      7  C   UNL     1       7.571  -0.534  23.924  0.00  0.00    +0.093 A 
ATOM      8  N   UNL     1       6.341  -0.650  23.327  0.00  0.00    -0.276 N 
ATOM      9  H   UNL     1       5.692   0.105  23.125  0.00  0.00    +0.189 HD
ATOM     10  N   UNL     1       9.203  -2.230  24.488  0.00  0.00    -0.232 NA
ATOM     11  C   UNL     1       9.350  -3.566  24.301  0.00  0.00    +0.224 A 
ATOM     12  N   UNL     1       6.020  -1.897  22.922  0.00  0.00    -0.168 NA
ATOM     13  N   UNL     1       8.514  -4.464  23.700  0.00  0.00    -0.219 NA
ENDROOT
BRANCH   7  14
ATOM     14  C   UNL     1       8.121   0.772  24.372  0.00  0.00    +0.200 C 
ATOM     15  C   UNL     1       9.444   1.215  23.719  0.00  0.00    +0.180 C 
ATOM     16  C   UNL     1       9.041   2.198  22.614  0.00  0.00    +0.177 C 
ATOM     17  C   UNL     1       7.521   2.172  22.643  0.00  0.00    +0.175 C 
ATOM     18  O   UNL     1       7.150   1.771  23.982  0.00  0.00    -0.360 OA
BRANCH  15  19
ATOM     19  O   UNL     1      10.274   1.895  24.683  0.00  0.00    -0.386 OA
ATOM     20  H   UNL     1      10.526   1.260  25.376  0.00  0.00    +0.210 HD
ENDBRANCH  15  19
BRANCH  16  21
ATOM     21  O   UNL     1       9.547   1.777  21.350  0.00  0.00    -0.386 OA
ATOM     22  H   UNL     1      10.315   1.198  21.492  0.00  0.00    +0.210 HD
ENDBRANCH  16  21
BRANCH  17  23
ATOM     23  C   UNL     1       6.873   3.515  22.336  0.00  0.00    +0.190 C 
BRANCH  23  24
ATOM     24  O   UNL     1       7.885   4.446  21.952  0.00  0.00    -0.392 OA
ATOM     25  H   UNL     1       8.737   4.024  22.175  0.00  0.00    +0.210 HD
ENDBRANCH  23  24
ENDBRANCH  17  23
ENDBRANCH   7  14
TORSDOF 5
ENDMDL
MODEL 9
REMARK VINA RESULT:      -5.9      2.008      2.614
REMARK  Name = 
REMARK  6 active torsions:
REMARK  status: ('A' for Active; 'I' for Inactive)
REMARK    1  A    between atoms: C_1  and  N_2
REMARK    2  A    between atoms: C_8  and  C_12
REMARK    3  A    between atoms: C_15  and  C_17
REMARK    4  A    between atoms: C_17  and  O_18
REMARK    5  A    between atoms: C_19  and  O_21
REMARK    6  A    between atoms: C_22  and  O_24
REMARK                            x       y       z     vdW  Elec       q    Type
REMARK                         _______ _______ _______ _____ _____    ______ ____
ROOT
ATOM      1  C   UNL     1       8.066   2.345  21.980  0.00  0.00    +0.127 C 
ATOM      2  N   UNL     1       8.881   1.423  22.742  0.00  0.00    -0.330 N 
ATOM      3  H   UNL     1       9.740   1.107  22.296  0.00  0.00    +0.147 HD
ATOM      4  C   UNL     1       8.185   0.331  23.267  0.00  0.00    +0.150 A 
ATOM      5  C   UNL     1       8.786  -0.931  23.534  0.00  0.00    +0.151 A 
ATOM      6  C   UNL     1       7.991  -1.993  24.080  0.00  0.00    +0.119 A 
ATOM      7  C   UNL     1       8.787  -3.097  24.195  0.00  0.00    +0.093 A 
ATOM      8  N   UNL     1      10.019  -2.653  23.784  0.00  0.00    -0.276 N 
ATOM      9  H   UNL     1      10.874  -3.199  23.735  0.00  0.00    +0.189 HD
ATOM     10  N   UNL     1       6.683  -1.918  24.388  0.00  0.00    -0.232 NA
ATOM     11  C   UNL     1       6.208  -0.681  24.089  0.00  0.00    +0.224 A 
ATOM     12  N   UNL     1      10.047  -1.376  23.348  0.00  0.00    -0.168 NA
ATOM     13  N   UNL     1       6.852   0.402  23.563  0.00  0.00    -0.219 NA
ENDROOT
BRANCH   7  14
ATOM     14  C   UNL     1       8.551  -4.494  24.643  0.00  0.00    +0.200 C 
ATOM     15  C   UNL     1       7.240  -4.752  25.410  0.00  0.00    +0.180 C 
ATOM     16  C   UNL     1       6.269  -5.326  24.371  0.00  0.00    +0.177 C 
ATOM     17  C   UNL     1       7.053  -5.262  23.069  0.00  0.00    +0.175 C 
ATOM     18  O   UNL     1       8.451  -5.289  23.438  0.00  0.00    -0.360 OA
BRANCH  15  19
ATOM     19  O   UNL     1       7.454  -5.726  26.451  0.00  0.00    -0.386 OA
ATOM     20  H   UNL     1       7.550  -6.602  26.039  0.00  0.00    +0.210 HD
ENDBRANCH  15  19
BRANCH  16  21
ATOM     21  O   UNL     1       5.078  -4.548  24.303  0.00  0.00    -0.386 OA
ATOM     22  H   UNL     1       5.294  -3.665  23.956  0.00  0.00    +0.210 HD
ENDBRANCH  16  21
BRANCH  17  23
ATOM     23  C   UNL     1       6.773  -6.420  22.121  0.00  0.00    +0.190 C 
BRANCH  23  24
ATOM     24  O   UNL     1       5.411  -6.359  21.697  0.00  0.00    -0.392 OA
ATOM     25  H   UNL     1       5.370  -6.847  20.852  0.00  0.00    +0.210 HD
ENDBRANCH  23  24
ENDBRANCH  17  23
ENDBRANCH   7  14
TORSDOF 5
ENDMDL
