MODEL 1
REMARK VINA RESULT:      -7.0      0.000      0.000
REMARK  Name = 
REMARK  5 active torsions:
REMARK  status: ('A' for Active; 'I' for Inactive)
REMARK    1  A    between atoms: O_1  and  C_2
REMARK    2  A    between atoms: C_2  and  C_4
REMARK    3  A    between atoms: C_4  and  N_5
REMARK    4  A    between atoms: C_12  and  C_21
REMARK    5  A    between atoms: C_13  and  C_15
REMARK                            x       y       z     vdW  Elec       q    Type
REMARK                         _______ _______ _______ _____ _____    ______ ____
ROOT
ATOM      1  N   UNL     1       6.496  -4.064  27.115  0.00  0.00    -0.318 N 
ATOM      2  H   UNL     1       6.911  -3.703  27.977  0.00  0.00    +0.148 HD
ATOM      3  C   UNL     1       7.586  -4.267  26.251  0.00  0.00    +0.134 A 
ATOM      4  C   UNL     1       8.186  -3.233  25.505  0.00  0.00    +0.088 A 
ATOM      5  C   UNL     1       8.016  -1.813  25.263  0.00  0.00    +0.041 A 
ATOM      6  C   UNL     1       9.042  -1.454  24.385  0.00  0.00    +0.146 A 
ATOM      7  O   UNL     1       9.752  -2.567  24.038  0.00  0.00    -0.436 OA
ATOM      8  C   UNL     1       9.253  -3.625  24.709  0.00  0.00    +0.233 A 
ATOM      9  N   UNL     1       9.780  -4.848  24.578  0.00  0.00    -0.200 NA
ATOM     10  C   UNL     1       9.156  -5.734  25.346  0.00  0.00    +0.227 A 
ATOM     11  N   UNL     1       8.115  -5.511  26.164  0.00  0.00    -0.220 NA
ENDROOT
BRANCH   5  12
ATOM     12  C   UNL     1       6.999  -0.889  25.774  0.00  0.00    -0.014 A 
ATOM     13  C   UNL     1       6.960  -0.526  27.129  0.00  0.00    +0.008 A 
ATOM     14  C   UNL     1       6.003   0.376  27.606  0.00  0.00    +0.001 A 
ATOM     15  C   UNL     1       5.101   0.967  26.727  0.00  0.00    +0.000 A 
ATOM     16  C   UNL     1       5.126   0.624  25.380  0.00  0.00    +0.001 A 
ATOM     17  C   UNL     1       6.046  -0.324  24.917  0.00  0.00    +0.008 A 
ENDBRANCH   5  12
BRANCH   6  18
ATOM     18  C   UNL     1       9.596  -0.234  23.788  0.00  0.00    +0.018 A 
ATOM     19  C   UNL     1      10.197   0.742  24.604  0.00  0.00    +0.011 A 
ATOM     20  C   UNL     1      10.625   1.964  24.080  0.00  0.00    +0.001 A 
ATOM     21  C   UNL     1      10.473   2.226  22.721  0.00  0.00    +0.000 A 
ATOM     22  C   UNL     1       9.902   1.264  21.892  0.00  0.00    +0.001 A 
ATOM     23  C   UNL     1       9.462   0.045  22.421  0.00  0.00    +0.011 A 
ENDBRANCH   6  18
BRANCH   1  24
ATOM     24  C   UNL     1       5.786  -5.327  27.468  0.00  0.00    +0.223 C 
BRANCH  24  25
ATOM     25  C   UNL     1       6.266  -5.778  28.843  0.00  0.00    +0.322 C 
ATOM     26  O   UNL     1       5.885  -5.312  29.900  0.00  0.00    -0.249 OA
BRANCH  25  27
ATOM     27  O   UNL     1       7.213  -6.747  28.751  0.00  0.00    -0.480 OA
ATOM     28  H   UNL     1       7.496  -6.797  27.804  0.00  0.00    +0.295 HD
ENDBRANCH  25  27
ENDBRANCH  24  25
ENDBRANCH   1  24
TORSDOF 5
ENDMDL
MODEL 2
REMARK VINA RESULT:      -6.8      2.956      7.209
REMARK  Name = 
REMARK  5 active torsions:
REMARK  status: ('A' for Active; 'I' for Inactive)
REMARK    1  A    between atoms: O_1  and  C_2
REMARK    2  A    between atoms: C_2  and  C_4
REMARK    3  A    between atoms: C_4  and  N_5
REMARK    4  A    between atoms: C_12  and  C_21
REMARK    5  A    between atoms: C_13  and  C_15
REMARK                            x       y       z     vdW  Elec       q    Type
REMARK                         _______ _______ _______ _____ _____    ______ ____
ROOT
ATOM      1  N   UNL     1       9.350  -1.503  22.503  0.00  0.00    -0.318 N 
ATOM      2  H   UNL     1      10.064  -2.231  22.416  0.00  0.00    +0.148 HD
ATOM      3  C   UNL     1       9.174  -1.341  23.889  0.00  0.00    +0.134 A 
ATOM      4  C   UNL     1       8.371  -2.194  24.672  0.00  0.00    +0.088 A 
ATOM      5  C   UNL     1       7.505  -3.346  24.506  0.00  0.00    +0.041 A 
ATOM      6  C   UNL     1       7.054  -3.667  25.789  0.00  0.00    +0.146 A 
ATOM      7  O   UNL     1       7.529  -2.749  26.680  0.00  0.00    -0.436 OA
ATOM      8  C   UNL     1       8.321  -1.878  26.023  0.00  0.00    +0.233 A 
ATOM      9  N   UNL     1       8.945  -0.881  26.661  0.00  0.00    -0.200 NA
ATOM     10  C   UNL     1       9.692  -0.161  25.831  0.00  0.00    +0.227 A 
ATOM     11  N   UNL     1       9.842  -0.340  24.510  0.00  0.00    -0.220 NA
ENDROOT
BRANCH   5  12
ATOM     12  C   UNL     1       7.119  -4.061  23.286  0.00  0.00    -0.014 A 
ATOM     13  C   UNL     1       7.594  -5.355  23.020  0.00  0.00    +0.008 A 
ATOM     14  C   UNL     1       7.202  -6.043  21.867  0.00  0.00    +0.001 A 
ATOM     15  C   UNL     1       6.290  -5.468  20.987  0.00  0.00    +0.000 A 
ATOM     16  C   UNL     1       5.804  -4.189  21.235  0.00  0.00    +0.001 A 
ATOM     17  C   UNL     1       6.245  -3.480  22.358  0.00  0.00    +0.008 A 
ENDBRANCH   5  12
BRANCH   6  18
ATOM     18  C   UNL     1       6.275  -4.724  26.444  0.00  0.00    +0.018 A 
ATOM     19  C   UNL     1       6.485  -5.017  27.804  0.00  0.00    +0.011 A 
ATOM     20  C   UNL     1       5.846  -6.094  28.422  0.00  0.00    +0.001 A 
ATOM     21  C   UNL     1       4.970  -6.891  27.692  0.00  0.00    +0.000 A 
ATOM     22  C   UNL     1       4.729  -6.603  26.350  0.00  0.00    +0.001 A 
ATOM     23  C   UNL     1       5.381  -5.532  25.729  0.00  0.00    +0.011 A 
ENDBRANCH   6  18
BRANCH   1  24
ATOM     24  C   UNL     1       9.885  -0.283  21.834  0.00  0.00    +0.223 C 
BRANCH  24  25
ATOM     25  C   UNL     1       8.767   0.750  21.757  0.00  0.00    +0.322 C 
ATOM     26  O   UNL     1       7.605   0.540  22.049  0.00  0.00    -0.249 OA
BRANCH  25  27
ATOM     27  O   UNL     1       9.215   1.940  21.280  0.00  0.00    -0.480 OA
ATOM     28  H   UNL     1       9.824   1.747  20.524  0.00  0.00    +0.295 HD
ENDBRANCH  25  27
ENDBRANCH  24  25
ENDBRANCH   1  24
TORSDOF 5
ENDMDL
MODEL 3
REMARK VINA RESULT:      -6.6      2.679      4.350
REMARK  Name = 
REMARK  5 active torsions:
REMARK  status: ('A' for Active; 'I' for Inactive)
REMARK    1  A    between atoms: O_1  and  C_2
REMARK    2  A    between atoms: C_2  and  C_4
REMARK    3  A    between atoms: C_4  and  N_5
REMARK    4  A    between atoms: C_12  and  C_21
REMARK    5  A    between atoms: C_13  and  C_15
REMARK                            x       y       z     vdW  Elec       q    Type
REMARK                         _______ _______ _______ _____ _____    ______ ____
ROOT
ATOM      1  N   UNL     1       4.593  -4.729  25.924  0.00  0.00    -0.318 N 
ATOM      2  H   UNL     1       3.789  -4.672  25.294  0.00  0.00    +0.148 HD
ATOM      3  C   UNL     1       4.846  -3.399  26.301  0.00  0.00    +0.134 A 
ATOM      4  C   UNL     1       5.566  -2.491  25.498  0.00  0.00    +0.088 A 
ATOM      5  C   UNL     1       6.270  -2.465  24.230  0.00  0.00    +0.041 A 
ATOM      6  C   UNL     1       6.731  -1.154  24.081  0.00  0.00    +0.146 A 
ATOM      7  O   UNL     1       6.415  -0.433  25.196  0.00  0.00    -0.436 OA
ATOM      8  C   UNL     1       5.713  -1.220  26.036  0.00  0.00    +0.233 A 
ATOM      9  N   UNL     1       5.249  -0.758  27.203  0.00  0.00    -0.200 NA
ATOM     10  C   UNL     1       4.566  -1.689  27.860  0.00  0.00    +0.227 A 
ATOM     11  N   UNL     1       4.338  -2.954  27.475  0.00  0.00    -0.220 NA
ENDROOT
BRANCH   5  12
ATOM     12  C   UNL     1       6.510  -3.545  23.269  0.00  0.00    -0.014 A 
ATOM     13  C   UNL     1       7.371  -4.611  23.571  0.00  0.00    +0.008 A 
ATOM     14  C   UNL     1       7.575  -5.653  22.659  0.00  0.00    +0.001 A 
ATOM     15  C   UNL     1       6.884  -5.670  21.452  0.00  0.00    +0.000 A 
ATOM     16  C   UNL     1       6.023  -4.625  21.136  0.00  0.00    +0.001 A 
ATOM     17  C   UNL     1       5.867  -3.555  22.024  0.00  0.00    +0.008 A 
ENDBRANCH   5  12
BRANCH   6  18
ATOM     18  C   UNL     1       7.396  -0.337  23.060  0.00  0.00    +0.018 A 
ATOM     19  C   UNL     1       8.570  -0.800  22.439  0.00  0.00    +0.011 A 
ATOM     20  C   UNL     1       9.289   0.006  21.553  0.00  0.00    +0.001 A 
ATOM     21  C   UNL     1       8.835   1.288  21.259  0.00  0.00    +0.000 A 
ATOM     22  C   UNL     1       7.662   1.756  21.845  0.00  0.00    +0.001 A 
ATOM     23  C   UNL     1       6.949   0.953  22.743  0.00  0.00    +0.011 A 
ENDBRANCH   6  18
BRANCH   1  24
ATOM     24  C   UNL     1       4.189  -5.595  27.069  0.00  0.00    +0.223 C 
BRANCH  24  25
ATOM     25  C   UNL     1       5.372  -6.483  27.438  0.00  0.00    +0.322 C 
ATOM     26  O   UNL     1       6.510  -6.328  27.036  0.00  0.00    -0.249 OA
BRANCH  25  27
ATOM     27  O   UNL     1       4.999  -7.507  28.248  0.00  0.00    -0.480 OA
ATOM     28  H   UNL     1       5.253  -8.351  27.796  0.00  0.00    +0.295 HD
ENDBRANCH  25  27
ENDBRANCH  24  25
ENDBRANCH   1  24
TORSDOF 5
ENDMDL
MODEL 4
REMARK VINA RESULT:      -6.4      1.999      2.247
REMARK  Name = 
REMARK  5 active torsions:
REMARK  status: ('A' for Active; 'I' for Inactive)
REMARK    1  A    between atoms: O_1  and  C_2
REMARK    2  A    between atoms: C_2  and  C_4
REMARK    3  A    between atoms: C_4  and  N_5
REMARK    4  A    between atoms: C_12  and  C_21
REMARK    5  A    between atoms: C_13  and  C_15
REMARK                            x       y       z     vdW  Elec       q    Type
REMARK                         _______ _______ _______ _____ _____    ______ ____
ROOT
ATOM      1  N   UNL     1       5.903  -4.553  26.350  0.00  0.00    -0.318 N 
ATOM      2  H   UNL     1       6.827  -4.632  26.780  0.00  0.00    +0.148 HD
ATOM      3  C   UNL     1       6.150  -4.573  24.966  0.00  0.00    +0.134 A 
ATOM      4  C   UNL     1       6.564  -3.440  24.237  0.00  0.00    +0.088 A 
ATOM      5  C   UNL     1       6.835  -2.032  24.457  0.00  0.00    +0.041 A 
ATOM      6  C   UNL     1       7.238  -1.528  23.217  0.00  0.00    +0.146 A 
ATOM      7  O   UNL     1       7.152  -2.513  22.277  0.00  0.00    -0.436 OA
ATOM      8  C   UNL     1       6.762  -3.654  22.880  0.00  0.00    +0.233 A 
ATOM      9  N   UNL     1       6.621  -4.795  22.195  0.00  0.00    -0.200 NA
ATOM     10  C   UNL     1       6.256  -5.798  22.985  0.00  0.00    +0.227 A 
ATOM     11  N   UNL     1       6.026  -5.750  24.307  0.00  0.00    -0.220 NA
ENDROOT
BRANCH   5  12
ATOM     12  C   UNL     1       6.714  -1.233  25.680  0.00  0.00    -0.014 A 
ATOM     13  C   UNL     1       7.849  -0.781  26.369  0.00  0.00    +0.008 A 
ATOM     14  C   UNL     1       7.728   0.003  27.521  0.00  0.00    +0.001 A 
ATOM     15  C   UNL     1       6.470   0.389  27.974  0.00  0.00    +0.000 A 
ATOM     16  C   UNL     1       5.333  -0.045  27.302  0.00  0.00    +0.001 A 
ATOM     17  C   UNL     1       5.456  -0.879  26.185  0.00  0.00    +0.008 A 
ENDBRANCH   5  12
BRANCH   6  18
ATOM     18  C   UNL     1       7.770  -0.277  22.664  0.00  0.00    +0.018 A 
ATOM     19  C   UNL     1       9.102  -0.215  22.214  0.00  0.00    +0.011 A 
ATOM     20  C   UNL     1       9.671   0.990  21.795  0.00  0.00    +0.001 A 
ATOM     21  C   UNL     1       8.910   2.155  21.803  0.00  0.00    +0.000 A 
ATOM     22  C   UNL     1       7.583   2.110  22.222  0.00  0.00    +0.001 A 
ATOM     23  C   UNL     1       7.018   0.905  22.654  0.00  0.00    +0.011 A 
ENDBRANCH   6  18
BRANCH   1  24
ATOM     24  C   UNL     1       5.102  -5.721  26.818  0.00  0.00    +0.223 C 
BRANCH  24  25
ATOM     25  C   UNL     1       5.717  -6.234  28.114  0.00  0.00    +0.322 C 
ATOM     26  O   UNL     1       6.437  -5.583  28.848  0.00  0.00    -0.249 OA
BRANCH  25  27
ATOM     27  O   UNL     1       5.398  -7.535  28.341  0.00  0.00    -0.480 OA
ATOM     28  H   UNL     1       6.224  -7.996  28.633  0.00  0.00    +0.295 HD
ENDBRANCH  25  27
ENDBRANCH  24  25
ENDBRANCH   1  24
TORSDOF 5
ENDMDL
MODEL 5
REMARK VINA RESULT:      -6.3      2.559      6.541
REMARK  Name = 
REMARK  5 active torsions:
REMARK  status: ('A' for Active; 'I' for Inactive)
REMARK    1  A    between atoms: O_1  and  C_2
REMARK    2  A    between atoms: C_2  and  C_4
REMARK    3  A    between atoms: C_4  and  N_5
REMARK    4  A    between atoms: C_12  and  C_21
REMARK    5  A    between atoms: C_13  and  C_15
REMARK                            x       y       z     vdW  Elec       q    Type
REMARK                         _______ _______ _______ _____ _____    ______ ____
ROOT
ATOM      1  N   UNL     1       8.421   0.917  24.209  0.00  0.00    -0.318 N 
ATOM      2  H   UNL     1       7.601   0.999  23.602  0.00  0.00    +0.148 HD
ATOM      3  C   UNL     1       8.957  -0.349  23.914  0.00  0.00    +0.134 A 
ATOM      4  C   UNL     1       8.457  -1.549  24.460  0.00  0.00    +0.088 A 
ATOM      5  C   UNL     1       7.436  -1.989  25.392  0.00  0.00    +0.041 A 
ATOM      6  C   UNL     1       7.524  -3.384  25.415  0.00  0.00    +0.146 A 
ATOM      7  O   UNL     1       8.563  -3.786  24.627  0.00  0.00    -0.436 OA
ATOM      8  C   UNL     1       9.114  -2.700  24.049  0.00  0.00    +0.233 A 
ATOM      9  N   UNL     1      10.142  -2.806  23.199  0.00  0.00    -0.200 NA
ATOM     10  C   UNL     1      10.511  -1.619  22.728  0.00  0.00    +0.227 A 
ATOM     11  N   UNL     1       9.979  -0.424  23.028  0.00  0.00    -0.220 NA
ENDROOT
BRANCH   5  12
ATOM     12  C   UNL     1       6.494  -1.202  26.192  0.00  0.00    -0.014 A 
ATOM     13  C   UNL     1       5.108  -1.310  25.999  0.00  0.00    +0.008 A 
ATOM     14  C   UNL     1       4.212  -0.576  26.784  0.00  0.00    +0.001 A 
ATOM     15  C   UNL     1       4.686   0.241  27.806  0.00  0.00    +0.000 A 
ATOM     16  C   UNL     1       6.056   0.357  28.016  0.00  0.00    +0.001 A 
ATOM     17  C   UNL     1       6.951  -0.332  27.190  0.00  0.00    +0.008 A 
ENDBRANCH   5  12
BRANCH   6  18
ATOM     18  C   UNL     1       6.792  -4.517  25.991  0.00  0.00    +0.018 A 
ATOM     19  C   UNL     1       5.970  -5.316  25.174  0.00  0.00    +0.011 A 
ATOM     20  C   UNL     1       5.171  -6.326  25.715  0.00  0.00    +0.001 A 
ATOM     21  C   UNL     1       5.191  -6.566  27.086  0.00  0.00    +0.000 A 
ATOM     22  C   UNL     1       6.016  -5.802  27.908  0.00  0.00    +0.001 A 
ATOM     23  C   UNL     1       6.806  -4.782  27.367  0.00  0.00    +0.011 A 
ENDBRANCH   6  18
BRANCH   1  24
ATOM     24  C   UNL     1       9.339   2.038  23.859  0.00  0.00    +0.223 C 
BRANCH  24  25
ATOM     25  C   UNL     1       8.912   2.601  22.508  0.00  0.00    +0.322 C 
ATOM     26  O   UNL     1       7.910   3.264  22.316  0.00  0.00    -0.249 OA
BRANCH  25  27
ATOM     27  O   UNL     1       9.770   2.241  21.519  0.00  0.00    -0.480 OA
ATOM     28  H   UNL     1       9.229   1.885  20.771  0.00  0.00    +0.295 HD
ENDBRANCH  25  27
ENDBRANCH  24  25
ENDBRANCH   1  24
TORSDOF 5
ENDMDL
MODEL 6
REMARK VINA RESULT:      -6.2      2.678      4.466
REMARK  Name = 
REMARK  5 active torsions:
REMARK  status: ('A' for Active; 'I' for Inactive)
REMARK    1  A    between atoms: O_1  and  C_2
REMARK    2  A    between atoms: C_2  and  C_4
REMARK    3  A    between atoms: C_4  and  N_5
REMARK    4  A    between atoms: C_12  and  C_21
REMARK    5  A    between atoms: C_13  and  C_15
REMARK                            x       y       z     vdW  Elec       q    Type
REMARK                         _______ _______ _______ _____ _____    ______ ____
ROOT
ATOM      1  N   UNL     1       6.744  -3.949  25.013  0.00  0.00    -0.318 N 
ATOM      2  H   UNL     1       6.475  -4.163  24.050  0.00  0.00    +0.148 HD
ATOM      3  C   UNL     1       5.771  -3.038  25.460  0.00  0.00    +0.134 A 
ATOM      4  C   UNL     1       5.807  -1.660  25.164  0.00  0.00    +0.088 A 
ATOM      5  C   UNL     1       6.654  -0.707  24.473  0.00  0.00    +0.041 A 
ATOM      6  C   UNL     1       6.007   0.526  24.587  0.00  0.00    +0.146 A 
ATOM      7  O   UNL     1       4.887   0.381  25.354  0.00  0.00    -0.436 OA
ATOM      8  C   UNL     1       4.758  -0.918  25.690  0.00  0.00    +0.233 A 
ATOM      9  N   UNL     1       3.726  -1.352  26.423  0.00  0.00    -0.200 NA
ATOM     10  C   UNL     1       3.781  -2.665  26.616  0.00  0.00    +0.227 A 
ATOM     11  N   UNL     1       4.724  -3.513  26.176  0.00  0.00    -0.220 NA
ENDROOT
BRANCH   5  12
ATOM     12  C   UNL     1       7.938  -0.912  23.796  0.00  0.00    -0.014 A 
ATOM     13  C   UNL     1       9.147  -0.528  24.396  0.00  0.00    +0.008 A 
ATOM     14  C   UNL     1      10.371  -0.750  23.756  0.00  0.00    +0.001 A 
ATOM     15  C   UNL     1      10.410  -1.405  22.529  0.00  0.00    +0.000 A 
ATOM     16  C   UNL     1       9.223  -1.798  21.920  0.00  0.00    +0.001 A 
ATOM     17  C   UNL     1       7.996  -1.520  22.535  0.00  0.00    +0.008 A 
ENDBRANCH   5  12
BRANCH   6  18
ATOM     18  C   UNL     1       6.158   1.894  24.078  0.00  0.00    +0.018 A 
ATOM     19  C   UNL     1       6.290   2.122  22.696  0.00  0.00    +0.011 A 
ATOM     20  C   UNL     1       6.554   3.398  22.193  0.00  0.00    +0.001 A 
ATOM     21  C   UNL     1       6.675   4.475  23.066  0.00  0.00    +0.000 A 
ATOM     22  C   UNL     1       6.524   4.274  24.435  0.00  0.00    +0.001 A 
ATOM     23  C   UNL     1       6.272   2.993  24.939  0.00  0.00    +0.011 A 
ENDBRANCH   6  18
BRANCH   1  24
ATOM     24  C   UNL     1       6.731  -5.235  25.767  0.00  0.00    +0.223 C 
BRANCH  24  25
ATOM     25  C   UNL     1       7.879  -5.213  26.770  0.00  0.00    +0.322 C 
ATOM     26  O   UNL     1       8.907  -4.577  26.636  0.00  0.00    -0.249 OA
BRANCH  25  27
ATOM     27  O   UNL     1       7.638  -6.029  27.829  0.00  0.00    -0.480 OA
ATOM     28  H   UNL     1       6.705  -6.352  27.748  0.00  0.00    +0.295 HD
ENDBRANCH  25  27
ENDBRANCH  24  25
ENDBRANCH   1  24
TORSDOF 5
ENDMDL
MODEL 7
REMARK VINA RESULT:      -6.2      3.134      7.285
REMARK  Name = 
REMARK  5 active torsions:
REMARK  status: ('A' for Active; 'I' for Inactive)
REMARK    1  A    between atoms: O_1  and  C_2
REMARK    2  A    between atoms: C_2  and  C_4
REMARK    3  A    between atoms: C_4  and  N_5
REMARK    4  A    between atoms: C_12  and  C_21
REMARK    5  A    between atoms: C_13  and  C_15
REMARK                            x       y       z     vdW  Elec       q    Type
REMARK                         _______ _______ _______ _____ _____    ______ ____
ROOT
ATOM      1  N   UNL     1       9.505  -2.141  23.348  0.00  0.00    -0.318 N 
ATOM      2  H   UNL     1       9.998  -3.004  23.587  0.00  0.00    +0.148 HD
ATOM      3  C   UNL     1       8.910  -1.726  24.552  0.00  0.00    +0.134 A 
ATOM      4  C   UNL     1       7.700  -2.259  25.043  0.00  0.00    +0.088 A 
ATOM      5  C   UNL     1       6.686  -3.219  24.652  0.00  0.00    +0.041 A 
ATOM      6  C   UNL     1       5.756  -3.231  25.696  0.00  0.00    +0.146 A 
ATOM      7  O   UNL     1       6.109  -2.299  26.628  0.00  0.00    -0.436 OA
ATOM      8  C   UNL     1       7.270  -1.727  26.250  0.00  0.00    +0.233 A 
ATOM      9  N   UNL     1       7.864  -0.791  26.998  0.00  0.00    -0.200 NA
ATOM     10  C   UNL     1       9.006  -0.382  26.455  0.00  0.00    +0.227 A 
ATOM     11  N   UNL     1       9.551  -0.797  25.301  0.00  0.00    -0.220 NA
ENDROOT
BRANCH   5  12
ATOM     12  C   UNL     1       6.577  -4.026  23.433  0.00  0.00    -0.014 A 
ATOM     13  C   UNL     1       5.995  -3.506  22.267  0.00  0.00    +0.008 A 
ATOM     14  C   UNL     1       5.918  -4.272  21.098  0.00  0.00    +0.001 A 
ATOM     15  C   UNL     1       6.465  -5.550  21.062  0.00  0.00    +0.000 A 
ATOM     16  C   UNL     1       7.051  -6.081  22.207  0.00  0.00    +0.001 A 
ATOM     17  C   UNL     1       7.072  -5.336  23.391  0.00  0.00    +0.008 A 
ENDBRANCH   5  12
BRANCH   6  18
ATOM     18  C   UNL     1       4.562  -3.986  26.090  0.00  0.00    +0.018 A 
ATOM     19  C   UNL     1       3.338  -3.768  25.430  0.00  0.00    +0.011 A 
ATOM     20  C   UNL     1       2.160  -4.384  25.861  0.00  0.00    +0.001 A 
ATOM     21  C   UNL     1       2.189  -5.244  26.954  0.00  0.00    +0.000 A 
ATOM     22  C   UNL     1       3.395  -5.492  27.606  0.00  0.00    +0.001 A 
ATOM     23  C   UNL     1       4.571  -4.864  27.182  0.00  0.00    +0.011 A 
ENDBRANCH   6  18
BRANCH   1  24
ATOM     24  C   UNL     1      10.524  -1.180  22.838  0.00  0.00    +0.223 C 
BRANCH  24  25
ATOM     25  C   UNL     1       9.838  -0.225  21.868  0.00  0.00    +0.322 C 
ATOM     26  O   UNL     1       9.663   0.962  22.069  0.00  0.00    -0.249 OA
BRANCH  25  27
ATOM     27  O   UNL     1       9.402  -0.867  20.754  0.00  0.00    -0.480 OA
ATOM     28  H   UNL     1       8.597  -1.385  21.006  0.00  0.00    +0.295 HD
ENDBRANCH  25  27
ENDBRANCH  24  25
ENDBRANCH   1  24
TORSDOF 5
ENDMDL
MODEL 8
REMARK VINA RESULT:      -6.1      2.420      4.769
REMARK  Name = 
REMARK  5 active torsions:
REMARK  status: ('A' for Active; 'I' for Inactive)
REMARK    1  A    between atoms: O_1  and  C_2
REMARK    2  A    between atoms: C_2  and  C_4
REMARK    3  A    between atoms: C_4  and  N_5
REMARK    4  A    between atoms: C_12  and  C_21
REMARK    5  A    between atoms: C_13  and  C_15
REMARK                            x       y       z     vdW  Elec       q    Type
REMARK                         _______ _______ _______ _____ _____    ______ ____
ROOT
ATOM      1  N   UNL     1       8.083  -3.524  24.032  0.00  0.00    -0.318 N 
ATOM      2  H   UNL     1       8.031  -3.397  23.018  0.00  0.00    +0.148 HD
ATOM      3  C   UNL     1       6.809  -3.161  24.502  0.00  0.00    +0.134 A 
ATOM      4  C   UNL     1       6.412  -1.824  24.710  0.00  0.00    +0.088 A 
ATOM      5  C   UNL     1       6.967  -0.487  24.618  0.00  0.00    +0.041 A 
ATOM      6  C   UNL     1       5.929   0.377  24.977  0.00  0.00    +0.146 A 
ATOM      7  O   UNL     1       4.836  -0.353  25.342  0.00  0.00    -0.436 OA
ATOM      8  C   UNL     1       5.115  -1.662  25.175  0.00  0.00    +0.233 A 
ATOM      9  N   UNL     1       4.206  -2.609  25.434  0.00  0.00    -0.200 NA
ATOM     10  C   UNL     1       4.679  -3.824  25.178  0.00  0.00    +0.227 A 
ATOM     11  N   UNL     1       5.902  -4.142  24.727  0.00  0.00    -0.220 NA
ENDROOT
BRANCH   5  12
ATOM     12  C   UNL     1       8.321  -0.056  24.256  0.00  0.00    -0.014 A 
ATOM     13  C   UNL     1       8.621   0.386  22.958  0.00  0.00    +0.008 A 
ATOM     14  C   UNL     1       9.908   0.821  22.626  0.00  0.00    +0.001 A 
ATOM     15  C   UNL     1      10.903   0.868  23.597  0.00  0.00    +0.000 A 
ATOM     16  C   UNL     1      10.624   0.438  24.890  0.00  0.00    +0.001 A 
ATOM     17  C   UNL     1       9.352  -0.053  25.204  0.00  0.00    +0.008 A 
ENDBRANCH   5  12
BRANCH   6  18
ATOM     18  C   UNL     1       5.671   1.821  25.017  0.00  0.00    +0.018 A 
ATOM     19  C   UNL     1       5.080   2.463  23.913  0.00  0.00    +0.011 A 
ATOM     20  C   UNL     1       4.932   3.852  23.874  0.00  0.00    +0.001 A 
ATOM     21  C   UNL     1       5.359   4.624  24.951  0.00  0.00    +0.000 A 
ATOM     22  C   UNL     1       5.924   4.005  26.063  0.00  0.00    +0.001 A 
ATOM     23  C   UNL     1       6.084   2.615  26.095  0.00  0.00    +0.011 A 
ENDBRANCH   6  18
BRANCH   1  24
ATOM     24  C   UNL     1       8.411  -4.957  24.277  0.00  0.00    +0.223 C 
BRANCH  24  25
ATOM     25  C   UNL     1       9.288  -5.042  25.520  0.00  0.00    +0.322 C 
ATOM     26  O   UNL     1       8.917  -4.792  26.651  0.00  0.00    -0.249 OA
BRANCH  25  27
ATOM     27  O   UNL     1      10.563  -5.396  25.213  0.00  0.00    -0.480 OA
ATOM     28  H   UNL     1      11.124  -4.584  25.293  0.00  0.00    +0.295 HD
ENDBRANCH  25  27
ENDBRANCH  24  25
ENDBRANCH   1  24
TORSDOF 5
ENDMDL
MODEL 9
REMARK VINA RESULT:      -6.1      2.995      4.104
REMARK  Name = 
REMARK  5 active torsions:
REMARK  status: ('A' for Active; 'I' for Inactive)
REMARK    1  A    between atoms: O_1  and  C_2
REMARK    2  A    between atoms: C_2  and  C_4
REMARK    3  A    between atoms: C_4  and  N_5
REMARK    4  A    between atoms: C_12  and  C_21
REMARK    5  A    between atoms: C_13  and  C_15
REMARK                            x       y       z     vdW  Elec       q    Type
REMARK                         _______ _______ _______ _____ _____    ______ ____
ROOT
ATOM      1  N   UNL     1       7.580  -1.707  24.914  0.00  0.00    -0.318 N 
ATOM      2  H   UNL     1       8.245  -1.547  25.675  0.00  0.00    +0.148 HD
ATOM      3  C   UNL     1       8.219  -1.198  23.770  0.00  0.00    +0.134 A 
ATOM      4  C   UNL     1       8.238   0.172  23.438  0.00  0.00    +0.088 A 
ATOM      5  C   UNL     1       7.715   1.430  23.938  0.00  0.00    +0.041 A 
ATOM      6  C   UNL     1       8.184   2.409  23.058  0.00  0.00    +0.146 A 
ATOM      7  O   UNL     1       8.877   1.813  22.044  0.00  0.00    -0.436 OA
ATOM      8  C   UNL     1       8.921   0.485  22.271  0.00  0.00    +0.233 A 
ATOM      9  N   UNL     1       9.564  -0.346  21.443  0.00  0.00    -0.200 NA
ATOM     10  C   UNL     1       9.504  -1.603  21.868  0.00  0.00    +0.227 A 
ATOM     11  N   UNL     1       8.886  -2.062  22.967  0.00  0.00    -0.220 NA
ENDROOT
BRANCH   5  12
ATOM     12  C   UNL     1       6.855   1.695  25.095  0.00  0.00    -0.014 A 
ATOM     13  C   UNL     1       7.370   2.269  26.267  0.00  0.00    +0.008 A 
ATOM     14  C   UNL     1       6.539   2.544  27.359  0.00  0.00    +0.001 A 
ATOM     15  C   UNL     1       5.173   2.296  27.277  0.00  0.00    +0.000 A 
ATOM     16  C   UNL     1       4.643   1.732  26.122  0.00  0.00    +0.001 A 
ATOM     17  C   UNL     1       5.486   1.402  25.054  0.00  0.00    +0.008 A 
ENDBRANCH   5  12
BRANCH   6  18
ATOM     18  C   UNL     1       8.190   3.872  22.950  0.00  0.00    +0.018 A 
ATOM     19  C   UNL     1       9.132   4.630  23.671  0.00  0.00    +0.011 A 
ATOM     20  C   UNL     1       9.085   6.026  23.682  0.00  0.00    +0.001 A 
ATOM     21  C   UNL     1       8.103   6.691  22.955  0.00  0.00    +0.000 A 
ATOM     22  C   UNL     1       7.177   5.961  22.215  0.00  0.00    +0.001 A 
ATOM     23  C   UNL     1       7.216   4.562  22.216  0.00  0.00    +0.011 A 
ENDBRANCH   6  18
BRANCH   1  24
ATOM     24  C   UNL     1       7.341  -3.177  24.846  0.00  0.00    +0.223 C 
BRANCH  24  25
ATOM     25  C   UNL     1       8.325  -3.867  25.783  0.00  0.00    +0.322 C 
ATOM     26  O   UNL     1       8.139  -4.057  26.970  0.00  0.00    -0.249 OA
BRANCH  25  27
ATOM     27  O   UNL     1       9.470  -4.215  25.141  0.00  0.00    -0.480 OA
ATOM     28  H   UNL     1      10.212  -3.717  25.567  0.00  0.00    +0.295 HD
ENDBRANCH  25  27
ENDBRANCH  24  25
ENDBRANCH   1  24
TORSDOF 5
ENDMDL
