MODEL 1
REMARK VINA RESULT:      -4.9      0.000      0.000
REMARK  Name = 
REMARK  6 active torsions:
REMARK  status: ('A' for Active; 'I' for Inactive)
REMARK    1  A    between atoms: N_1  and  C_2
REMARK    2  A    between atoms: C_2  and  C_3
REMARK    3  A    between atoms: C_3  and  O_5
REMARK    4  A    between atoms: C_3  and  C_6
REMARK    5  A    between atoms: C_8  and  O_9
REMARK    6  A    between atoms: C_10  and  O_11
REMARK                            x       y       z     vdW  Elec       q    Type
REMARK                         _______ _______ _______ _____ _____    ______ ____
ROOT
ATOM      1  C   UNL     1       8.165  -4.863  23.995  0.00  0.00    -0.014 A 
ATOM      2  C   UNL     1       7.732  -5.749  22.991  0.00  0.00    +0.010 A 
ATOM      3  C   UNL     1       6.874  -5.315  21.977  0.00  0.00    +0.049 A 
ATOM      4  C   UNL     1       6.450  -3.998  21.966  0.00  0.00    +0.158 A 
ATOM      5  C   UNL     1       6.882  -3.103  22.943  0.00  0.00    +0.159 A 
ATOM      6  C   UNL     1       7.732  -3.524  23.958  0.00  0.00    +0.055 A 
ENDROOT
BRANCH   4   7
ATOM      7  O   UNL     1       5.590  -3.582  20.993  0.00  0.00    -0.503 OA
ATOM      8  H   UNL     1       6.164  -3.160  20.322  0.00  0.00    +0.292 HD
ENDBRANCH   4   7
BRANCH   5   9
ATOM      9  O   UNL     1       6.426  -1.815  22.870  0.00  0.00    -0.503 OA
ATOM     10  H   UNL     1       6.285  -1.494  23.778  0.00  0.00    +0.292 HD
ENDBRANCH   5   9
BRANCH   1  11
ATOM     11  C   UNL     1       9.014  -5.389  25.134  0.00  0.00    +0.158 C 
BRANCH  11  12
ATOM     12  O   UNL     1      10.397  -5.095  24.904  0.00  0.00    -0.386 OA
ATOM     13  H   UNL     1      10.581  -5.377  23.991  0.00  0.00    +0.210 HD
ENDBRANCH  11  12
BRANCH  11  14
ATOM     14  C   UNL     1       8.571  -4.758  26.474  0.00  0.00    +0.114 C 
BRANCH  14  15
ATOM     15  N   UNL     1       7.877  -5.721  27.339  0.00  0.00    -0.327 NA
ATOM     16  H   UNL     1       8.586  -6.165  27.929  0.00  0.00    +0.118 HD
ATOM     17  H   UNL     1       7.259  -5.212  27.970  0.00  0.00    +0.118 HD
ENDBRANCH  14  15
ENDBRANCH  11  14
ENDBRANCH   1  11
TORSDOF 6
ENDMDL
MODEL 2
REMARK VINA RESULT:      -4.9      3.632      4.983
REMARK  Name = 
REMARK  6 active torsions:
REMARK  status: ('A' for Active; 'I' for Inactive)
REMARK    1  A    between atoms: N_1  and  C_2
REMARK    2  A    between atoms: C_2  and  C_3
REMARK    3  A    between atoms: C_3  and  O_5
REMARK    4  A    between atoms: C_3  and  C_6
REMARK    5  A    between atoms: C_8  and  O_9
REMARK    6  A    between atoms: C_10  and  O_11
REMARK                            x       y       z     vdW  Elec       q    Type
REMARK                         _______ _______ _______ _____ _____    ______ ____
ROOT
ATOM      1  C   UNL     1       8.743  -2.629  24.865  0.00  0.00    -0.014 A 
ATOM      2  C   UNL     1       7.760  -2.538  25.868  0.00  0.00    +0.010 A 
ATOM      3  C   UNL     1       7.510  -3.615  26.723  0.00  0.00    +0.049 A 
ATOM      4  C   UNL     1       8.241  -4.781  26.574  0.00  0.00    +0.158 A 
ATOM      5  C   UNL     1       9.228  -4.883  25.597  0.00  0.00    +0.159 A 
ATOM      6  C   UNL     1       9.484  -3.819  24.740  0.00  0.00    +0.055 A 
ENDROOT
BRANCH   4   7
ATOM      7  O   UNL     1       7.976  -5.843  27.389  0.00  0.00    -0.503 OA
ATOM      8  H   UNL     1       7.676  -5.438  28.229  0.00  0.00    +0.292 HD
ENDBRANCH   4   7
BRANCH   5   9
ATOM      9  O   UNL     1       9.915  -6.063  25.508  0.00  0.00    -0.503 OA
ATOM     10  H   UNL     1      10.656  -5.934  24.891  0.00  0.00    +0.292 HD
ENDBRANCH   5   9
BRANCH   1  11
ATOM     11  C   UNL     1       8.920  -1.480  23.893  0.00  0.00    +0.158 C 
BRANCH  11  12
ATOM     12  O   UNL     1      10.158  -0.803  24.141  0.00  0.00    -0.386 OA
ATOM     13  H   UNL     1      10.855  -1.470  24.019  0.00  0.00    +0.210 HD
ENDBRANCH  11  12
BRANCH  11  14
ATOM     14  C   UNL     1       8.901  -1.998  22.437  0.00  0.00    +0.114 C 
BRANCH  14  15
ATOM     15  N   UNL     1      10.087  -1.571  21.681  0.00  0.00    -0.327 NA
ATOM     16  H   UNL     1      10.108  -0.548  21.701  0.00  0.00    +0.118 HD
ATOM     17  H   UNL     1      10.922  -1.883  22.174  0.00  0.00    +0.118 HD
ENDBRANCH  14  15
ENDBRANCH  11  14
ENDBRANCH   1  11
TORSDOF 6
ENDMDL
MODEL 3
REMARK VINA RESULT:      -4.8      4.016      4.799
REMARK  Name = 
REMARK  6 active torsions:
REMARK  status: ('A' for Active; 'I' for Inactive)
REMARK    1  A    between atoms: N_1  and  C_2
REMARK    2  A    between atoms: C_2  and  C_3
REMARK    3  A    between atoms: C_3  and  O_5
REMARK    4  A    between atoms: C_3  and  C_6
REMARK    5  A    between atoms: C_8  and  O_9
REMARK    6  A    between atoms: C_10  and  O_11
REMARK                            x       y       z     vdW  Elec       q    Type
REMARK                         _______ _______ _______ _____ _____    ______ ____
ROOT
ATOM      1  C   UNL     1       9.640  -1.532  23.447  0.00  0.00    -0.014 A 
ATOM      2  C   UNL     1       9.283  -1.394  22.093  0.00  0.00    +0.010 A 
ATOM      3  C   UNL     1       9.439  -0.172  21.433  0.00  0.00    +0.049 A 
ATOM      4  C   UNL     1       9.952   0.911  22.126  0.00  0.00    +0.158 A 
ATOM      5  C   UNL     1      10.325   0.788  23.462  0.00  0.00    +0.159 A 
ATOM      6  C   UNL     1      10.171  -0.421  24.130  0.00  0.00    +0.055 A 
ENDROOT
BRANCH   4   7
ATOM      7  O   UNL     1      10.077   2.111  21.490  0.00  0.00    -0.503 OA
ATOM      8  H   UNL     1      10.164   2.764  22.214  0.00  0.00    +0.292 HD
ENDBRANCH   4   7
BRANCH   5   9
ATOM      9  O   UNL     1      10.827   1.898  24.086  0.00  0.00    -0.503 OA
ATOM     10  H   UNL     1      11.363   2.390  23.439  0.00  0.00    +0.292 HD
ENDBRANCH   5   9
BRANCH   1  11
ATOM     11  C   UNL     1       9.365  -2.841  24.158  0.00  0.00    +0.158 C 
BRANCH  11  12
ATOM     12  O   UNL     1       8.956  -2.599  25.509  0.00  0.00    -0.386 OA
ATOM     13  H   UNL     1       9.580  -1.942  25.862  0.00  0.00    +0.210 HD
ENDBRANCH  11  12
BRANCH  11  14
ATOM     14  C   UNL     1       8.261  -3.633  23.422  0.00  0.00    +0.114 C 
BRANCH  14  15
ATOM     15  N   UNL     1       8.319  -5.071  23.717  0.00  0.00    -0.327 NA
ATOM     16  H   UNL     1       9.045  -5.207  24.426  0.00  0.00    +0.118 HD
ATOM     17  H   UNL     1       7.442  -5.355  24.151  0.00  0.00    +0.118 HD
ENDBRANCH  14  15
ENDBRANCH  11  14
ENDBRANCH   1  11
TORSDOF 6
ENDMDL
MODEL 4
REMARK VINA RESULT:      -4.8      4.606      5.691
REMARK  Name = 
REMARK  6 active torsions:
REMARK  status: ('A' for Active; 'I' for Inactive)
REMARK    1  A    between atoms: N_1  and  C_2
REMARK    2  A    between atoms: C_2  and  C_3
REMARK    3  A    between atoms: C_3  and  O_5
REMARK    4  A    between atoms: C_3  and  C_6
REMARK    5  A    between atoms: C_8  and  O_9
REMARK    6  A    between atoms: C_10  and  O_11
REMARK                            x       y       z     vdW  Elec       q    Type
REMARK                         _______ _______ _______ _____ _____    ______ ____
ROOT
ATOM      1  C   UNL     1       9.676  -0.934  23.286  0.00  0.00    -0.014 A 
ATOM      2  C   UNL     1      10.190  -0.478  24.514  0.00  0.00    +0.010 A 
ATOM      3  C   UNL     1      10.592   0.851  24.672  0.00  0.00    +0.049 A 
ATOM      4  C   UNL     1      10.481   1.723  23.603  0.00  0.00    +0.158 A 
ATOM      5  C   UNL     1       9.960   1.293  22.385  0.00  0.00    +0.159 A 
ATOM      6  C   UNL     1       9.559  -0.027  22.216  0.00  0.00    +0.055 A 
ENDROOT
BRANCH   4   7
ATOM      7  O   UNL     1      10.900   3.013  23.748  0.00  0.00    -0.503 OA
ATOM      8  H   UNL     1      11.012   3.338  22.832  0.00  0.00    +0.292 HD
ENDBRANCH   4   7
BRANCH   5   9
ATOM      9  O   UNL     1       9.875   2.209  21.371  0.00  0.00    -0.503 OA
ATOM     10  H   UNL     1      10.768   2.561  21.209  0.00  0.00    +0.292 HD
ENDBRANCH   5   9
BRANCH   1  11
ATOM     11  C   UNL     1       9.343  -2.403  23.120  0.00  0.00    +0.158 C 
BRANCH  11  12
ATOM     12  O   UNL     1      10.123  -3.197  24.021  0.00  0.00    -0.386 OA
ATOM     13  H   UNL     1      10.954  -2.709  24.154  0.00  0.00    +0.210 HD
ENDBRANCH  11  12
BRANCH  11  14
ATOM     14  C   UNL     1       7.841  -2.649  23.388  0.00  0.00    +0.114 C 
BRANCH  14  15
ATOM     15  N   UNL     1       7.125  -3.083  22.181  0.00  0.00    -0.327 NA
ATOM     16  H   UNL     1       6.668  -2.256  21.785  0.00  0.00    +0.118 HD
ATOM     17  H   UNL     1       7.804  -3.392  21.487  0.00  0.00    +0.118 HD
ENDBRANCH  14  15
ENDBRANCH  11  14
ENDBRANCH   1  11
TORSDOF 6
ENDMDL
MODEL 5
REMARK VINA RESULT:      -4.7      2.439      2.872
REMARK  Name = 
REMARK  6 active torsions:
REMARK  status: ('A' for Active; 'I' for Inactive)
REMARK    1  A    between atoms: N_1  and  C_2
REMARK    2  A    between atoms: C_2  and  C_3
REMARK    3  A    between atoms: C_3  and  O_5
REMARK    4  A    between atoms: C_3  and  C_6
REMARK    5  A    between atoms: C_8  and  O_9
REMARK    6  A    between atoms: C_10  and  O_11
REMARK                            x       y       z     vdW  Elec       q    Type
REMARK                         _______ _______ _______ _____ _____    ______ ____
ROOT
ATOM      1  C   UNL     1       7.100  -5.142  24.867  0.00  0.00    -0.014 A 
ATOM      2  C   UNL     1       7.490  -4.653  23.607  0.00  0.00    +0.010 A 
ATOM      3  C   UNL     1       6.804  -5.031  22.450  0.00  0.00    +0.049 A 
ATOM      4  C   UNL     1       5.730  -5.898  22.553  0.00  0.00    +0.158 A 
ATOM      5  C   UNL     1       5.321  -6.381  23.794  0.00  0.00    +0.159 A 
ATOM      6  C   UNL     1       5.998  -6.013  24.951  0.00  0.00    +0.055 A 
ENDROOT
BRANCH   4   7
ATOM      7  O   UNL     1       5.078  -6.291  21.420  0.00  0.00    -0.503 OA
ATOM      8  H   UNL     1       5.202  -7.261  21.391  0.00  0.00    +0.292 HD
ENDBRANCH   4   7
BRANCH   5   9
ATOM      9  O   UNL     1       4.250  -7.232  23.823  0.00  0.00    -0.503 OA
ATOM     10  H   UNL     1       3.526  -6.789  24.299  0.00  0.00    +0.292 HD
ENDBRANCH   5   9
BRANCH   1  11
ATOM     11  C   UNL     1       7.926  -4.791  26.088  0.00  0.00    +0.158 C 
BRANCH  11  12
ATOM     12  O   UNL     1       7.962  -5.895  27.001  0.00  0.00    -0.386 OA
ATOM     13  H   UNL     1       8.896  -6.159  27.062  0.00  0.00    +0.210 HD
ENDBRANCH  11  12
BRANCH  11  14
ATOM     14  C   UNL     1       9.369  -4.420  25.675  0.00  0.00    +0.114 C 
BRANCH  14  15
ATOM     15  N   UNL     1      10.214  -5.607  25.484  0.00  0.00    -0.327 NA
ATOM     16  H   UNL     1      10.954  -5.568  26.190  0.00  0.00    +0.118 HD
ATOM     17  H   UNL     1       9.665  -6.440  25.693  0.00  0.00    +0.118 HD
ENDBRANCH  14  15
ENDBRANCH  11  14
ENDBRANCH   1  11
TORSDOF 6
ENDMDL
MODEL 6
REMARK VINA RESULT:      -4.7      2.982      4.019
REMARK  Name = 
REMARK  6 active torsions:
REMARK  status: ('A' for Active; 'I' for Inactive)
REMARK    1  A    between atoms: N_1  and  C_2
REMARK    2  A    between atoms: C_2  and  C_3
REMARK    3  A    between atoms: C_3  and  O_5
REMARK    4  A    between atoms: C_3  and  C_6
REMARK    5  A    between atoms: C_8  and  O_9
REMARK    6  A    between atoms: C_10  and  O_11
REMARK                            x       y       z     vdW  Elec       q    Type
REMARK                         _______ _______ _______ _____ _____    ______ ____
ROOT
ATOM      1  C   UNL     1       9.038  -3.168  24.839  0.00  0.00    -0.014 A 
ATOM      2  C   UNL     1       8.521  -2.498  25.963  0.00  0.00    +0.010 A 
ATOM      3  C   UNL     1       8.726  -1.127  26.136  0.00  0.00    +0.049 A 
ATOM      4  C   UNL     1       9.448  -0.426  25.185  0.00  0.00    +0.158 A 
ATOM      5  C   UNL     1       9.953  -1.069  24.058  0.00  0.00    +0.159 A 
ATOM      6  C   UNL     1       9.758  -2.433  23.878  0.00  0.00    +0.055 A 
ENDROOT
BRANCH   4   7
ATOM      7  O   UNL     1       9.673   0.908  25.368  0.00  0.00    -0.503 OA
ATOM      8  H   UNL     1       8.917   1.211  25.910  0.00  0.00    +0.292 HD
ENDBRANCH   4   7
BRANCH   5   9
ATOM      9  O   UNL     1      10.655  -0.315  23.157  0.00  0.00    -0.503 OA
ATOM     10  H   UNL     1      10.412   0.618  23.291  0.00  0.00    +0.292 HD
ENDBRANCH   5   9
BRANCH   1  11
ATOM     11  C   UNL     1       8.882  -4.671  24.733  0.00  0.00    +0.158 C 
BRANCH  11  12
ATOM     12  O   UNL     1      10.107  -5.325  25.086  0.00  0.00    -0.386 OA
ATOM     13  H   UNL     1       9.853  -6.206  25.412  0.00  0.00    +0.210 HD
ENDBRANCH  11  12
BRANCH  11  14
ATOM     14  C   UNL     1       7.751  -5.163  25.665  0.00  0.00    +0.114 C 
BRANCH  14  15
ATOM     15  N   UNL     1       8.271  -5.875  26.840  0.00  0.00    -0.327 NA
ATOM     16  H   UNL     1       9.173  -6.280  26.576  0.00  0.00    +0.118 HD
ATOM     17  H   UNL     1       8.468  -5.198  27.576  0.00  0.00    +0.118 HD
ENDBRANCH  14  15
ENDBRANCH  11  14
ENDBRANCH   1  11
TORSDOF 6
ENDMDL
MODEL 7
REMARK VINA RESULT:      -4.7      2.409      2.793
REMARK  Name = 
REMARK  6 active torsions:
REMARK  status: ('A' for Active; 'I' for Inactive)
REMARK    1  A    between atoms: N_1  and  C_2
REMARK    2  A    between atoms: C_2  and  C_3
REMARK    3  A    between atoms: C_3  and  O_5
REMARK    4  A    between atoms: C_3  and  C_6
REMARK    5  A    between atoms: C_8  and  O_9
REMARK    6  A    between atoms: C_10  and  O_11
REMARK                            x       y       z     vdW  Elec       q    Type
REMARK                         _______ _______ _______ _____ _____    ______ ____
ROOT
ATOM      1  C   UNL     1       6.925  -5.270  25.037  0.00  0.00    -0.014 A 
ATOM      2  C   UNL     1       5.708  -5.777  25.528  0.00  0.00    +0.010 A 
ATOM      3  C   UNL     1       4.671  -6.116  24.655  0.00  0.00    +0.049 A 
ATOM      4  C   UNL     1       4.851  -5.947  23.293  0.00  0.00    +0.158 A 
ATOM      5  C   UNL     1       6.054  -5.461  22.788  0.00  0.00    +0.159 A 
ATOM      6  C   UNL     1       7.091  -5.118  23.647  0.00  0.00    +0.055 A 
ENDROOT
BRANCH   4   7
ATOM      7  O   UNL     1       3.827  -6.251  22.442  0.00  0.00    -0.503 OA
ATOM      8  H   UNL     1       3.131  -6.622  23.020  0.00  0.00    +0.292 HD
ENDBRANCH   4   7
BRANCH   5   9
ATOM      9  O   UNL     1       6.165  -5.322  21.431  0.00  0.00    -0.503 OA
ATOM     10  H   UNL     1       5.277  -5.418  21.046  0.00  0.00    +0.292 HD
ENDBRANCH   5   9
BRANCH   1  11
ATOM     11  C   UNL     1       7.990  -4.820  26.016  0.00  0.00    +0.158 C 
BRANCH  11  12
ATOM     12  O   UNL     1       8.245  -5.845  26.983  0.00  0.00    -0.386 OA
ATOM     13  H   UNL     1       9.178  -5.746  27.237  0.00  0.00    +0.210 HD
ENDBRANCH  11  12
BRANCH  11  14
ATOM     14  C   UNL     1       9.301  -4.483  25.269  0.00  0.00    +0.114 C 
BRANCH  14  15
ATOM     15  N   UNL     1      10.311  -5.540  25.416  0.00  0.00    -0.327 NA
ATOM     16  H   UNL     1       9.976  -6.181  26.140  0.00  0.00    +0.118 HD
ATOM     17  H   UNL     1      10.351  -6.081  24.554  0.00  0.00    +0.118 HD
ENDBRANCH  14  15
ENDBRANCH  11  14
ENDBRANCH   1  11
TORSDOF 6
ENDMDL
MODEL 8
REMARK VINA RESULT:      -4.7      5.695      7.009
REMARK  Name = 
REMARK  6 active torsions:
REMARK  status: ('A' for Active; 'I' for Inactive)
REMARK    1  A    between atoms: N_1  and  C_2
REMARK    2  A    between atoms: C_2  and  C_3
REMARK    3  A    between atoms: C_3  and  O_5
REMARK    4  A    between atoms: C_3  and  C_6
REMARK    5  A    between atoms: C_8  and  O_9
REMARK    6  A    between atoms: C_10  and  O_11
REMARK                            x       y       z     vdW  Elec       q    Type
REMARK                         _______ _______ _______ _____ _____    ______ ____
ROOT
ATOM      1  C   UNL     1       9.685   1.329  23.517  0.00  0.00    -0.014 A 
ATOM      2  C   UNL     1       9.721   0.698  24.774  0.00  0.00    +0.010 A 
ATOM      3  C   UNL     1       9.879  -0.687  24.875  0.00  0.00    +0.049 A 
ATOM      4  C   UNL     1      10.001  -1.440  23.719  0.00  0.00    +0.158 A 
ATOM      5  C   UNL     1       9.983  -0.831  22.467  0.00  0.00    +0.159 A 
ATOM      6  C   UNL     1       9.823   0.546  22.355  0.00  0.00    +0.055 A 
ENDROOT
BRANCH   4   7
ATOM      7  O   UNL     1      10.126  -2.795  23.817  0.00  0.00    -0.503 OA
ATOM      8  H   UNL     1      10.935  -3.003  23.306  0.00  0.00    +0.292 HD
ENDBRANCH   4   7
BRANCH   5   9
ATOM      9  O   UNL     1      10.112  -1.634  21.367  0.00  0.00    -0.503 OA
ATOM     10  H   UNL     1      10.677  -2.388  21.610  0.00  0.00    +0.292 HD
ENDBRANCH   5   9
BRANCH   1  11
ATOM     11  C   UNL     1       9.413   2.817  23.441  0.00  0.00    +0.158 C 
BRANCH  11  12
ATOM     12  O   UNL     1      10.516   3.496  22.829  0.00  0.00    -0.386 OA
ATOM     13  H   UNL     1      10.600   3.116  21.937  0.00  0.00    +0.210 HD
ENDBRANCH  11  12
BRANCH  11  14
ATOM     14  C   UNL     1       8.127   3.090  22.627  0.00  0.00    +0.114 C 
BRANCH  14  15
ATOM     15  N   UNL     1       7.981   4.510  22.279  0.00  0.00    -0.327 NA
ATOM     16  H   UNL     1       7.593   4.552  21.333  0.00  0.00    +0.118 HD
ATOM     17  H   UNL     1       7.284   4.930  22.892  0.00  0.00    +0.118 HD
ENDBRANCH  14  15
ENDBRANCH  11  14
ENDBRANCH   1  11
TORSDOF 6
ENDMDL
MODEL 9
REMARK VINA RESULT:      -4.6      2.824      4.760
REMARK  Name = 
REMARK  6 active torsions:
REMARK  status: ('A' for Active; 'I' for Inactive)
REMARK    1  A    between atoms: N_1  and  C_2
REMARK    2  A    between atoms: C_2  and  C_3
REMARK    3  A    between atoms: C_3  and  O_5
REMARK    4  A    between atoms: C_3  and  C_6
REMARK    5  A    between atoms: C_8  and  O_9
REMARK    6  A    between atoms: C_10  and  O_11
REMARK                            x       y       z     vdW  Elec       q    Type
REMARK                         _______ _______ _______ _____ _____    ______ ____
ROOT
ATOM      1  C   UNL     1       6.343  -5.420  24.411  0.00  0.00    -0.014 A 
ATOM      2  C   UNL     1       7.534  -4.947  23.830  0.00  0.00    +0.010 A 
ATOM      3  C   UNL     1       8.688  -4.782  24.600  0.00  0.00    +0.049 A 
ATOM      4  C   UNL     1       8.651  -5.088  25.950  0.00  0.00    +0.158 A 
ATOM      5  C   UNL     1       7.485  -5.571  26.538  0.00  0.00    +0.159 A 
ATOM      6  C   UNL     1       6.330  -5.737  25.782  0.00  0.00    +0.055 A 
ENDROOT
BRANCH   4   7
ATOM      7  O   UNL     1       9.769  -4.898  26.708  0.00  0.00    -0.503 OA
ATOM      8  H   UNL     1       9.621  -5.448  27.504  0.00  0.00    +0.292 HD
ENDBRANCH   4   7
BRANCH   5   9
ATOM      9  O   UNL     1       7.519  -5.857  27.876  0.00  0.00    -0.503 OA
ATOM     10  H   UNL     1       8.397  -5.610  28.214  0.00  0.00    +0.292 HD
ENDBRANCH   5   9
BRANCH   1  11
ATOM     11  C   UNL     1       5.085  -5.493  23.570  0.00  0.00    +0.158 C 
BRANCH  11  12
ATOM     12  O   UNL     1       5.336  -6.215  22.358  0.00  0.00    -0.386 OA
ATOM     13  H   UNL     1       4.577  -6.033  21.778  0.00  0.00    +0.210 HD
ENDBRANCH  11  12
BRANCH  11  14
ATOM     14  C   UNL     1       3.950  -6.189  24.355  0.00  0.00    +0.114 C 
BRANCH  14  15
ATOM     15  N   UNL     1       3.823  -7.610  24.005  0.00  0.00    -0.327 NA
ATOM     16  H   UNL     1       2.841  -7.868  24.132  0.00  0.00    +0.118 HD
ATOM     17  H   UNL     1       4.021  -7.725  23.012  0.00  0.00    +0.118 HD
ENDBRANCH  14  15
ENDBRANCH  11  14
ENDBRANCH   1  11
TORSDOF 6
ENDMDL
