MODEL 1
REMARK VINA RESULT:      -7.4      0.000      0.000
REMARK  Name = 
REMARK  9 active torsions:
REMARK  status: ('A' for Active; 'I' for Inactive)
REMARK    1  A    between atoms: C_2  and  N_11
REMARK    2  A    between atoms: C_6  and  N_8
REMARK    3  A    between atoms: N_8  and  C_9
REMARK    4  A    between atoms: N_8  and  C_10
REMARK    5  A    between atoms: N_15  and  C_16
REMARK    6  A    between atoms: C_19  and  S_22
REMARK    7  A    between atoms: S_22  and  N_25
REMARK    8  A    between atoms: N_25  and  C_26
REMARK    9  A    between atoms: C_29  and  C_30
REMARK                            x       y       z     vdW  Elec       q    Type
REMARK                         _______ _______ _______ _____ _____    ______ ____
ROOT
ATOM      1  N   UNL     1       6.098  -5.737  25.007  0.00  0.00    -0.324 N 
ATOM      2  H   UNL     1       6.555  -6.630  24.829  0.00  0.00    +0.148 HD
ATOM      3  C   UNL     1       6.842  -4.703  24.425  0.00  0.00    +0.136 A 
ATOM      4  C   UNL     1       6.934  -4.634  23.049  0.00  0.00    +0.113 A 
ATOM      5  C   UNL     1       7.685  -3.596  22.556  0.00  0.00    +0.130 A 
ATOM      6  N   UNL     1       8.284  -2.678  23.321  0.00  0.00    -0.222 NA
ATOM      7  C   UNL     1       8.122  -2.772  24.645  0.00  0.00    +0.221 A 
ATOM      8  N   UNL     1       8.647  -1.776  25.477  0.00  0.00    -0.284 N 
ATOM      9  H   UNL     1       8.563  -2.042  26.447  0.00  0.00    +0.155 HD
ATOM     10  N   UNL     1       7.447  -3.785  25.218  0.00  0.00    -0.199 NA
ENDROOT
BRANCH   8  11
ATOM     11  C   UNL     1       8.899  -0.415  25.210  0.00  0.00    +0.034 A 
ATOM     12  C   UNL     1      10.168  -0.012  24.758  0.00  0.00    +0.025 A 
ATOM     13  C   UNL     1      10.424   1.324  24.400  0.00  0.00    +0.030 A 
ATOM     14  C   UNL     1       9.402   2.272  24.482  0.00  0.00    +0.105 A 
ATOM     15  C   UNL     1       8.140   1.900  24.933  0.00  0.00    +0.030 A 
ATOM     16  C   UNL     1       7.901   0.570  25.285  0.00  0.00    +0.025 A 
BRANCH  14  17
ATOM     17  S   UNL     1       9.659   3.925  23.889  0.00  0.00    +0.058 S 
ATOM     18  O   UNL     1      11.005   4.039  23.376  0.00  0.00    -0.153 OA
ATOM     19  O   UNL     1       9.153   4.826  24.898  0.00  0.00    -0.153 OA
BRANCH  17  20
ATOM     20  N   UNL     1       8.597   4.050  22.588  0.00  0.00    -0.193 NA
ATOM     21  H   UNL     1       8.341   3.123  22.247  0.00  0.00    +0.148 HD
ATOM     22  C   UNL     1       7.536   5.048  22.665  0.00  0.00    +0.127 C 
ENDBRANCH  17  20
ENDBRANCH  14  17
ENDBRANCH   8  11
BRANCH   1  23
ATOM     23  C   UNL     1       5.670  -5.602  26.411  0.00  0.00    +0.089 C 
ATOM     24  C   UNL     1       4.586  -4.474  26.554  0.00  0.00    +0.076 C 
ATOM     25  C   UNL     1       3.231  -5.235  26.471  0.00  0.00    +0.021 C 
ATOM     26  C   UNL     1       3.536  -6.713  26.286  0.00  0.00    +0.003 C 
ATOM     27  C   UNL     1       4.936  -6.877  26.844  0.00  0.00    +0.024 C 
BRANCH  24  28
ATOM     28  N   UNL     1       4.671  -3.659  27.800  0.00  0.00    -0.304 NA
ATOM     29  C   UNL     1       4.960  -2.252  27.491  0.00  0.00    +0.104 C 
ATOM     30  C   UNL     1       3.399  -3.691  28.541  0.00  0.00    +0.104 C 
ENDBRANCH  24  28
ENDBRANCH   1  23
BRANCH   4  31
ATOM     31  C   UNL     1       6.225  -5.501  22.075  0.00  0.00    +0.422 C 
ATOM     32  F   UNL     1       6.759  -6.757  22.037  0.00  0.00    -0.166 F 
ATOM     33  F   UNL     1       6.337  -5.030  20.798  0.00  0.00    -0.166 F 
ATOM     34  F   UNL     1       4.895  -5.689  22.283  0.00  0.00    -0.166 F 
ENDBRANCH   4  31
TORSDOF 6
ENDMDL
MODEL 2
REMARK VINA RESULT:      -6.9      5.719      9.174
REMARK  Name = 
REMARK  9 active torsions:
REMARK  status: ('A' for Active; 'I' for Inactive)
REMARK    1  A    between atoms: C_2  and  N_11
REMARK    2  A    between atoms: C_6  and  N_8
REMARK    3  A    between atoms: N_8  and  C_9
REMARK    4  A    between atoms: N_8  and  C_10
REMARK    5  A    between atoms: N_15  and  C_16
REMARK    6  A    between atoms: C_19  and  S_22
REMARK    7  A    between atoms: S_22  and  N_25
REMARK    8  A    between atoms: N_25  and  C_26
REMARK    9  A    between atoms: C_29  and  C_30
REMARK                            x       y       z     vdW  Elec       q    Type
REMARK                         _______ _______ _______ _____ _____    ______ ____
ROOT
ATOM      1  N   UNL     1       8.961  -0.099  26.007  0.00  0.00    -0.324 N 
ATOM      2  H   UNL     1       9.490   0.145  26.842  0.00  0.00    +0.148 HD
ATOM      3  C   UNL     1       7.952  -1.012  26.338  0.00  0.00    +0.136 A 
ATOM      4  C   UNL     1       6.911  -0.597  27.145  0.00  0.00    +0.113 A 
ATOM      5  C   UNL     1       5.965  -1.551  27.428  0.00  0.00    +0.130 A 
ATOM      6  N   UNL     1       6.000  -2.802  26.956  0.00  0.00    -0.222 NA
ATOM      7  C   UNL     1       7.009  -3.130  26.144  0.00  0.00    +0.221 A 
ATOM      8  N   UNL     1       7.031  -4.396  25.546  0.00  0.00    -0.284 N 
ATOM      9  H   UNL     1       7.906  -4.550  25.068  0.00  0.00    +0.155 HD
ATOM     10  N   UNL     1       8.008  -2.276  25.853  0.00  0.00    -0.199 NA
ENDROOT
BRANCH   8  11
ATOM     11  C   UNL     1       5.964  -5.256  25.211  0.00  0.00    +0.034 A 
ATOM     12  C   UNL     1       5.511  -6.206  26.143  0.00  0.00    +0.025 A 
ATOM     13  C   UNL     1       4.395  -7.018  25.873  0.00  0.00    +0.030 A 
ATOM     14  C   UNL     1       3.711  -6.877  24.664  0.00  0.00    +0.105 A 
ATOM     15  C   UNL     1       4.144  -5.948  23.723  0.00  0.00    +0.030 A 
ATOM     16  C   UNL     1       5.254  -5.150  24.005  0.00  0.00    +0.025 A 
BRANCH  14  17
ATOM     17  S   UNL     1       2.211  -7.778  24.368  0.00  0.00    +0.058 S 
ATOM     18  O   UNL     1       1.089  -6.988  24.820  0.00  0.00    -0.153 OA
ATOM     19  O   UNL     1       2.424  -9.130  24.832  0.00  0.00    -0.153 OA
BRANCH  17  20
ATOM     20  N   UNL     1       2.131  -7.877  22.689  0.00  0.00    -0.193 NA
ATOM     21  H   UNL     1       3.023  -8.191  22.308  0.00  0.00    +0.148 HD
ATOM     22  C   UNL     1       0.920  -8.432  22.094  0.00  0.00    +0.127 C 
ENDBRANCH  17  20
ENDBRANCH  14  17
ENDBRANCH   8  11
BRANCH   1  23
ATOM     23  C   UNL     1       9.839  -0.395  24.861  0.00  0.00    +0.089 C 
ATOM     24  C   UNL     1       9.052  -0.256  23.508  0.00  0.00    +0.076 C 
ATOM     25  C   UNL     1       9.347   1.199  23.043  0.00  0.00    +0.021 C 
ATOM     26  C   UNL     1      10.249   1.848  24.081  0.00  0.00    +0.003 C 
ATOM     27  C   UNL     1      10.931   0.679  24.765  0.00  0.00    +0.024 C 
BRANCH  24  28
ATOM     28  N   UNL     1       9.416  -1.243  22.451  0.00  0.00    -0.304 NA
ATOM     29  C   UNL     1       8.433  -2.333  22.387  0.00  0.00    +0.104 C 
ATOM     30  C   UNL     1       9.452  -0.608  21.124  0.00  0.00    +0.104 C 
ENDBRANCH  24  28
ENDBRANCH   1  23
BRANCH   4  31
ATOM     31  C   UNL     1       6.674   0.782  27.638  0.00  0.00    +0.422 C 
ATOM     32  F   UNL     1       7.552   1.121  28.627  0.00  0.00    -0.166 F 
ATOM     33  F   UNL     1       5.438   0.916  28.201  0.00  0.00    -0.166 F 
ATOM     34  F   UNL     1       6.772   1.781  26.721  0.00  0.00    -0.166 F 
ENDBRANCH   4  31
TORSDOF 6
ENDMDL
MODEL 3
REMARK VINA RESULT:      -6.5      1.397      2.036
REMARK  Name = 
REMARK  9 active torsions:
REMARK  status: ('A' for Active; 'I' for Inactive)
REMARK    1  A    between atoms: C_2  and  N_11
REMARK    2  A    between atoms: C_6  and  N_8
REMARK    3  A    between atoms: N_8  and  C_9
REMARK    4  A    between atoms: N_8  and  C_10
REMARK    5  A    between atoms: N_15  and  C_16
REMARK    6  A    between atoms: C_19  and  S_22
REMARK    7  A    between atoms: S_22  and  N_25
REMARK    8  A    between atoms: N_25  and  C_26
REMARK    9  A    between atoms: C_29  and  C_30
REMARK                            x       y       z     vdW  Elec       q    Type
REMARK                         _______ _______ _______ _____ _____    ______ ____
ROOT
ATOM      1  N   UNL     1       6.337  -5.030  24.955  0.00  0.00    -0.324 N 
ATOM      2  H   UNL     1       6.956  -5.838  24.930  0.00  0.00    +0.148 HD
ATOM      3  C   UNL     1       6.906  -3.979  24.224  0.00  0.00    +0.136 A 
ATOM      4  C   UNL     1       7.043  -4.110  22.856  0.00  0.00    +0.113 A 
ATOM      5  C   UNL     1       7.614  -3.040  22.212  0.00  0.00    +0.130 A 
ATOM      6  N   UNL     1       8.004  -1.919  22.828  0.00  0.00    -0.222 NA
ATOM      7  C   UNL     1       7.804  -1.834  24.147  0.00  0.00    +0.221 A 
ATOM      8  N   UNL     1       8.103  -0.640  24.815  0.00  0.00    -0.284 N 
ATOM      9  H   UNL     1       8.027  -0.761  25.813  0.00  0.00    +0.155 HD
ATOM     10  N   UNL     1       7.299  -2.852  24.867  0.00  0.00    -0.199 NA
ENDROOT
BRANCH   8  11
ATOM     11  C   UNL     1       8.115   0.686  24.335  0.00  0.00    +0.034 A 
ATOM     12  C   UNL     1       6.948   1.240  23.778  0.00  0.00    +0.025 A 
ATOM     13  C   UNL     1       6.903   2.586  23.371  0.00  0.00    +0.030 A 
ATOM     14  C   UNL     1       8.029   3.397  23.528  0.00  0.00    +0.105 A 
ATOM     15  C   UNL     1       9.197   2.870  24.071  0.00  0.00    +0.030 A 
ATOM     16  C   UNL     1       9.226   1.532  24.470  0.00  0.00    +0.025 A 
BRANCH  14  17
ATOM     17  S   UNL     1       7.946   5.132  23.168  0.00  0.00    +0.058 S 
ATOM     18  O   UNL     1       7.420   5.828  24.320  0.00  0.00    -0.153 OA
ATOM     19  O   UNL     1       7.349   5.270  21.860  0.00  0.00    -0.153 OA
BRANCH  17  20
ATOM     20  N   UNL     1       9.559   5.579  22.986  0.00  0.00    -0.193 NA
ATOM     21  H   UNL     1       9.739   5.877  22.027  0.00  0.00    +0.148 HD
ATOM     22  C   UNL     1      10.178   6.357  24.054  0.00  0.00    +0.127 C 
ENDBRANCH  17  20
ENDBRANCH  14  17
ENDBRANCH   8  11
BRANCH   1  23
ATOM     23  C   UNL     1       5.832  -4.759  26.313  0.00  0.00    +0.089 C 
ATOM     24  C   UNL     1       4.317  -4.342  26.268  0.00  0.00    +0.076 C 
ATOM     25  C   UNL     1       3.548  -5.672  26.513  0.00  0.00    +0.021 C 
ATOM     26  C   UNL     1       4.575  -6.781  26.681  0.00  0.00    +0.003 C 
ATOM     27  C   UNL     1       5.833  -6.060  27.125  0.00  0.00    +0.024 C 
BRANCH  24  28
ATOM     28  N   UNL     1       3.912  -3.297  27.252  0.00  0.00    -0.304 NA
ATOM     29  C   UNL     1       3.561  -3.899  28.545  0.00  0.00    +0.104 C 
ATOM     30  C   UNL     1       5.009  -2.346  27.496  0.00  0.00    +0.104 C 
ENDBRANCH  24  28
ENDBRANCH   1  23
BRANCH   4  31
ATOM     31  C   UNL     1       6.546  -5.235  22.025  0.00  0.00    +0.422 C 
ATOM     32  F   UNL     1       6.444  -4.882  20.710  0.00  0.00    -0.166 F 
ATOM     33  F   UNL     1       5.287  -5.619  22.388  0.00  0.00    -0.166 F 
ATOM     34  F   UNL     1       7.294  -6.370  22.029  0.00  0.00    -0.166 F 
ENDBRANCH   4  31
TORSDOF 6
ENDMDL
MODEL 4
REMARK VINA RESULT:      -6.5      5.000      8.635
REMARK  Name = 
REMARK  9 active torsions:
REMARK  status: ('A' for Active; 'I' for Inactive)
REMARK    1  A    between atoms: C_2  and  N_11
REMARK    2  A    between atoms: C_6  and  N_8
REMARK    3  A    between atoms: N_8  and  C_9
REMARK    4  A    between atoms: N_8  and  C_10
REMARK    5  A    between atoms: N_15  and  C_16
REMARK    6  A    between atoms: C_19  and  S_22
REMARK    7  A    between atoms: S_22  and  N_25
REMARK    8  A    between atoms: N_25  and  C_26
REMARK    9  A    between atoms: C_29  and  C_30
REMARK                            x       y       z     vdW  Elec       q    Type
REMARK                         _______ _______ _______ _____ _____    ______ ____
ROOT
ATOM      1  N   UNL     1       7.543   1.291  22.754  0.00  0.00    -0.324 N 
ATOM      2  H   UNL     1       7.484   1.436  21.748  0.00  0.00    +0.148 HD
ATOM      3  C   UNL     1       7.441  -0.076  23.040  0.00  0.00    +0.136 A 
ATOM      4  C   UNL     1       8.455  -0.923  22.637  0.00  0.00    +0.113 A 
ATOM      5  C   UNL     1       8.280  -2.249  22.949  0.00  0.00    +0.130 A 
ATOM      6  N   UNL     1       7.225  -2.725  23.618  0.00  0.00    -0.222 NA
ATOM      7  C   UNL     1       6.298  -1.850  24.021  0.00  0.00    +0.221 A 
ATOM      8  N   UNL     1       5.229  -2.291  24.810  0.00  0.00    -0.284 N 
ATOM      9  H   UNL     1       4.548  -1.557  24.929  0.00  0.00    +0.155 HD
ATOM     10  N   UNL     1       6.362  -0.541  23.715  0.00  0.00    -0.199 NA
ENDROOT
BRANCH   8  11
ATOM     11  C   UNL     1       5.154  -3.378  25.704  0.00  0.00    +0.034 A 
ATOM     12  C   UNL     1       6.023  -3.440  26.809  0.00  0.00    +0.025 A 
ATOM     13  C   UNL     1       5.914  -4.464  27.765  0.00  0.00    +0.030 A 
ATOM     14  C   UNL     1       4.923  -5.438  27.630  0.00  0.00    +0.105 A 
ATOM     15  C   UNL     1       4.055  -5.403  26.543  0.00  0.00    +0.030 A 
ATOM     16  C   UNL     1       4.175  -4.379  25.601  0.00  0.00    +0.025 A 
BRANCH  14  17
ATOM     17  S   UNL     1       4.668  -6.647  28.904  0.00  0.00    +0.058 S 
ATOM     18  O   UNL     1       4.322  -5.971  30.134  0.00  0.00    -0.153 OA
ATOM     19  O   UNL     1       5.768  -7.581  28.835  0.00  0.00    -0.153 OA
BRANCH  17  20
ATOM     20  N   UNL     1       3.311  -7.496  28.382  0.00  0.00    -0.193 NA
ATOM     21  H   UNL     1       3.569  -8.444  28.107  0.00  0.00    +0.148 HD
ATOM     22  C   UNL     1       2.072  -7.335  29.135  0.00  0.00    +0.127 C 
ENDBRANCH  17  20
ENDBRANCH  14  17
ENDBRANCH   8  11
BRANCH   1  23
ATOM     23  C   UNL     1       6.695   2.238  23.501  0.00  0.00    +0.089 C 
ATOM     24  C   UNL     1       7.567   3.127  24.460  0.00  0.00    +0.076 C 
ATOM     25  C   UNL     1       7.851   4.414  23.633  0.00  0.00    +0.021 C 
ATOM     26  C   UNL     1       7.178   4.257  22.278  0.00  0.00    +0.003 C 
ATOM     27  C   UNL     1       6.076   3.245  22.524  0.00  0.00    +0.024 C 
BRANCH  24  28
ATOM     28  N   UNL     1       6.940   3.457  25.772  0.00  0.00    -0.304 NA
ATOM     29  C   UNL     1       7.107   2.353  26.728  0.00  0.00    +0.104 C 
ATOM     30  C   UNL     1       7.561   4.650  26.370  0.00  0.00    +0.104 C 
ENDBRANCH  24  28
ENDBRANCH   1  23
BRANCH   4  31
ATOM     31  C   UNL     1       9.736  -0.523  22.002  0.00  0.00    +0.422 C 
ATOM     32  F   UNL     1       9.543  -0.047  20.737  0.00  0.00    -0.166 F 
ATOM     33  F   UNL     1      10.584  -1.583  21.855  0.00  0.00    -0.166 F 
ATOM     34  F   UNL     1      10.455   0.440  22.637  0.00  0.00    -0.166 F 
ENDBRANCH   4  31
TORSDOF 6
ENDMDL
MODEL 5
REMARK VINA RESULT:      -6.5      5.351      8.876
REMARK  Name = 
REMARK  9 active torsions:
REMARK  status: ('A' for Active; 'I' for Inactive)
REMARK    1  A    between atoms: C_2  and  N_11
REMARK    2  A    between atoms: C_6  and  N_8
REMARK    3  A    between atoms: N_8  and  C_9
REMARK    4  A    between atoms: N_8  and  C_10
REMARK    5  A    between atoms: N_15  and  C_16
REMARK    6  A    between atoms: C_19  and  S_22
REMARK    7  A    between atoms: S_22  and  N_25
REMARK    8  A    between atoms: N_25  and  C_26
REMARK    9  A    between atoms: C_29  and  C_30
REMARK                            x       y       z     vdW  Elec       q    Type
REMARK                         _______ _______ _______ _____ _____    ______ ____
ROOT
ATOM      1  N   UNL     1       7.960   2.353  22.709  0.00  0.00    -0.324 N 
ATOM      2  H   UNL     1       8.606   2.583  21.956  0.00  0.00    +0.148 HD
ATOM      3  C   UNL     1       8.053   0.988  23.007  0.00  0.00    +0.136 A 
ATOM      4  C   UNL     1       9.220   0.500  23.561  0.00  0.00    +0.113 A 
ATOM      5  C   UNL     1       9.235  -0.849  23.820  0.00  0.00    +0.130 A 
ATOM      6  N   UNL     1       8.202  -1.666  23.587  0.00  0.00    -0.222 NA
ATOM      7  C   UNL     1       7.084  -1.126  23.092  0.00  0.00    +0.221 A 
ATOM      8  N   UNL     1       5.945  -1.925  22.928  0.00  0.00    -0.284 N 
ATOM      9  H   UNL     1       5.227  -1.423  22.430  0.00  0.00    +0.155 HD
ATOM     10  N   UNL     1       6.997   0.175  22.760  0.00  0.00    -0.199 NA
ENDROOT
BRANCH   8  11
ATOM     11  C   UNL     1       5.544  -3.081  23.628  0.00  0.00    +0.034 A 
ATOM     12  C   UNL     1       4.809  -2.959  24.820  0.00  0.00    +0.025 A 
ATOM     13  C   UNL     1       4.320  -4.092  25.494  0.00  0.00    +0.030 A 
ATOM     14  C   UNL     1       4.555  -5.365  24.973  0.00  0.00    +0.105 A 
ATOM     15  C   UNL     1       5.286  -5.513  23.798  0.00  0.00    +0.030 A 
ATOM     16  C   UNL     1       5.765  -4.378  23.140  0.00  0.00    +0.025 A 
BRANCH  14  17
ATOM     17  S   UNL     1       3.816  -6.795  25.720  0.00  0.00    +0.058 S 
ATOM     18  O   UNL     1       3.739  -7.854  24.740  0.00  0.00    -0.153 OA
ATOM     19  O   UNL     1       2.650  -6.346  26.445  0.00  0.00    -0.153 OA
BRANCH  17  20
ATOM     20  N   UNL     1       4.935  -7.256  26.891  0.00  0.00    -0.193 NA
ATOM     21  H   UNL     1       5.855  -7.389  26.471  0.00  0.00    +0.148 HD
ATOM     22  C   UNL     1       4.884  -6.586  28.187  0.00  0.00    +0.127 C 
ENDBRANCH  17  20
ENDBRANCH  14  17
ENDBRANCH   8  11
BRANCH   1  23
ATOM     23  C   UNL     1       6.627   2.945  22.497  0.00  0.00    +0.089 C 
ATOM     24  C   UNL     1       5.833   3.021  23.851  0.00  0.00    +0.076 C 
ATOM     25  C   UNL     1       6.116   4.457  24.379  0.00  0.00    +0.021 C 
ATOM     26  C   UNL     1       7.027   5.152  23.379  0.00  0.00    +0.003 C 
ATOM     27  C   UNL     1       6.784   4.412  22.077  0.00  0.00    +0.024 C 
BRANCH  24  28
ATOM     28  N   UNL     1       4.367   2.765  23.747  0.00  0.00    -0.304 NA
ATOM     29  C   UNL     1       3.661   3.256  24.939  0.00  0.00    +0.104 C 
ATOM     30  C   UNL     1       3.790   3.455  22.582  0.00  0.00    +0.104 C 
ENDBRANCH  24  28
ENDBRANCH   1  23
BRANCH   4  31
ATOM     31  C   UNL     1      10.395   1.300  23.988  0.00  0.00    +0.422 C 
ATOM     32  F   UNL     1      10.030   2.332  24.805  0.00  0.00    -0.166 F 
ATOM     33  F   UNL     1      11.019   1.892  22.928  0.00  0.00    -0.166 F 
ATOM     34  F   UNL     1      11.368   0.637  24.667  0.00  0.00    -0.166 F 
ENDBRANCH   4  31
TORSDOF 6
ENDMDL
MODEL 6
REMARK VINA RESULT:      -6.5      5.159      8.850
REMARK  Name = 
REMARK  9 active torsions:
REMARK  status: ('A' for Active; 'I' for Inactive)
REMARK    1  A    between atoms: C_2  and  N_11
REMARK    2  A    between atoms: C_6  and  N_8
REMARK    3  A    between atoms: N_8  and  C_9
REMARK    4  A    between atoms: N_8  and  C_10
REMARK    5  A    between atoms: N_15  and  C_16
REMARK    6  A    between atoms: C_19  and  S_22
REMARK    7  A    between atoms: S_22  and  N_25
REMARK    8  A    between atoms: N_25  and  C_26
REMARK    9  A    between atoms: C_29  and  C_30
REMARK                            x       y       z     vdW  Elec       q    Type
REMARK                         _______ _______ _______ _____ _____    ______ ____
ROOT
ATOM      1  N   UNL     1       8.011   3.954  22.590  0.00  0.00    -0.324 N 
ATOM      2  H   UNL     1       8.409   4.199  21.685  0.00  0.00    +0.148 HD
ATOM      3  C   UNL     1       8.290   2.612  22.878  0.00  0.00    +0.136 A 
ATOM      4  C   UNL     1       9.598   2.232  23.102  0.00  0.00    +0.113 A 
ATOM      5  C   UNL     1       9.790   0.899  23.373  0.00  0.00    +0.130 A 
ATOM      6  N   UNL     1       8.801   0.002  23.448  0.00  0.00    -0.222 NA
ATOM      7  C   UNL     1       7.552   0.440  23.266  0.00  0.00    +0.221 A 
ATOM      8  N   UNL     1       6.479  -0.444  23.435  0.00  0.00    -0.284 N 
ATOM      9  H   UNL     1       5.614  -0.015  23.143  0.00  0.00    +0.155 HD
ATOM     10  N   UNL     1       7.274   1.717  22.945  0.00  0.00    -0.199 NA
ENDROOT
BRANCH   8  11
ATOM     11  C   UNL     1       6.376  -1.596  24.241  0.00  0.00    +0.034 A 
ATOM     12  C   UNL     1       6.502  -2.871  23.661  0.00  0.00    +0.025 A 
ATOM     13  C   UNL     1       6.491  -4.035  24.450  0.00  0.00    +0.030 A 
ATOM     14  C   UNL     1       6.364  -3.933  25.836  0.00  0.00    +0.105 A 
ATOM     15  C   UNL     1       6.231  -2.683  26.434  0.00  0.00    +0.030 A 
ATOM     16  C   UNL     1       6.243  -1.536  25.637  0.00  0.00    +0.025 A 
BRANCH  14  17
ATOM     17  S   UNL     1       6.505  -5.374  26.862  0.00  0.00    +0.058 S 
ATOM     18  O   UNL     1       5.622  -6.401  26.358  0.00  0.00    -0.153 OA
ATOM     19  O   UNL     1       6.446  -4.930  28.236  0.00  0.00    -0.153 OA
BRANCH  17  20
ATOM     20  N   UNL     1       8.090  -5.886  26.614  0.00  0.00    -0.193 NA
ATOM     21  H   UNL     1       8.109  -6.689  25.985  0.00  0.00    +0.148 HD
ATOM     22  C   UNL     1       9.116  -4.867  26.424  0.00  0.00    +0.127 C 
ENDBRANCH  17  20
ENDBRANCH  14  17
ENDBRANCH   8  11
BRANCH   1  23
ATOM     23  C   UNL     1       6.628   4.441  22.739  0.00  0.00    +0.089 C 
ATOM     24  C   UNL     1       6.238   4.547  24.257  0.00  0.00    +0.076 C 
ATOM     25  C   UNL     1       6.538   6.028  24.625  0.00  0.00    +0.021 C 
ATOM     26  C   UNL     1       7.074   6.720  23.381  0.00  0.00    +0.003 C 
ATOM     27  C   UNL     1       6.541   5.886  22.233  0.00  0.00    +0.024 C 
BRANCH  24  28
ATOM     28  N   UNL     1       4.828   4.186  24.582  0.00  0.00    -0.304 NA
ATOM     29  C   UNL     1       4.248   3.333  23.535  0.00  0.00    +0.104 C 
ATOM     30  C   UNL     1       4.750   3.439  25.848  0.00  0.00    +0.104 C 
ENDBRANCH  24  28
ENDBRANCH   1  23
BRANCH   4  31
ATOM     31  C   UNL     1      10.777   3.131  23.175  0.00  0.00    +0.422 C 
ATOM     32  F   UNL     1      11.321   3.349  21.942  0.00  0.00    -0.166 F 
ATOM     33  F   UNL     1      11.787   2.587  23.916  0.00  0.00    -0.166 F 
ATOM     34  F   UNL     1      10.565   4.370  23.692  0.00  0.00    -0.166 F 
ENDBRANCH   4  31
TORSDOF 6
ENDMDL
MODEL 7
REMARK VINA RESULT:      -6.3      5.589      9.674
REMARK  Name = 
REMARK  9 active torsions:
REMARK  status: ('A' for Active; 'I' for Inactive)
REMARK    1  A    between atoms: C_2  and  N_11
REMARK    2  A    between atoms: C_6  and  N_8
REMARK    3  A    between atoms: N_8  and  C_9
REMARK    4  A    between atoms: N_8  and  C_10
REMARK    5  A    between atoms: N_15  and  C_16
REMARK    6  A    between atoms: C_19  and  S_22
REMARK    7  A    between atoms: S_22  and  N_25
REMARK    8  A    between atoms: N_25  and  C_26
REMARK    9  A    between atoms: C_29  and  C_30
REMARK                            x       y       z     vdW  Elec       q    Type
REMARK                         _______ _______ _______ _____ _____    ______ ____
ROOT
ATOM      1  N   UNL     1       7.168   5.054  24.829  0.00  0.00    -0.324 N 
ATOM      2  H   UNL     1       6.730   5.717  25.466  0.00  0.00    +0.148 HD
ATOM      3  C   UNL     1       6.346   3.930  24.681  0.00  0.00    +0.136 A 
ATOM      4  C   UNL     1       5.125   4.070  24.050  0.00  0.00    +0.113 A 
ATOM      5  C   UNL     1       4.375   2.924  23.948  0.00  0.00    +0.130 A 
ATOM      6  N   UNL     1       4.773   1.728  24.398  0.00  0.00    -0.222 NA
ATOM      7  C   UNL     1       5.983   1.648  24.959  0.00  0.00    +0.221 A 
ATOM      8  N   UNL     1       6.481   0.400  25.351  0.00  0.00    -0.284 N 
ATOM      9  H   UNL     1       7.338   0.505  25.872  0.00  0.00    +0.155 HD
ATOM     10  N   UNL     1       6.764   2.728  25.147  0.00  0.00    -0.199 NA
ENDROOT
BRANCH   8  11
ATOM     11  C   UNL     1       6.200  -0.885  24.843  0.00  0.00    +0.034 A 
ATOM     12  C   UNL     1       5.501  -1.815  25.634  0.00  0.00    +0.025 A 
ATOM     13  C   UNL     1       5.130  -3.072  25.125  0.00  0.00    +0.030 A 
ATOM     14  C   UNL     1       5.447  -3.409  23.808  0.00  0.00    +0.105 A 
ATOM     15  C   UNL     1       6.144  -2.509  23.007  0.00  0.00    +0.030 A 
ATOM     16  C   UNL     1       6.506  -1.264  23.527  0.00  0.00    +0.025 A 
BRANCH  14  17
ATOM     17  S   UNL     1       4.854  -4.922  23.097  0.00  0.00    +0.058 S 
ATOM     18  O   UNL     1       3.430  -4.813  22.877  0.00  0.00    -0.153 OA
ATOM     19  O   UNL     1       5.423  -6.007  23.862  0.00  0.00    -0.153 OA
BRANCH  17  20
ATOM     20  N   UNL     1       5.607  -4.978  21.592  0.00  0.00    -0.193 NA
ATOM     21  H   UNL     1       5.674  -4.042  21.193  0.00  0.00    +0.148 HD
ATOM     22  C   UNL     1       6.764  -5.853  21.438  0.00  0.00    +0.127 C 
ENDBRANCH  17  20
ENDBRANCH  14  17
ENDBRANCH   8  11
BRANCH   1  23
ATOM     23  C   UNL     1       8.596   4.854  25.131  0.00  0.00    +0.089 C 
ATOM     24  C   UNL     1       9.432   4.734  23.806  0.00  0.00    +0.076 C 
ATOM     25  C   UNL     1       9.942   6.181  23.544  0.00  0.00    +0.021 C 
ATOM     26  C   UNL     1       9.417   7.070  24.661  0.00  0.00    +0.003 C 
ATOM     27  C   UNL     1       9.154   6.113  25.807  0.00  0.00    +0.024 C 
BRANCH  24  28
ATOM     28  N   UNL     1      10.564   3.764  23.849  0.00  0.00    -0.304 NA
ATOM     29  C   UNL     1      10.297   2.604  22.986  0.00  0.00    +0.104 C 
ATOM     30  C   UNL     1      11.812   4.384  23.373  0.00  0.00    +0.104 C 
ENDBRANCH  24  28
ENDBRANCH   1  23
BRANCH   4  31
ATOM     31  C   UNL     1       4.608   5.297  23.394  0.00  0.00    +0.422 C 
ATOM     32  F   UNL     1       3.428   5.063  22.748  0.00  0.00    -0.166 F 
ATOM     33  F   UNL     1       5.456   5.753  22.427  0.00  0.00    -0.166 F 
ATOM     34  F   UNL     1       4.364   6.361  24.203  0.00  0.00    -0.166 F 
ENDBRANCH   4  31
TORSDOF 6
ENDMDL
MODEL 8
REMARK VINA RESULT:      -6.3      5.324      9.137
REMARK  Name = 
REMARK  9 active torsions:
REMARK  status: ('A' for Active; 'I' for Inactive)
REMARK    1  A    between atoms: C_2  and  N_11
REMARK    2  A    between atoms: C_6  and  N_8
REMARK    3  A    between atoms: N_8  and  C_9
REMARK    4  A    between atoms: N_8  and  C_10
REMARK    5  A    between atoms: N_15  and  C_16
REMARK    6  A    between atoms: C_19  and  S_22
REMARK    7  A    between atoms: S_22  and  N_25
REMARK    8  A    between atoms: N_25  and  C_26
REMARK    9  A    between atoms: C_29  and  C_30
REMARK                            x       y       z     vdW  Elec       q    Type
REMARK                         _______ _______ _______ _____ _____    ______ ____
ROOT
ATOM      1  N   UNL     1       7.598   5.115  22.919  0.00  0.00    -0.324 N 
ATOM      2  H   UNL     1       7.969   5.673  22.152  0.00  0.00    +0.148 HD
ATOM      3  C   UNL     1       8.350   3.942  23.055  0.00  0.00    +0.136 A 
ATOM      4  C   UNL     1       9.666   4.032  23.464  0.00  0.00    +0.113 A 
ATOM      5  C   UNL     1      10.338   2.839  23.568  0.00  0.00    +0.130 A 
ATOM      6  N   UNL     1       9.786   1.646  23.320  0.00  0.00    -0.222 NA
ATOM      7  C   UNL     1       8.496   1.621  22.971  0.00  0.00    +0.221 A 
ATOM      8  N   UNL     1       7.851   0.390  22.801  0.00  0.00    -0.284 N 
ATOM      9  H   UNL     1       6.928   0.521  22.416  0.00  0.00    +0.155 HD
ATOM     10  N   UNL     1       7.774   2.743  22.795  0.00  0.00    -0.199 NA
ENDROOT
BRANCH   8  11
ATOM     11  C   UNL     1       8.120  -0.861  23.395  0.00  0.00    +0.034 A 
ATOM     12  C   UNL     1       8.594  -0.922  24.717  0.00  0.00    +0.025 A 
ATOM     13  C   UNL     1       8.788  -2.155  25.365  0.00  0.00    +0.030 A 
ATOM     14  C   UNL     1       8.498  -3.345  24.695  0.00  0.00    +0.105 A 
ATOM     15  C   UNL     1       8.034  -3.311  23.384  0.00  0.00    +0.030 A 
ATOM     16  C   UNL     1       7.846  -2.079  22.753  0.00  0.00    +0.025 A 
BRANCH  14  17
ATOM     17  S   UNL     1       8.587  -4.901  25.544  0.00  0.00    +0.058 S 
ATOM     18  O   UNL     1       8.561  -4.663  26.969  0.00  0.00    -0.153 OA
ATOM     19  O   UNL     1       9.639  -5.670  24.921  0.00  0.00    -0.153 OA
BRANCH  17  20
ATOM     20  N   UNL     1       7.148  -5.667  25.122  0.00  0.00    -0.193 NA
ATOM     21  H   UNL     1       7.329  -6.627  24.828  0.00  0.00    +0.148 HD
ATOM     22  C   UNL     1       5.978  -5.437  25.964  0.00  0.00    +0.127 C 
ENDBRANCH  17  20
ENDBRANCH  14  17
ENDBRANCH   8  11
BRANCH   1  23
ATOM     23  C   UNL     1       6.128   5.015  22.872  0.00  0.00    +0.089 C 
ATOM     24  C   UNL     1       5.552   4.647  24.287  0.00  0.00    +0.076 C 
ATOM     25  C   UNL     1       5.193   6.022  24.922  0.00  0.00    +0.021 C 
ATOM     26  C   UNL     1       5.553   7.107  23.920  0.00  0.00    +0.003 C 
ATOM     27  C   UNL     1       5.534   6.399  22.580  0.00  0.00    +0.024 C 
BRANCH  24  28
ATOM     28  N   UNL     1       4.373   3.733  24.280  0.00  0.00    -0.304 NA
ATOM     29  C   UNL     1       4.778   2.350  24.566  0.00  0.00    +0.104 C 
ATOM     30  C   UNL     1       3.395   4.123  25.308  0.00  0.00    +0.104 C 
ENDBRANCH  24  28
ENDBRANCH   1  23
BRANCH   4  31
ATOM     31  C   UNL     1      10.373   5.265  23.891  0.00  0.00    +0.422 C 
ATOM     32  F   UNL     1      11.713   5.050  24.044  0.00  0.00    -0.166 F 
ATOM     33  F   UNL     1       9.943   5.702  25.111  0.00  0.00    -0.166 F 
ATOM     34  F   UNL     1      10.280   6.338  23.062  0.00  0.00    -0.166 F 
ENDBRANCH   4  31
TORSDOF 6
ENDMDL
MODEL 9
REMARK VINA RESULT:      -5.9      5.452      8.971
REMARK  Name = 
REMARK  9 active torsions:
REMARK  status: ('A' for Active; 'I' for Inactive)
REMARK    1  A    between atoms: C_2  and  N_11
REMARK    2  A    between atoms: C_6  and  N_8
REMARK    3  A    between atoms: N_8  and  C_9
REMARK    4  A    between atoms: N_8  and  C_10
REMARK    5  A    between atoms: N_15  and  C_16
REMARK    6  A    between atoms: C_19  and  S_22
REMARK    7  A    between atoms: S_22  and  N_25
REMARK    8  A    between atoms: N_25  and  C_26
REMARK    9  A    between atoms: C_29  and  C_30
REMARK                            x       y       z     vdW  Elec       q    Type
REMARK                         _______ _______ _______ _____ _____    ______ ____
ROOT
ATOM      1  N   UNL     1       5.565   4.791  22.580  0.00  0.00    -0.324 N 
ATOM      2  H   UNL     1       5.822   5.310  21.742  0.00  0.00    +0.148 HD
ATOM      3  C   UNL     1       6.445   3.716  22.756  0.00  0.00    +0.136 A 
ATOM      4  C   UNL     1       7.769   3.975  23.054  0.00  0.00    +0.113 A 
ATOM      5  C   UNL     1       8.569   2.869  23.206  0.00  0.00    +0.130 A 
ATOM      6  N   UNL     1       8.131   1.610  23.104  0.00  0.00    -0.222 NA
ATOM      7  C   UNL     1       6.831   1.424  22.859  0.00  0.00    +0.221 A 
ATOM      8  N   UNL     1       6.310   0.124  22.844  0.00  0.00    -0.284 N 
ATOM      9  H   UNL     1       5.355   0.126  22.522  0.00  0.00    +0.155 HD
ATOM     10  N   UNL     1       5.984   2.447  22.644  0.00  0.00    -0.199 NA
ENDROOT
BRANCH   8  11
ATOM     11  C   UNL     1       6.750  -1.033  23.519  0.00  0.00    +0.034 A 
ATOM     12  C   UNL     1       7.261  -2.120  22.787  0.00  0.00    +0.025 A 
ATOM     13  C   UNL     1       7.788  -3.252  23.435  0.00  0.00    +0.030 A 
ATOM     14  C   UNL     1       7.818  -3.302  24.829  0.00  0.00    +0.105 A 
ATOM     15  C   UNL     1       7.313  -2.242  25.576  0.00  0.00    +0.030 A 
ATOM     16  C   UNL     1       6.793  -1.125  24.919  0.00  0.00    +0.025 A 
BRANCH  14  17
ATOM     17  S   UNL     1       8.619  -4.647  25.665  0.00  0.00    +0.058 S 
ATOM     18  O   UNL     1       9.117  -4.183  26.939  0.00  0.00    -0.153 OA
ATOM     19  O   UNL     1       9.482  -5.296  24.704  0.00  0.00    -0.153 OA
BRANCH  17  20
ATOM     20  N   UNL     1       7.367  -5.733  25.963  0.00  0.00    -0.193 NA
ATOM     21  H   UNL     1       7.688  -6.692  25.828  0.00  0.00    +0.148 HD
ATOM     22  C   UNL     1       6.497  -5.476  27.106  0.00  0.00    +0.127 C 
ENDBRANCH  17  20
ENDBRANCH  14  17
ENDBRANCH   8  11
BRANCH   1  23
ATOM     23  C   UNL     1       4.115   4.541  22.655  0.00  0.00    +0.089 C 
ATOM     24  C   UNL     1       3.619   4.592  24.145  0.00  0.00    +0.076 C 
ATOM     25  C   UNL     1       3.128   6.056  24.334  0.00  0.00    +0.021 C 
ATOM     26  C   UNL     1       3.340   6.793  23.021  0.00  0.00    +0.003 C 
ATOM     27  C   UNL     1       3.364   5.694  21.976  0.00  0.00    +0.024 C 
BRANCH  24  28
ATOM     28  N   UNL     1       2.549   3.615  24.497  0.00  0.00    -0.304 NA
ATOM     29  C   UNL     1       2.900   2.864  25.710  0.00  0.00    +0.104 C 
ATOM     30  C   UNL     1       1.273   4.301  24.762  0.00  0.00    +0.104 C 
ENDBRANCH  24  28
ENDBRANCH   1  23
BRANCH   4  31
ATOM     31  C   UNL     1       8.368   5.307  23.319  0.00  0.00    +0.422 C 
ATOM     32  F   UNL     1       8.363   6.092  22.203  0.00  0.00    -0.166 F 
ATOM     33  F   UNL     1       9.682   5.212  23.679  0.00  0.00    -0.166 F 
ATOM     34  F   UNL     1       7.775   6.058  24.284  0.00  0.00    -0.166 F 
ENDBRANCH   4  31
TORSDOF 6
ENDMDL
