MODEL 1
REMARK VINA RESULT:      -6.6      0.000      0.000
REMARK  Name = 
REMARK  10 active torsions:
REMARK  status: ('A' for Active; 'I' for Inactive)
REMARK    1  A    between atoms: O_1  and  C_2
REMARK    2  A    between atoms: C_4  and  O_6
REMARK    3  A    between atoms: C_7  and  N_18
REMARK    4  A    between atoms: C_10  and  C_12
REMARK    5  A    between atoms: C_12  and  O_13
REMARK    6  A    between atoms: O_13  and  P_14
REMARK    7  A    between atoms: P_14  and  O_15
REMARK    8  A    between atoms: P_14  and  O_16
REMARK    9  A    between atoms: C_25  and  C_26
REMARK   10  A    between atoms: C_26  and  O_27
REMARK                            x       y       z     vdW  Elec       q    Type
REMARK                         _______ _______ _______ _____ _____    ______ ____
ROOT
ATOM      1  C   UNL     1       6.426  -4.099  26.917  0.00  0.00    +0.178 C 
ATOM      2  C   UNL     1       5.471  -4.904  26.037  0.00  0.00    +0.178 C 
ATOM      3  O   UNL     1       6.262  -5.573  25.027  0.00  0.00    -0.346 OA
ATOM      4  C   UNL     1       7.654  -5.171  25.161  0.00  0.00    +0.255 C 
ATOM      5  C   UNL     1       7.756  -4.784  26.663  0.00  0.00    +0.195 C 
ENDROOT
BRANCH   4   6
ATOM      6  N   UNL     1       7.917  -4.148  24.137  0.00  0.00    -0.258 N 
ATOM      7  C   UNL     1       7.061  -3.853  23.056  0.00  0.00    +0.138 A 
ATOM      8  C   UNL     1       7.338  -2.812  22.251  0.00  0.00    +0.103 A 
ATOM      9  C   UNL     1       8.522  -1.988  22.472  0.00  0.00    +0.255 A 
ATOM     10  O   UNL     1       8.718  -0.964  21.829  0.00  0.00    -0.268 OA
ATOM     11  N   UNL     1       9.384  -2.471  23.389  0.00  0.00    -0.275 N 
ATOM     12  H   UNL     1      10.277  -2.003  23.470  0.00  0.00    +0.173 HD
ATOM     13  C   UNL     1       9.202  -3.599  24.132  0.00  0.00    +0.332 A 
ATOM     14  O   UNL     1      10.148  -4.047  24.769  0.00  0.00    -0.246 OA
BRANCH   7  15
ATOM     15  C   UNL     1       5.859  -4.611  22.539  0.00  0.00    +0.354 C 
ATOM     16  O   UNL     1       4.761  -4.092  22.410  0.00  0.00    -0.243 OA
BRANCH  15  17
ATOM     17  O   UNL     1       6.038  -5.875  22.118  0.00  0.00    -0.476 OA
ATOM     18  H   UNL     1       5.727  -6.537  22.766  0.00  0.00    +0.295 HD
ENDBRANCH  15  17
ENDBRANCH   7  15
ENDBRANCH   4   6
BRANCH   1  19
ATOM     19  O   UNL     1       6.479  -2.729  26.510  0.00  0.00    -0.386 OA
ATOM     20  H   UNL     1       5.958  -2.183  27.123  0.00  0.00    +0.210 HD
ENDBRANCH   1  19
BRANCH   5  21
ATOM     21  O   UNL     1       7.831  -5.985  27.452  0.00  0.00    -0.385 OA
ATOM     22  H   UNL     1       7.563  -6.725  26.875  0.00  0.00    +0.210 HD
ENDBRANCH   5  21
BRANCH   2  23
ATOM     23  C   UNL     1       4.666  -5.929  26.835  0.00  0.00    +0.206 C 
BRANCH  23  24
ATOM     24  O   UNL     1       4.573  -7.117  26.061  0.00  0.00    -0.284 OA
BRANCH  24  25
ATOM     25  P   UNL     1       3.251  -7.106  24.946  0.00  0.00    +0.472 P 
ATOM     26  O   UNL     1       2.068  -7.095  23.947  0.00  0.00    -0.228 OA
BRANCH  25  27
ATOM     27  O   UNL     1       2.987  -8.630  25.480  0.00  0.00    -0.303 OA
ATOM     28  H   UNL     1       3.435  -9.282  24.911  0.00  0.00    +0.222 HD
ENDBRANCH  25  27
BRANCH  25  29
ATOM     29  O   UNL     1       4.415  -7.523  23.876  0.00  0.00    -0.303 OA
ATOM     30  H   UNL     1       5.248  -7.565  24.383  0.00  0.00    +0.222 HD
ENDBRANCH  25  29
ENDBRANCH  24  25
ENDBRANCH  23  24
ENDBRANCH   2  23
TORSDOF 10
ENDMDL
MODEL 2
REMARK VINA RESULT:      -6.4      3.058      6.599
REMARK  Name = 
REMARK  10 active torsions:
REMARK  status: ('A' for Active; 'I' for Inactive)
REMARK    1  A    between atoms: O_1  and  C_2
REMARK    2  A    between atoms: C_4  and  O_6
REMARK    3  A    between atoms: C_7  and  N_18
REMARK    4  A    between atoms: C_10  and  C_12
REMARK    5  A    between atoms: C_12  and  O_13
REMARK    6  A    between atoms: O_13  and  P_14
REMARK    7  A    between atoms: P_14  and  O_15
REMARK    8  A    between atoms: P_14  and  O_16
REMARK    9  A    between atoms: C_25  and  C_26
REMARK   10  A    between atoms: C_26  and  O_27
REMARK                            x       y       z     vdW  Elec       q    Type
REMARK                         _______ _______ _______ _____ _____    ______ ____
ROOT
ATOM      1  C   UNL     1       7.028  -1.840  23.290  0.00  0.00    +0.178 C 
ATOM      2  C   UNL     1       7.567  -1.867  24.721  0.00  0.00    +0.178 C 
ATOM      3  O   UNL     1       8.262  -3.122  24.904  0.00  0.00    -0.346 OA
ATOM      4  C   UNL     1       8.125  -3.930  23.702  0.00  0.00    +0.255 C 
ATOM      5  C   UNL     1       7.908  -2.861  22.594  0.00  0.00    +0.195 C 
ENDROOT
BRANCH   4   6
ATOM      6  N   UNL     1       7.070  -4.923  23.957  0.00  0.00    -0.258 N 
ATOM      7  C   UNL     1       6.673  -5.365  25.237  0.00  0.00    +0.138 A 
ATOM      8  C   UNL     1       5.612  -6.181  25.361  0.00  0.00    +0.103 A 
ATOM      9  C   UNL     1       4.869  -6.630  24.187  0.00  0.00    +0.255 A 
ATOM     10  O   UNL     1       3.828  -7.266  24.293  0.00  0.00    -0.268 OA
ATOM     11  N   UNL     1       5.446  -6.330  23.005  0.00  0.00    -0.275 N 
ATOM     12  H   UNL     1       5.034  -6.741  22.177  0.00  0.00    +0.173 HD
ATOM     13  C   UNL     1       6.597  -5.618  22.841  0.00  0.00    +0.332 A 
ATOM     14  O   UNL     1       7.128  -5.600  21.738  0.00  0.00    -0.246 OA
BRANCH   7  15
ATOM     15  C   UNL     1       7.335  -5.155  26.580  0.00  0.00    +0.354 C 
ATOM     16  O   UNL     1       6.777  -4.584  27.504  0.00  0.00    -0.243 OA
BRANCH  15  17
ATOM     17  O   UNL     1       8.544  -5.705  26.786  0.00  0.00    -0.476 OA
ATOM     18  H   UNL     1       8.901  -5.513  27.675  0.00  0.00    +0.295 HD
ENDBRANCH  15  17
ENDBRANCH   7  15
ENDBRANCH   4   6
BRANCH   1  19
ATOM     19  O   UNL     1       5.656  -2.239  23.242  0.00  0.00    -0.386 OA
ATOM     20  H   UNL     1       5.112  -1.508  22.905  0.00  0.00    +0.210 HD
ENDBRANCH   1  19
BRANCH   5  21
ATOM     21  O   UNL     1       9.174  -2.258  22.270  0.00  0.00    -0.385 OA
ATOM     22  H   UNL     1       9.431  -1.705  23.032  0.00  0.00    +0.210 HD
ENDBRANCH   5  21
BRANCH   2  23
ATOM     23  C   UNL     1       8.507  -0.700  25.014  0.00  0.00    +0.206 C 
BRANCH  23  24
ATOM     24  O   UNL     1       8.397   0.234  23.949  0.00  0.00    -0.284 OA
BRANCH  24  25
ATOM     25  P   UNL     1       9.715   1.353  23.882  0.00  0.00    +0.472 P 
ATOM     26  O   UNL     1      10.894   2.355  23.822  0.00  0.00    -0.228 OA
BRANCH  25  27
ATOM     27  O   UNL     1      10.488   0.160  23.072  0.00  0.00    -0.303 OA
ATOM     28  H   UNL     1      11.193   0.521  22.506  0.00  0.00    +0.222 HD
ENDBRANCH  25  27
BRANCH  25  29
ATOM     29  O   UNL     1      10.034   0.754  25.369  0.00  0.00    -0.303 OA
ATOM     30  H   UNL     1       9.921   1.496  25.991  0.00  0.00    +0.222 HD
ENDBRANCH  25  29
ENDBRANCH  24  25
ENDBRANCH  23  24
ENDBRANCH   2  23
TORSDOF 10
ENDMDL
MODEL 3
REMARK VINA RESULT:      -6.1      2.827      6.142
REMARK  Name = 
REMARK  10 active torsions:
REMARK  status: ('A' for Active; 'I' for Inactive)
REMARK    1  A    between atoms: O_1  and  C_2
REMARK    2  A    between atoms: C_4  and  O_6
REMARK    3  A    between atoms: C_7  and  N_18
REMARK    4  A    between atoms: C_10  and  C_12
REMARK    5  A    between atoms: C_12  and  O_13
REMARK    6  A    between atoms: O_13  and  P_14
REMARK    7  A    between atoms: P_14  and  O_15
REMARK    8  A    between atoms: P_14  and  O_16
REMARK    9  A    between atoms: C_25  and  C_26
REMARK   10  A    between atoms: C_26  and  O_27
REMARK                            x       y       z     vdW  Elec       q    Type
REMARK                         _______ _______ _______ _____ _____    ______ ____
ROOT
ATOM      1  C   UNL     1       8.648  -3.039  25.325  0.00  0.00    +0.178 C 
ATOM      2  C   UNL     1       8.946  -3.187  23.833  0.00  0.00    +0.178 C 
ATOM      3  O   UNL     1       7.710  -2.967  23.114  0.00  0.00    -0.346 OA
ATOM      4  C   UNL     1       6.627  -2.772  24.066  0.00  0.00    +0.255 C 
ATOM      5  C   UNL     1       7.367  -2.227  25.320  0.00  0.00    +0.195 C 
ENDROOT
BRANCH   4   6
ATOM      6  N   UNL     1       5.892  -4.043  24.162  0.00  0.00    -0.258 N 
ATOM      7  C   UNL     1       5.843  -5.023  23.149  0.00  0.00    +0.138 A 
ATOM      8  C   UNL     1       5.246  -6.203  23.391  0.00  0.00    +0.103 A 
ATOM      9  C   UNL     1       4.635  -6.483  24.687  0.00  0.00    +0.255 A 
ATOM     10  O   UNL     1       4.204  -7.595  24.964  0.00  0.00    -0.268 OA
ATOM     11  N   UNL     1       4.546  -5.419  25.511  0.00  0.00    -0.275 N 
ATOM     12  H   UNL     1       4.009  -5.540  26.359  0.00  0.00    +0.173 HD
ATOM     13  C   UNL     1       5.021  -4.168  25.247  0.00  0.00    +0.332 A 
ATOM     14  O   UNL     1       4.688  -3.244  25.978  0.00  0.00    -0.246 OA
BRANCH   7  15
ATOM     15  C   UNL     1       6.278  -4.941  21.703  0.00  0.00    +0.354 C 
ATOM     16  O   UNL     1       7.024  -5.764  21.195  0.00  0.00    -0.243 OA
BRANCH  15  17
ATOM     17  O   UNL     1       5.744  -3.979  20.932  0.00  0.00    -0.476 OA
ATOM     18  H   UNL     1       6.370  -3.638  20.263  0.00  0.00    +0.295 HD
ENDBRANCH  15  17
ENDBRANCH   7  15
ENDBRANCH   4   6
BRANCH   1  19
ATOM     19  O   UNL     1       8.437  -4.311  25.942  0.00  0.00    -0.386 OA
ATOM     20  H   UNL     1       7.483  -4.477  26.035  0.00  0.00    +0.210 HD
ENDBRANCH   1  19
BRANCH   5  21
ATOM     21  O   UNL     1       7.683  -0.839  25.110  0.00  0.00    -0.385 OA
ATOM     22  H   UNL     1       7.099  -0.320  25.695  0.00  0.00    +0.210 HD
ENDBRANCH   5  21
BRANCH   2  23
ATOM     23  C   UNL     1      10.014  -2.207  23.350  0.00  0.00    +0.206 C 
BRANCH  23  24
ATOM     24  O   UNL     1       9.602  -1.687  22.094  0.00  0.00    -0.284 OA
BRANCH  24  25
ATOM     25  P   UNL     1       9.718   0.036  21.994  0.00  0.00    +0.472 P 
ATOM     26  O   UNL     1       9.822   1.578  21.904  0.00  0.00    -0.228 OA
BRANCH  25  27
ATOM     27  O   UNL     1      10.223  -0.061  23.548  0.00  0.00    -0.303 OA
ATOM     28  H   UNL     1      10.898   0.614  23.738  0.00  0.00    +0.222 HD
ENDBRANCH  25  27
BRANCH  25  29
ATOM     29  O   UNL     1       8.125  -0.039  22.351  0.00  0.00    -0.303 OA
ATOM     30  H   UNL     1       7.664  -0.205  21.507  0.00  0.00    +0.222 HD
ENDBRANCH  25  29
ENDBRANCH  24  25
ENDBRANCH  23  24
ENDBRANCH   2  23
TORSDOF 10
ENDMDL
MODEL 4
REMARK VINA RESULT:      -6.1      2.170      3.902
REMARK  Name = 
REMARK  10 active torsions:
REMARK  status: ('A' for Active; 'I' for Inactive)
REMARK    1  A    between atoms: O_1  and  C_2
REMARK    2  A    between atoms: C_4  and  O_6
REMARK    3  A    between atoms: C_7  and  N_18
REMARK    4  A    between atoms: C_10  and  C_12
REMARK    5  A    between atoms: C_12  and  O_13
REMARK    6  A    between atoms: O_13  and  P_14
REMARK    7  A    between atoms: P_14  and  O_15
REMARK    8  A    between atoms: P_14  and  O_16
REMARK    9  A    between atoms: C_25  and  C_26
REMARK   10  A    between atoms: C_26  and  O_27
REMARK                            x       y       z     vdW  Elec       q    Type
REMARK                         _______ _______ _______ _____ _____    ______ ____
ROOT
ATOM      1  C   UNL     1       5.134  -4.234  23.828  0.00  0.00    +0.178 C 
ATOM      2  C   UNL     1       5.829  -4.991  24.960  0.00  0.00    +0.178 C 
ATOM      3  O   UNL     1       6.506  -4.018  25.789  0.00  0.00    -0.346 OA
ATOM      4  C   UNL     1       6.352  -2.695  25.203  0.00  0.00    +0.255 C 
ATOM      5  C   UNL     1       5.032  -2.830  24.394  0.00  0.00    +0.195 C 
ENDROOT
BRANCH   4   6
ATOM      6  N   UNL     1       7.601  -2.382  24.490  0.00  0.00    -0.258 N 
ATOM      7  C   UNL     1       8.792  -3.134  24.583  0.00  0.00    +0.138 A 
ATOM      8  C   UNL     1       9.835  -2.832  23.791  0.00  0.00    +0.103 A 
ATOM      9  C   UNL     1       9.760  -1.725  22.841  0.00  0.00    +0.255 A 
ATOM     10  O   UNL     1      10.651  -1.521  22.027  0.00  0.00    -0.268 OA
ATOM     11  N   UNL     1       8.671  -0.941  22.973  0.00  0.00    -0.275 N 
ATOM     12  H   UNL     1       8.652  -0.089  22.427  0.00  0.00    +0.173 HD
ATOM     13  C   UNL     1       7.653  -1.137  23.858  0.00  0.00    +0.332 A 
ATOM     14  O   UNL     1       6.836  -0.241  24.027  0.00  0.00    -0.246 OA
BRANCH   7  15
ATOM     15  C   UNL     1       9.169  -4.229  25.555  0.00  0.00    +0.354 C 
ATOM     16  O   UNL     1       9.705  -5.267  25.198  0.00  0.00    -0.243 OA
BRANCH  15  17
ATOM     17  O   UNL     1       8.993  -4.002  26.868  0.00  0.00    -0.476 OA
ATOM     18  H   UNL     1       8.068  -4.134  27.154  0.00  0.00    +0.295 HD
ENDBRANCH  15  17
ENDBRANCH   7  15
ENDBRANCH   4   6
BRANCH   1  19
ATOM     19  O   UNL     1       5.922  -4.241  22.635  0.00  0.00    -0.386 OA
ATOM     20  H   UNL     1       5.481  -3.716  21.947  0.00  0.00    +0.210 HD
ENDBRANCH   1  19
BRANCH   5  21
ATOM     21  O   UNL     1       3.918  -2.762  25.302  0.00  0.00    -0.385 OA
ATOM     22  H   UNL     1       4.059  -1.981  25.871  0.00  0.00    +0.210 HD
ENDBRANCH   5  21
BRANCH   2  23
ATOM     23  C   UNL     1       4.852  -5.808  25.803  0.00  0.00    +0.206 C 
BRANCH  23  24
ATOM     24  O   UNL     1       5.606  -6.673  26.640  0.00  0.00    -0.284 OA
BRANCH  24  25
ATOM     25  P   UNL     1       5.808  -6.065  28.247  0.00  0.00    +0.472 P 
ATOM     26  O   UNL     1       5.987  -5.521  29.686  0.00  0.00    -0.228 OA
BRANCH  25  27
ATOM     27  O   UNL     1       7.408  -6.171  27.923  0.00  0.00    -0.303 OA
ATOM     28  H   UNL     1       7.860  -6.736  28.576  0.00  0.00    +0.222 HD
ENDBRANCH  25  27
BRANCH  25  29
ATOM     29  O   UNL     1       5.633  -7.640  28.647  0.00  0.00    -0.303 OA
ATOM     30  H   UNL     1       6.337  -8.121  28.174  0.00  0.00    +0.222 HD
ENDBRANCH  25  29
ENDBRANCH  24  25
ENDBRANCH  23  24
ENDBRANCH   2  23
TORSDOF 10
ENDMDL
MODEL 5
REMARK VINA RESULT:      -6.1      2.438      3.775
REMARK  Name = 
REMARK  10 active torsions:
REMARK  status: ('A' for Active; 'I' for Inactive)
REMARK    1  A    between atoms: O_1  and  C_2
REMARK    2  A    between atoms: C_4  and  O_6
REMARK    3  A    between atoms: C_7  and  N_18
REMARK    4  A    between atoms: C_10  and  C_12
REMARK    5  A    between atoms: C_12  and  O_13
REMARK    6  A    between atoms: O_13  and  P_14
REMARK    7  A    between atoms: P_14  and  O_15
REMARK    8  A    between atoms: P_14  and  O_16
REMARK    9  A    between atoms: C_25  and  C_26
REMARK   10  A    between atoms: C_26  and  O_27
REMARK                            x       y       z     vdW  Elec       q    Type
REMARK                         _______ _______ _______ _____ _____    ______ ____
ROOT
ATOM      1  C   UNL     1       6.507  -3.199  24.751  0.00  0.00    +0.178 C 
ATOM      2  C   UNL     1       7.050  -3.400  23.336  0.00  0.00    +0.178 C 
ATOM      3  O   UNL     1       8.466  -3.106  23.363  0.00  0.00    -0.346 OA
ATOM      4  C   UNL     1       8.838  -2.648  24.693  0.00  0.00    +0.255 C 
ATOM      5  C   UNL     1       7.762  -3.311  25.597  0.00  0.00    +0.195 C 
ENDROOT
BRANCH   4   6
ATOM      6  N   UNL     1       8.929  -1.180  24.644  0.00  0.00    -0.258 N 
ATOM      7  C   UNL     1       9.220  -0.430  23.485  0.00  0.00    +0.138 A 
ATOM      8  C   UNL     1       9.153   0.912  23.525  0.00  0.00    +0.103 A 
ATOM      9  C   UNL     1       8.796   1.608  24.757  0.00  0.00    +0.255 A 
ATOM     10  O   UNL     1       8.607   2.818  24.776  0.00  0.00    -0.268 OA
ATOM     11  N   UNL     1       8.746   0.826  25.854  0.00  0.00    -0.275 N 
ATOM     12  H   UNL     1       8.637   1.293  26.745  0.00  0.00    +0.173 HD
ATOM     13  C   UNL     1       8.940  -0.523  25.877  0.00  0.00    +0.332 A 
ATOM     14  O   UNL     1       9.081  -1.082  26.957  0.00  0.00    -0.246 OA
BRANCH   7  15
ATOM     15  C   UNL     1       9.730  -0.891  22.138  0.00  0.00    +0.354 C 
ATOM     16  O   UNL     1       9.318  -0.426  21.086  0.00  0.00    -0.243 OA
BRANCH  15  17
ATOM     17  O   UNL     1      10.741  -1.776  22.110  0.00  0.00    -0.476 OA
ATOM     18  H   UNL     1      11.254  -1.790  22.942  0.00  0.00    +0.295 HD
ENDBRANCH  15  17
ENDBRANCH   7  15
ENDBRANCH   4   6
BRANCH   1  19
ATOM     19  O   UNL     1       5.910  -1.909  24.901  0.00  0.00    -0.386 OA
ATOM     20  H   UNL     1       4.966  -2.006  25.111  0.00  0.00    +0.210 HD
ENDBRANCH   1  19
BRANCH   5  21
ATOM     21  O   UNL     1       8.092  -4.699  25.779  0.00  0.00    -0.385 OA
ATOM     22  H   UNL     1       7.321  -5.219  25.481  0.00  0.00    +0.210 HD
ENDBRANCH   5  21
BRANCH   2  23
ATOM     23  C   UNL     1       6.820  -4.818  22.817  0.00  0.00    +0.206 C 
BRANCH  23  24
ATOM     24  O   UNL     1       6.007  -5.506  23.758  0.00  0.00    -0.284 OA
BRANCH  24  25
ATOM     25  P   UNL     1       4.393  -5.778  23.197  0.00  0.00    +0.472 P 
ATOM     26  O   UNL     1       2.948  -6.021  22.695  0.00  0.00    -0.228 OA
BRANCH  25  27
ATOM     27  O   UNL     1       4.617  -7.298  23.758  0.00  0.00    -0.303 OA
ATOM     28  H   UNL     1       4.926  -7.890  23.049  0.00  0.00    +0.222 HD
ENDBRANCH  25  27
BRANCH  25  29
ATOM     29  O   UNL     1       5.149  -6.034  21.770  0.00  0.00    -0.303 OA
ATOM     30  H   UNL     1       6.080  -6.225  21.986  0.00  0.00    +0.222 HD
ENDBRANCH  25  29
ENDBRANCH  24  25
ENDBRANCH  23  24
ENDBRANCH   2  23
TORSDOF 10
ENDMDL
MODEL 6
REMARK VINA RESULT:      -6.0      3.231      5.421
REMARK  Name = 
REMARK  10 active torsions:
REMARK  status: ('A' for Active; 'I' for Inactive)
REMARK    1  A    between atoms: O_1  and  C_2
REMARK    2  A    between atoms: C_4  and  O_6
REMARK    3  A    between atoms: C_7  and  N_18
REMARK    4  A    between atoms: C_10  and  C_12
REMARK    5  A    between atoms: C_12  and  O_13
REMARK    6  A    between atoms: O_13  and  P_14
REMARK    7  A    between atoms: P_14  and  O_15
REMARK    8  A    between atoms: P_14  and  O_16
REMARK    9  A    between atoms: C_25  and  C_26
REMARK   10  A    between atoms: C_26  and  O_27
REMARK                            x       y       z     vdW  Elec       q    Type
REMARK                         _______ _______ _______ _____ _____    ______ ____
ROOT
ATOM      1  C   UNL     1       9.480  -2.460  23.132  0.00  0.00    +0.178 C 
ATOM      2  C   UNL     1       8.858  -2.279  24.516  0.00  0.00    +0.178 C 
ATOM      3  O   UNL     1       7.881  -1.217  24.425  0.00  0.00    -0.346 OA
ATOM      4  C   UNL     1       7.905  -0.654  23.083  0.00  0.00    +0.255 C 
ATOM      5  C   UNL     1       8.435  -1.836  22.225  0.00  0.00    +0.195 C 
ENDROOT
BRANCH   4   6
ATOM      6  N   UNL     1       8.684   0.594  23.144  0.00  0.00    -0.258 N 
ATOM      7  C   UNL     1       8.747   1.449  24.264  0.00  0.00    +0.138 A 
ATOM      8  C   UNL     1       9.590   2.497  24.256  0.00  0.00    +0.103 A 
ATOM      9  C   UNL     1      10.434   2.772  23.097  0.00  0.00    +0.255 A 
ATOM     10  O   UNL     1      11.295   3.642  23.125  0.00  0.00    -0.268 OA
ATOM     11  N   UNL     1      10.151   2.033  22.005  0.00  0.00    -0.275 N 
ATOM     12  H   UNL     1      10.621   2.288  21.145  0.00  0.00    +0.173 HD
ATOM     13  C   UNL     1       9.210   1.050  21.933  0.00  0.00    +0.332 A 
ATOM     14  O   UNL     1       8.903   0.605  20.833  0.00  0.00    -0.246 OA
BRANCH   7  15
ATOM     15  C   UNL     1       7.905   1.462  25.519  0.00  0.00    +0.354 C 
ATOM     16  O   UNL     1       6.852   2.076  25.596  0.00  0.00    -0.243 OA
BRANCH  15  17
ATOM     17  O   UNL     1       8.288   0.689  26.550  0.00  0.00    -0.476 OA
ATOM     18  H   UNL     1       7.656  -0.033  26.737  0.00  0.00    +0.295 HD
ENDBRANCH  15  17
ENDBRANCH   7  15
ENDBRANCH   4   6
BRANCH   1  19
ATOM     19  O   UNL     1      10.723  -1.761  23.024  0.00  0.00    -0.386 OA
ATOM     20  H   UNL     1      10.938  -1.340  23.873  0.00  0.00    +0.210 HD
ENDBRANCH   1  19
BRANCH   5  21
ATOM     21  O   UNL     1       7.366  -2.776  22.012  0.00  0.00    -0.385 OA
ATOM     22  H   UNL     1       7.720  -3.663  22.216  0.00  0.00    +0.210 HD
ENDBRANCH   5  21
BRANCH   2  23
ATOM     23  C   UNL     1       8.196  -3.556  25.030  0.00  0.00    +0.206 C 
BRANCH  23  24
ATOM     24  O   UNL     1       6.789  -3.411  24.891  0.00  0.00    -0.284 OA
BRANCH  24  25
ATOM     25  P   UNL     1       5.954  -4.922  24.779  0.00  0.00    +0.472 P 
ATOM     26  O   UNL     1       5.205  -6.274  24.677  0.00  0.00    -0.228 OA
BRANCH  25  27
ATOM     27  O   UNL     1       6.970  -5.399  25.969  0.00  0.00    -0.303 OA
ATOM     28  H   UNL     1       7.000  -4.742  26.687  0.00  0.00    +0.222 HD
ENDBRANCH  25  27
BRANCH  25  29
ATOM     29  O   UNL     1       7.014  -5.186  23.563  0.00  0.00    -0.303 OA
ATOM     30  H   UNL     1       6.610  -4.804  22.762  0.00  0.00    +0.222 HD
ENDBRANCH  25  29
ENDBRANCH  24  25
ENDBRANCH  23  24
ENDBRANCH   2  23
TORSDOF 10
ENDMDL
MODEL 7
REMARK VINA RESULT:      -5.9      2.604      4.104
REMARK  Name = 
REMARK  10 active torsions:
REMARK  status: ('A' for Active; 'I' for Inactive)
REMARK    1  A    between atoms: O_1  and  C_2
REMARK    2  A    between atoms: C_4  and  O_6
REMARK    3  A    between atoms: C_7  and  N_18
REMARK    4  A    between atoms: C_10  and  C_12
REMARK    5  A    between atoms: C_12  and  O_13
REMARK    6  A    between atoms: O_13  and  P_14
REMARK    7  A    between atoms: P_14  and  O_15
REMARK    8  A    between atoms: P_14  and  O_16
REMARK    9  A    between atoms: C_25  and  C_26
REMARK   10  A    between atoms: C_26  and  O_27
REMARK                            x       y       z     vdW  Elec       q    Type
REMARK                         _______ _______ _______ _____ _____    ______ ____
ROOT
ATOM      1  C   UNL     1       5.706  -1.966  24.372  0.00  0.00    +0.178 C 
ATOM      2  C   UNL     1       6.336  -2.476  23.075  0.00  0.00    +0.178 C 
ATOM      3  O   UNL     1       7.758  -2.610  23.301  0.00  0.00    -0.346 OA
ATOM      4  C   UNL     1       8.082  -2.135  24.638  0.00  0.00    +0.255 C 
ATOM      5  C   UNL     1       6.748  -2.344  25.408  0.00  0.00    +0.195 C 
ENDROOT
BRANCH   4   6
ATOM      6  N   UNL     1       8.625  -0.774  24.501  0.00  0.00    -0.258 N 
ATOM      7  C   UNL     1       9.348  -0.305  23.384  0.00  0.00    +0.138 A 
ATOM      8  C   UNL     1       9.688   0.994  23.308  0.00  0.00    +0.103 A 
ATOM      9  C   UNL     1       9.332   1.926  24.373  0.00  0.00    +0.255 A 
ATOM     10  O   UNL     1       9.521   3.131  24.258  0.00  0.00    -0.268 OA
ATOM     11  N   UNL     1       8.834   1.350  25.485  0.00  0.00    -0.275 N 
ATOM     12  H   UNL     1       8.704   1.947  26.292  0.00  0.00    +0.173 HD
ATOM     13  C   UNL     1       8.599   0.017  25.652  0.00  0.00    +0.332 A 
ATOM     14  O   UNL     1       8.352  -0.403  26.775  0.00  0.00    -0.246 OA
BRANCH   7  15
ATOM     15  C   UNL     1       9.941  -1.072  22.224  0.00  0.00    +0.354 C 
ATOM     16  O   UNL     1      10.874  -1.849  22.360  0.00  0.00    -0.243 OA
BRANCH  15  17
ATOM     17  O   UNL     1       9.352  -0.963  21.021  0.00  0.00    -0.476 OA
ATOM     18  H   UNL     1       9.274  -1.820  20.558  0.00  0.00    +0.295 HD
ENDBRANCH  15  17
ENDBRANCH   7  15
ENDBRANCH   4   6
BRANCH   1  19
ATOM     19  O   UNL     1       5.521  -0.548  24.337  0.00  0.00    -0.386 OA
ATOM     20  H   UNL     1       4.759  -0.303  24.889  0.00  0.00    +0.210 HD
ENDBRANCH   1  19
BRANCH   5  21
ATOM     21  O   UNL     1       6.610  -3.739  25.735  0.00  0.00    -0.385 OA
ATOM     22  H   UNL     1       5.780  -4.048  25.326  0.00  0.00    +0.210 HD
ENDBRANCH   5  21
BRANCH   2  23
ATOM     23  C   UNL     1       5.749  -3.813  22.628  0.00  0.00    +0.206 C 
BRANCH  23  24
ATOM     24  O   UNL     1       4.625  -4.099  23.448  0.00  0.00    -0.284 OA
BRANCH  24  25
ATOM     25  P   UNL     1       4.449  -5.783  23.805  0.00  0.00    +0.472 P 
ATOM     26  O   UNL     1       4.291  -7.290  24.124  0.00  0.00    -0.228 OA
BRANCH  25  27
ATOM     27  O   UNL     1       4.278  -5.281  25.353  0.00  0.00    -0.303 OA
ATOM     28  H   UNL     1       3.443  -4.794  25.472  0.00  0.00    +0.222 HD
ENDBRANCH  25  27
BRANCH  25  29
ATOM     29  O   UNL     1       6.083  -5.744  23.815  0.00  0.00    -0.303 OA
ATOM     30  H   UNL     1       6.335  -5.071  24.476  0.00  0.00    +0.222 HD
ENDBRANCH  25  29
ENDBRANCH  24  25
ENDBRANCH  23  24
ENDBRANCH   2  23
TORSDOF 10
ENDMDL
MODEL 8
REMARK VINA RESULT:      -5.9      2.801      6.562
REMARK  Name = 
REMARK  10 active torsions:
REMARK  status: ('A' for Active; 'I' for Inactive)
REMARK    1  A    between atoms: O_1  and  C_2
REMARK    2  A    between atoms: C_4  and  O_6
REMARK    3  A    between atoms: C_7  and  N_18
REMARK    4  A    between atoms: C_10  and  C_12
REMARK    5  A    between atoms: C_12  and  O_13
REMARK    6  A    between atoms: O_13  and  P_14
REMARK    7  A    between atoms: P_14  and  O_15
REMARK    8  A    between atoms: P_14  and  O_16
REMARK    9  A    between atoms: C_25  and  C_26
REMARK   10  A    between atoms: C_26  and  O_27
REMARK                            x       y       z     vdW  Elec       q    Type
REMARK                         _______ _______ _______ _____ _____    ______ ____
ROOT
ATOM      1  C   UNL     1       5.805  -2.902  23.209  0.00  0.00    +0.178 C 
ATOM      2  C   UNL     1       7.308  -2.854  23.484  0.00  0.00    +0.178 C 
ATOM      3  O   UNL     1       7.776  -4.218  23.599  0.00  0.00    -0.346 OA
ATOM      4  C   UNL     1       6.645  -5.127  23.498  0.00  0.00    +0.255 C 
ATOM      5  C   UNL     1       5.619  -4.307  22.667  0.00  0.00    +0.195 C 
ENDROOT
BRANCH   4   6
ATOM      6  N   UNL     1       6.292  -5.543  24.865  0.00  0.00    -0.258 N 
ATOM      7  C   UNL     1       7.131  -5.404  25.990  0.00  0.00    +0.138 A 
ATOM      8  C   UNL     1       6.659  -5.701  27.214  0.00  0.00    +0.103 A 
ATOM      9  C   UNL     1       5.292  -6.178  27.395  0.00  0.00    +0.255 A 
ATOM     10  O   UNL     1       4.810  -6.329  28.511  0.00  0.00    -0.268 OA
ATOM     11  N   UNL     1       4.642  -6.479  26.253  0.00  0.00    -0.275 N 
ATOM     12  H   UNL     1       3.746  -6.940  26.343  0.00  0.00    +0.173 HD
ATOM     13  C   UNL     1       5.136  -6.318  24.993  0.00  0.00    +0.332 A 
ATOM     14  O   UNL     1       4.537  -6.826  24.053  0.00  0.00    -0.246 OA
BRANCH   7  15
ATOM     15  C   UNL     1       8.601  -5.057  26.064  0.00  0.00    +0.354 C 
ATOM     16  O   UNL     1       9.019  -4.102  26.700  0.00  0.00    -0.243 OA
BRANCH  15  17
ATOM     17  O   UNL     1       9.480  -5.891  25.484  0.00  0.00    -0.476 OA
ATOM     18  H   UNL     1      10.375  -5.828  25.872  0.00  0.00    +0.295 HD
ENDBRANCH  15  17
ENDBRANCH   7  15
ENDBRANCH   4   6
BRANCH   1  19
ATOM     19  O   UNL     1       5.050  -2.721  24.410  0.00  0.00    -0.386 OA
ATOM     20  H   UNL     1       4.299  -3.338  24.422  0.00  0.00    +0.210 HD
ENDBRANCH   1  19
BRANCH   5  21
ATOM     21  O   UNL     1       6.007  -4.338  21.281  0.00  0.00    -0.385 OA
ATOM     22  H   UNL     1       5.872  -3.439  20.926  0.00  0.00    +0.210 HD
ENDBRANCH   5  21
BRANCH   2  23
ATOM     23  C   UNL     1       8.080  -2.127  22.385  0.00  0.00    +0.206 C 
BRANCH  23  24
ATOM     24  O   UNL     1       9.245  -1.559  22.965  0.00  0.00    -0.284 OA
BRANCH  24  25
ATOM     25  P   UNL     1       9.647  -0.007  22.314  0.00  0.00    +0.472 P 
ATOM     26  O   UNL     1      10.008   1.382  21.732  0.00  0.00    -0.228 OA
BRANCH  25  27
ATOM     27  O   UNL     1       8.042   0.288  22.430  0.00  0.00    -0.303 OA
ATOM     28  H   UNL     1       7.588   0.084  21.592  0.00  0.00    +0.222 HD
ENDBRANCH  25  27
BRANCH  25  29
ATOM     29  O   UNL     1       9.550  -0.804  20.891  0.00  0.00    -0.303 OA
ATOM     30  H   UNL     1      10.454  -0.820  20.525  0.00  0.00    +0.222 HD
ENDBRANCH  25  29
ENDBRANCH  24  25
ENDBRANCH  23  24
ENDBRANCH   2  23
TORSDOF 10
ENDMDL
MODEL 9
REMARK VINA RESULT:      -5.9      3.873      6.086
REMARK  Name = 
REMARK  10 active torsions:
REMARK  status: ('A' for Active; 'I' for Inactive)
REMARK    1  A    between atoms: O_1  and  C_2
REMARK    2  A    between atoms: C_4  and  O_6
REMARK    3  A    between atoms: C_7  and  N_18
REMARK    4  A    between atoms: C_10  and  C_12
REMARK    5  A    between atoms: C_12  and  O_13
REMARK    6  A    between atoms: O_13  and  P_14
REMARK    7  A    between atoms: P_14  and  O_15
REMARK    8  A    between atoms: P_14  and  O_16
REMARK    9  A    between atoms: C_25  and  C_26
REMARK   10  A    between atoms: C_26  and  O_27
REMARK                            x       y       z     vdW  Elec       q    Type
REMARK                         _______ _______ _______ _____ _____    ______ ____
ROOT
ATOM      1  C   UNL     1       9.912  -1.173  23.729  0.00  0.00    +0.178 C 
ATOM      2  C   UNL     1       8.430  -1.451  23.986  0.00  0.00    +0.178 C 
ATOM      3  O   UNL     1       7.664  -0.597  23.105  0.00  0.00    -0.346 OA
ATOM      4  C   UNL     1       8.569   0.268  22.364  0.00  0.00    +0.255 C 
ATOM      5  C   UNL     1       9.888  -0.553  22.344  0.00  0.00    +0.195 C 
ENDROOT
BRANCH   4   6
ATOM      6  N   UNL     1       8.554   1.585  23.020  0.00  0.00    -0.258 N 
ATOM      7  C   UNL     1       7.421   2.171  23.624  0.00  0.00    +0.138 A 
ATOM      8  C   UNL     1       7.550   3.322  24.306  0.00  0.00    +0.103 A 
ATOM      9  C   UNL     1       8.845   3.986  24.421  0.00  0.00    +0.255 A 
ATOM     10  O   UNL     1       9.002   4.962  25.144  0.00  0.00    -0.268 OA
ATOM     11  N   UNL     1       9.815   3.469  23.640  0.00  0.00    -0.275 N 
ATOM     12  H   UNL     1      10.685   3.983  23.590  0.00  0.00    +0.173 HD
ATOM     13  C   UNL     1       9.687   2.380  22.830  0.00  0.00    +0.332 A 
ATOM     14  O   UNL     1      10.570   2.143  22.015  0.00  0.00    -0.246 OA
BRANCH   7  15
ATOM     15  C   UNL     1       5.967   1.763  23.550  0.00  0.00    +0.354 C 
ATOM     16  O   UNL     1       5.161   2.335  22.833  0.00  0.00    -0.243 OA
BRANCH  15  17
ATOM     17  O   UNL     1       5.578   0.670  24.229  0.00  0.00    -0.476 OA
ATOM     18  H   UNL     1       5.095   0.030  23.670  0.00  0.00    +0.295 HD
ENDBRANCH  15  17
ENDBRANCH   7  15
ENDBRANCH   4   6
BRANCH   1  19
ATOM     19  O   UNL     1      10.442  -0.252  24.685  0.00  0.00    -0.386 OA
ATOM     20  H   UNL     1       9.880   0.540  24.725  0.00  0.00    +0.210 HD
ENDBRANCH   1  19
BRANCH   5  21
ATOM     21  O   UNL     1       9.777  -1.594  21.357  0.00  0.00    -0.385 OA
ATOM     22  H   UNL     1       8.958  -2.088  21.553  0.00  0.00    +0.210 HD
ENDBRANCH   5  21
BRANCH   2  23
ATOM     23  C   UNL     1       8.061  -2.914  23.748  0.00  0.00    +0.206 C 
BRANCH  23  24
ATOM     24  O   UNL     1       7.375  -3.001  22.507  0.00  0.00    -0.284 OA
BRANCH  24  25
ATOM     25  P   UNL     1       5.810  -3.727  22.640  0.00  0.00    +0.472 P 
ATOM     26  O   UNL     1       4.410  -4.376  22.759  0.00  0.00    -0.228 OA
BRANCH  25  27
ATOM     27  O   UNL     1       5.687  -3.390  21.043  0.00  0.00    -0.303 OA
ATOM     28  H   UNL     1       6.133  -2.551  20.828  0.00  0.00    +0.222 HD
ENDBRANCH  25  27
BRANCH  25  29
ATOM     29  O   UNL     1       5.382  -2.230  23.140  0.00  0.00    -0.303 OA
ATOM     30  H   UNL     1       4.471  -2.307  23.479  0.00  0.00    +0.222 HD
ENDBRANCH  25  29
ENDBRANCH  24  25
ENDBRANCH  23  24
ENDBRANCH   2  23
TORSDOF 10
ENDMDL
