MODEL 1
REMARK VINA RESULT:      -7.6      0.000      0.000
REMARK  Name = 
REMARK  4 active torsions:
REMARK  status: ('A' for Active; 'I' for Inactive)
REMARK    1  A    between atoms: C_2  and  N_8
REMARK    2  A    between atoms: C_9  and  C_11
REMARK    3  A    between atoms: C_15  and  N_16
REMARK    4  A    between atoms: C_17  and  C_19
REMARK                            x       y       z     vdW  Elec       q    Type
REMARK                         _______ _______ _______ _____ _____    ______ ____
ROOT
ATOM      1  C   UNL     1       7.023  -4.376  24.320  0.00  0.00    +0.168 A 
ATOM      2  C   UNL     1       7.416  -3.591  23.190  0.00  0.00    +0.084 A 
ATOM      3  C   UNL     1       7.194  -4.417  22.113  0.00  0.00    +0.129 A 
ATOM      4  N   UNL     1       6.697  -5.583  22.602  0.00  0.00    -0.282 N 
ATOM      5  H   UNL     1       6.430  -6.409  22.079  0.00  0.00    +0.188 HD
ATOM      6  N   UNL     1       6.574  -5.596  23.937  0.00  0.00    -0.167 NA
ENDROOT
BRANCH   1   9
ATOM      7  N   UNL     1       6.370  -4.929  26.522  0.00  0.00    -0.306 N 
ATOM      8  H   UNL     1       5.838  -5.596  25.965  0.00  0.00    +0.149 HD
ATOM      9  C   UNL     1       7.074  -4.029  25.753  0.00  0.00    +0.266 C 
ATOM     10  O   UNL     1       7.684  -3.059  26.188  0.00  0.00    -0.268 OA
BRANCH   7  11
ATOM     11  C   UNL     1       6.183  -4.885  27.968  0.00  0.00    +0.087 C 
ATOM     12  C   UNL     1       6.369  -6.261  28.650  0.00  0.00    +0.103 C 
ATOM     13  N   UNL     1       5.369  -7.257  28.229  0.00  0.00    -0.314 NA
ATOM     14  H   UNL     1       5.496  -7.420  27.230  0.00  0.00    +0.122 HD
ATOM     15  C   UNL     1       4.002  -6.788  28.467  0.00  0.00    +0.081 C 
ATOM     16  C   UNL     1       3.721  -5.421  27.843  0.00  0.00    +0.017 C 
ATOM     17  C   UNL     1       4.762  -4.385  28.278  0.00  0.00    +0.025 C 
ENDBRANCH   7  11
ENDBRANCH   1   9
BRANCH   2  18
ATOM     18  N   UNL     1       7.927  -2.296  23.162  0.00  0.00    -0.278 N 
ATOM     19  H   UNL     1       7.247  -1.551  23.018  0.00  0.00    +0.155 HD
ATOM     20  C   UNL     1       9.271  -1.993  23.347  0.00  0.00    +0.254 C 
ATOM     21  O   UNL     1      10.157  -2.811  23.578  0.00  0.00    -0.270 OA
BRANCH  20  22
ATOM     22  C   UNL     1       9.664  -0.570  23.274  0.00  0.00    +0.107 A 
ATOM     23  C   UNL     1       9.915   0.134  24.456  0.00  0.00    +0.138 A 
ATOM     24  F   UNL     1       9.908  -0.480  25.648  0.00  0.00    -0.205 F 
ATOM     25  C   UNL     1      10.208   1.498  24.436  0.00  0.00    +0.039 A 
ATOM     26  C   UNL     1      10.251   2.182  23.223  0.00  0.00    +0.006 A 
ATOM     27  C   UNL     1      10.008   1.490  22.037  0.00  0.00    +0.039 A 
ATOM     28  C   UNL     1       9.719   0.124  22.068  0.00  0.00    +0.138 A 
ATOM     29  F   UNL     1       9.476  -0.499  20.907  0.00  0.00    -0.205 F 
ENDBRANCH  20  22
ENDBRANCH   2  18
TORSDOF 4
ENDMDL
MODEL 2
REMARK VINA RESULT:      -7.6      2.165      3.398
REMARK  Name = 
REMARK  4 active torsions:
REMARK  status: ('A' for Active; 'I' for Inactive)
REMARK    1  A    between atoms: C_2  and  N_8
REMARK    2  A    between atoms: C_9  and  C_11
REMARK    3  A    between atoms: C_15  and  N_16
REMARK    4  A    between atoms: C_17  and  C_19
REMARK                            x       y       z     vdW  Elec       q    Type
REMARK                         _______ _______ _______ _____ _____    ______ ____
ROOT
ATOM      1  C   UNL     1       7.301  -4.793  25.300  0.00  0.00    +0.168 A 
ATOM      2  C   UNL     1       8.263  -3.777  25.599  0.00  0.00    +0.084 A 
ATOM      3  C   UNL     1       8.940  -4.265  26.692  0.00  0.00    +0.129 A 
ATOM      4  N   UNL     1       8.404  -5.480  26.982  0.00  0.00    -0.282 N 
ATOM      5  H   UNL     1       8.667  -6.109  27.731  0.00  0.00    +0.188 HD
ATOM      6  N   UNL     1       7.410  -5.838  26.156  0.00  0.00    -0.167 NA
ENDROOT
BRANCH   1   9
ATOM      7  N   UNL     1       5.237  -5.671  24.561  0.00  0.00    -0.306 N 
ATOM      8  H   UNL     1       5.427  -6.235  25.387  0.00  0.00    +0.149 HD
ATOM      9  C   UNL     1       6.265  -4.809  24.250  0.00  0.00    +0.266 C 
ATOM     10  O   UNL     1       6.325  -4.123  23.236  0.00  0.00    -0.268 OA
BRANCH   7  11
ATOM     11  C   UNL     1       4.062  -5.959  23.745  0.00  0.00    +0.087 C 
ATOM     12  C   UNL     1       3.023  -4.813  23.743  0.00  0.00    +0.103 C 
ATOM     13  N   UNL     1       2.436  -4.559  25.071  0.00  0.00    -0.314 NA
ATOM     14  H   UNL     1       3.189  -4.255  25.688  0.00  0.00    +0.122 HD
ATOM     15  C   UNL     1       1.816  -5.763  25.629  0.00  0.00    +0.081 C 
ATOM     16  C   UNL     1       2.761  -6.964  25.660  0.00  0.00    +0.017 C 
ATOM     17  C   UNL     1       3.375  -7.227  24.281  0.00  0.00    +0.025 C 
ENDBRANCH   7  11
ENDBRANCH   1   9
BRANCH   2  18
ATOM     18  N   UNL     1       8.472  -2.558  24.959  0.00  0.00    -0.278 N 
ATOM     19  H   UNL     1       7.811  -1.817  25.183  0.00  0.00    +0.155 HD
ATOM     20  C   UNL     1       9.525  -2.317  24.084  0.00  0.00    +0.254 C 
ATOM     21  O   UNL     1      10.401  -3.125  23.789  0.00  0.00    -0.270 OA
BRANCH  20  22
ATOM     22  C   UNL     1       9.606  -0.976  23.469  0.00  0.00    +0.107 A 
ATOM     23  C   UNL     1       9.257  -0.815  22.124  0.00  0.00    +0.138 A 
ATOM     24  F   UNL     1       8.752  -1.830  21.409  0.00  0.00    -0.205 F 
ATOM     25  C   UNL     1       9.398   0.418  21.484  0.00  0.00    +0.039 A 
ATOM     26  C   UNL     1       9.896   1.512  22.186  0.00  0.00    +0.006 A 
ATOM     27  C   UNL     1      10.242   1.366  23.529  0.00  0.00    +0.039 A 
ATOM     28  C   UNL     1      10.095   0.129  24.161  0.00  0.00    +0.138 A 
ATOM     29  F   UNL     1      10.454   0.029  25.448  0.00  0.00    -0.205 F 
ENDBRANCH  20  22
ENDBRANCH   2  18
TORSDOF 4
ENDMDL
MODEL 3
REMARK VINA RESULT:      -7.4      2.254      3.005
REMARK  Name = 
REMARK  4 active torsions:
REMARK  status: ('A' for Active; 'I' for Inactive)
REMARK    1  A    between atoms: C_2  and  N_8
REMARK    2  A    between atoms: C_9  and  C_11
REMARK    3  A    between atoms: C_15  and  N_16
REMARK    4  A    between atoms: C_17  and  C_19
REMARK                            x       y       z     vdW  Elec       q    Type
REMARK                         _______ _______ _______ _____ _____    ______ ____
ROOT
ATOM      1  C   UNL     1       7.115  -4.597  25.181  0.00  0.00    +0.168 A 
ATOM      2  C   UNL     1       8.169  -3.691  25.526  0.00  0.00    +0.084 A 
ATOM      3  C   UNL     1       8.798  -4.296  26.589  0.00  0.00    +0.129 A 
ATOM      4  N   UNL     1       8.151  -5.469  26.820  0.00  0.00    -0.282 N 
ATOM      5  H   UNL     1       8.355  -6.157  27.534  0.00  0.00    +0.188 HD
ATOM      6  N   UNL     1       7.127  -5.689  25.983  0.00  0.00    -0.167 NA
ENDROOT
BRANCH   1   9
ATOM      7  N   UNL     1       4.834  -4.808  24.608  0.00  0.00    -0.306 N 
ATOM      8  H   UNL     1       4.860  -5.214  25.542  0.00  0.00    +0.149 HD
ATOM      9  C   UNL     1       6.082  -4.461  24.138  0.00  0.00    +0.266 C 
ATOM     10  O   UNL     1       6.321  -4.075  23.000  0.00  0.00    -0.268 OA
BRANCH   7  11
ATOM     11  C   UNL     1       3.587  -4.821  23.850  0.00  0.00    +0.087 C 
ATOM     12  C   UNL     1       2.345  -4.497  24.713  0.00  0.00    +0.103 C 
ATOM     13  N   UNL     1       2.091  -5.498  25.763  0.00  0.00    -0.314 NA
ATOM     14  H   UNL     1       2.887  -5.486  26.401  0.00  0.00    +0.122 HD
ATOM     15  C   UNL     1       1.946  -6.845  25.205  0.00  0.00    +0.081 C 
ATOM     16  C   UNL     1       3.122  -7.255  24.319  0.00  0.00    +0.017 C 
ATOM     17  C   UNL     1       3.389  -6.213  23.228  0.00  0.00    +0.025 C 
ENDBRANCH   7  11
ENDBRANCH   1   9
BRANCH   2  18
ATOM     18  N   UNL     1       8.491  -2.467  24.948  0.00  0.00    -0.278 N 
ATOM     19  H   UNL     1       7.893  -1.682  25.202  0.00  0.00    +0.155 HD
ATOM     20  C   UNL     1       9.572  -2.276  24.096  0.00  0.00    +0.254 C 
ATOM     21  O   UNL     1      10.380  -3.142  23.771  0.00  0.00    -0.270 OA
BRANCH  20  22
ATOM     22  C   UNL     1       9.777  -0.919  23.547  0.00  0.00    +0.107 A 
ATOM     23  C   UNL     1      10.121   0.125  24.411  0.00  0.00    +0.138 A 
ATOM     24  F   UNL     1      10.372  -0.097  25.709  0.00  0.00    -0.205 F 
ATOM     25  C   UNL     1      10.243   1.436  23.946  0.00  0.00    +0.039 A 
ATOM     26  C   UNL     1      10.016   1.721  22.602  0.00  0.00    +0.006 A 
ATOM     27  C   UNL     1       9.678   0.687  21.730  0.00  0.00    +0.039 A 
ATOM     28  C   UNL     1       9.562  -0.622  22.204  0.00  0.00    +0.138 A 
ATOM     29  F   UNL     1       9.220  -1.583  21.335  0.00  0.00    -0.205 F 
ENDBRANCH  20  22
ENDBRANCH   2  18
TORSDOF 4
ENDMDL
MODEL 4
REMARK VINA RESULT:      -7.3      3.223      5.650
REMARK  Name = 
REMARK  4 active torsions:
REMARK  status: ('A' for Active; 'I' for Inactive)
REMARK    1  A    between atoms: C_2  and  N_8
REMARK    2  A    between atoms: C_9  and  C_11
REMARK    3  A    between atoms: C_15  and  N_16
REMARK    4  A    between atoms: C_17  and  C_19
REMARK                            x       y       z     vdW  Elec       q    Type
REMARK                         _______ _______ _______ _____ _____    ______ ____
ROOT
ATOM      1  C   UNL     1       9.578   0.715  23.251  0.00  0.00    +0.168 A 
ATOM      2  C   UNL     1       9.028  -0.032  22.161  0.00  0.00    +0.084 A 
ATOM      3  C   UNL     1       8.939   0.881  21.137  0.00  0.00    +0.129 A 
ATOM      4  N   UNL     1       9.418   2.061  21.613  0.00  0.00    -0.282 N 
ATOM      5  H   UNL     1       9.491   2.943  21.120  0.00  0.00    +0.188 HD
ATOM      6  N   UNL     1       9.820   1.999  22.891  0.00  0.00    -0.167 NA
ENDROOT
BRANCH   1   9
ATOM      7  N   UNL     1       8.735  -0.210  25.254  0.00  0.00    -0.306 N 
ATOM      8  H   UNL     1       7.886  -0.060  24.712  0.00  0.00    +0.149 HD
ATOM      9  C   UNL     1       9.864   0.271  24.628  0.00  0.00    +0.266 C 
ATOM     10  O   UNL     1      10.979   0.322  25.133  0.00  0.00    -0.268 OA
BRANCH   7  11
ATOM     11  C   UNL     1       8.639  -0.706  26.623  0.00  0.00    +0.087 C 
ATOM     12  C   UNL     1       8.198  -2.186  26.706  0.00  0.00    +0.103 C 
ATOM     13  N   UNL     1       6.838  -2.416  26.186  0.00  0.00    -0.314 NA
ATOM     14  H   UNL     1       6.843  -2.180  25.194  0.00  0.00    +0.122 HD
ATOM     15  C   UNL     1       5.847  -1.584  26.872  0.00  0.00    +0.081 C 
ATOM     16  C   UNL     1       6.202  -0.097  26.859  0.00  0.00    +0.017 C 
ATOM     17  C   UNL     1       7.617   0.144  27.396  0.00  0.00    +0.025 C 
ENDBRANCH   7  11
ENDBRANCH   1   9
BRANCH   2  18
ATOM     18  N   UNL     1       8.645  -1.370  22.126  0.00  0.00    -0.278 N 
ATOM     19  H   UNL     1       9.293  -2.008  21.666  0.00  0.00    +0.155 HD
ATOM     20  C   UNL     1       7.474  -1.853  22.698  0.00  0.00    +0.254 C 
ATOM     21  O   UNL     1       6.657  -1.177  23.317  0.00  0.00    -0.270 OA
BRANCH  20  22
ATOM     22  C   UNL     1       7.196  -3.298  22.565  0.00  0.00    +0.107 A 
ATOM     23  C   UNL     1       8.003  -4.218  23.244  0.00  0.00    +0.138 A 
ATOM     24  F   UNL     1       8.957  -3.813  24.094  0.00  0.00    -0.205 F 
ATOM     25  C   UNL     1       7.826  -5.592  23.080  0.00  0.00    +0.039 A 
ATOM     26  C   UNL     1       6.834  -6.068  22.226  0.00  0.00    +0.006 A 
ATOM     27  C   UNL     1       6.019  -5.162  21.548  0.00  0.00    +0.039 A 
ATOM     28  C   UNL     1       6.202  -3.788  21.721  0.00  0.00    +0.138 A 
ATOM     29  F   UNL     1       5.408  -2.952  21.039  0.00  0.00    -0.205 F 
ENDBRANCH  20  22
ENDBRANCH   2  18
TORSDOF 4
ENDMDL
MODEL 5
REMARK VINA RESULT:      -7.0      2.162      3.319
REMARK  Name = 
REMARK  4 active torsions:
REMARK  status: ('A' for Active; 'I' for Inactive)
REMARK    1  A    between atoms: C_2  and  N_8
REMARK    2  A    between atoms: C_9  and  C_11
REMARK    3  A    between atoms: C_15  and  N_16
REMARK    4  A    between atoms: C_17  and  C_19
REMARK                            x       y       z     vdW  Elec       q    Type
REMARK                         _______ _______ _______ _____ _____    ______ ____
ROOT
ATOM      1  C   UNL     1       6.902  -4.010  24.670  0.00  0.00    +0.168 A 
ATOM      2  C   UNL     1       7.464  -3.408  23.499  0.00  0.00    +0.084 A 
ATOM      3  C   UNL     1       7.394  -4.397  22.546  0.00  0.00    +0.129 A 
ATOM      4  N   UNL     1       6.821  -5.479  23.136  0.00  0.00    -0.282 N 
ATOM      5  H   UNL     1       6.626  -6.381  22.717  0.00  0.00    +0.188 HD
ATOM      6  N   UNL     1       6.503  -5.282  24.423  0.00  0.00    -0.167 NA
ENDROOT
BRANCH   1   9
ATOM      7  N   UNL     1       6.131  -2.208  25.987  0.00  0.00    -0.306 N 
ATOM      8  H   UNL     1       6.008  -1.851  25.041  0.00  0.00    +0.149 HD
ATOM      9  C   UNL     1       6.746  -3.440  26.021  0.00  0.00    +0.266 C 
ATOM     10  O   UNL     1       7.115  -4.013  27.039  0.00  0.00    -0.268 OA
BRANCH   7  11
ATOM     11  C   UNL     1       5.840  -1.345  27.127  0.00  0.00    +0.087 C 
ATOM     12  C   UNL     1       4.482  -0.613  27.008  0.00  0.00    +0.103 C 
ATOM     13  N   UNL     1       4.426   0.325  25.874  0.00  0.00    -0.314 NA
ATOM     14  H   UNL     1       4.528  -0.219  25.017  0.00  0.00    +0.122 HD
ATOM     15  C   UNL     1       5.499   1.320  25.939  0.00  0.00    +0.081 C 
ATOM     16  C   UNL     1       6.888   0.695  26.075  0.00  0.00    +0.017 C 
ATOM     17  C   UNL     1       6.947  -0.284  27.252  0.00  0.00    +0.025 C 
ENDBRANCH   7  11
ENDBRANCH   1   9
BRANCH   2  18
ATOM     18  N   UNL     1       7.984  -2.127  23.341  0.00  0.00    -0.278 N 
ATOM     19  H   UNL     1       7.303  -1.382  23.205  0.00  0.00    +0.155 HD
ATOM     20  C   UNL     1       9.342  -1.835  23.391  0.00  0.00    +0.254 C 
ATOM     21  O   UNL     1      10.236  -2.650  23.601  0.00  0.00    -0.270 OA
BRANCH  20  22
ATOM     22  C   UNL     1       9.743  -0.426  23.189  0.00  0.00    +0.107 A 
ATOM     23  C   UNL     1      10.123   0.344  24.293  0.00  0.00    +0.138 A 
ATOM     24  F   UNL     1      10.232  -0.196  25.516  0.00  0.00    -0.205 F 
ATOM     25  C   UNL     1      10.430   1.699  24.157  0.00  0.00    +0.039 A 
ATOM     26  C   UNL     1      10.356   2.306  22.906  0.00  0.00    +0.006 A 
ATOM     27  C   UNL     1       9.983   1.547  21.796  0.00  0.00    +0.039 A 
ATOM     28  C   UNL     1       9.682   0.191  21.942  0.00  0.00    +0.138 A 
ATOM     29  F   UNL     1       9.313  -0.497  20.853  0.00  0.00    -0.205 F 
ENDBRANCH  20  22
ENDBRANCH   2  18
TORSDOF 4
ENDMDL
MODEL 6
REMARK VINA RESULT:      -6.9      2.427      3.047
REMARK  Name = 
REMARK  4 active torsions:
REMARK  status: ('A' for Active; 'I' for Inactive)
REMARK    1  A    between atoms: C_2  and  N_8
REMARK    2  A    between atoms: C_9  and  C_11
REMARK    3  A    between atoms: C_15  and  N_16
REMARK    4  A    between atoms: C_17  and  C_19
REMARK                            x       y       z     vdW  Elec       q    Type
REMARK                         _______ _______ _______ _____ _____    ______ ____
ROOT
ATOM      1  C   UNL     1       7.279  -4.719  25.610  0.00  0.00    +0.168 A 
ATOM      2  C   UNL     1       8.341  -4.111  24.868  0.00  0.00    +0.084 A 
ATOM      3  C   UNL     1       9.451  -4.850  25.203  0.00  0.00    +0.129 A 
ATOM      4  N   UNL     1       9.041  -5.817  26.065  0.00  0.00    -0.282 N 
ATOM      5  H   UNL     1       9.606  -6.531  26.510  0.00  0.00    +0.188 HD
ATOM      6  N   UNL     1       7.728  -5.774  26.333  0.00  0.00    -0.167 NA
ENDROOT
BRANCH   1   9
ATOM      7  N   UNL     1       5.033  -5.428  25.792  0.00  0.00    -0.306 N 
ATOM      8  H   UNL     1       5.529  -6.311  25.679  0.00  0.00    +0.149 HD
ATOM      9  C   UNL     1       5.858  -4.331  25.681  0.00  0.00    +0.266 C 
ATOM     10  O   UNL     1       5.477  -3.166  25.655  0.00  0.00    -0.268 OA
BRANCH   7  11
ATOM     11  C   UNL     1       3.576  -5.424  25.859  0.00  0.00    +0.087 C 
ATOM     12  C   UNL     1       2.983  -6.761  26.364  0.00  0.00    +0.103 C 
ATOM     13  N   UNL     1       3.258  -7.894  25.463  0.00  0.00    -0.314 NA
ATOM     14  H   UNL     1       4.269  -8.028  25.434  0.00  0.00    +0.122 HD
ATOM     15  C   UNL     1       2.770  -7.638  24.105  0.00  0.00    +0.081 C 
ATOM     16  C   UNL     1       3.289  -6.325  23.520  0.00  0.00    +0.017 C 
ATOM     17  C   UNL     1       3.008  -5.146  24.457  0.00  0.00    +0.025 C 
ENDBRANCH   7  11
ENDBRANCH   1   9
BRANCH   2  18
ATOM     18  N   UNL     1       8.292  -3.013  24.014  0.00  0.00    -0.278 N 
ATOM     19  H   UNL     1       8.051  -3.213  23.044  0.00  0.00    +0.155 HD
ATOM     20  C   UNL     1       8.519  -1.705  24.424  0.00  0.00    +0.254 C 
ATOM     21  O   UNL     1       8.764  -1.356  25.576  0.00  0.00    -0.270 OA
BRANCH  20  22
ATOM     22  C   UNL     1       8.447  -0.646  23.396  0.00  0.00    +0.107 A 
ATOM     23  C   UNL     1       9.553  -0.412  22.572  0.00  0.00    +0.138 A 
ATOM     24  F   UNL     1      10.639  -1.197  22.624  0.00  0.00    -0.205 F 
ATOM     25  C   UNL     1       9.554   0.631  21.646  0.00  0.00    +0.039 A 
ATOM     26  C   UNL     1       8.443   1.463  21.533  0.00  0.00    +0.006 A 
ATOM     27  C   UNL     1       7.332   1.237  22.345  0.00  0.00    +0.039 A 
ATOM     28  C   UNL     1       7.339   0.188  23.267  0.00  0.00    +0.138 A 
ATOM     29  F   UNL     1       6.257   0.016  24.039  0.00  0.00    -0.205 F 
ENDBRANCH  20  22
ENDBRANCH   2  18
TORSDOF 4
ENDMDL
MODEL 7
REMARK VINA RESULT:      -6.8      1.997      2.689
REMARK  Name = 
REMARK  4 active torsions:
REMARK  status: ('A' for Active; 'I' for Inactive)
REMARK    1  A    between atoms: C_2  and  N_8
REMARK    2  A    between atoms: C_9  and  C_11
REMARK    3  A    between atoms: C_15  and  N_16
REMARK    4  A    between atoms: C_17  and  C_19
REMARK                            x       y       z     vdW  Elec       q    Type
REMARK                         _______ _______ _______ _____ _____    ______ ____
ROOT
ATOM      1  C   UNL     1       6.109  -5.441  23.777  0.00  0.00    +0.168 A 
ATOM      2  C   UNL     1       6.836  -4.556  22.919  0.00  0.00    +0.084 A 
ATOM      3  C   UNL     1       6.750  -5.143  21.678  0.00  0.00    +0.129 A 
ATOM      4  N   UNL     1       6.014  -6.276  21.825  0.00  0.00    -0.282 N 
ATOM      5  H   UNL     1       5.764  -6.948  21.109  0.00  0.00    +0.188 HD
ATOM      6  N   UNL     1       5.603  -6.490  23.083  0.00  0.00    -0.167 NA
ENDROOT
BRANCH   1   9
ATOM      7  N   UNL     1       4.871  -4.478  25.543  0.00  0.00    -0.306 N 
ATOM      8  H   UNL     1       4.534  -3.958  24.734  0.00  0.00    +0.149 HD
ATOM      9  C   UNL     1       5.892  -5.350  25.233  0.00  0.00    +0.266 C 
ATOM     10  O   UNL     1       6.542  -5.988  26.051  0.00  0.00    -0.268 OA
BRANCH   7  11
ATOM     11  C   UNL     1       4.401  -4.121  26.877  0.00  0.00    +0.087 C 
ATOM     12  C   UNL     1       2.981  -3.508  26.881  0.00  0.00    +0.103 C 
ATOM     13  N   UNL     1       2.900  -2.226  26.160  0.00  0.00    -0.314 NA
ATOM     14  H   UNL     1       3.126  -2.406  25.182  0.00  0.00    +0.122 HD
ATOM     15  C   UNL     1       3.845  -1.243  26.695  0.00  0.00    +0.081 C 
ATOM     16  C   UNL     1       5.282  -1.761  26.748  0.00  0.00    +0.017 C 
ATOM     17  C   UNL     1       5.367  -3.096  27.494  0.00  0.00    +0.025 C 
ENDBRANCH   7  11
ENDBRANCH   1   9
BRANCH   2  18
ATOM     18  N   UNL     1       7.501  -3.377  23.243  0.00  0.00    -0.278 N 
ATOM     19  H   UNL     1       7.020  -2.512  23.002  0.00  0.00    +0.155 HD
ATOM     20  C   UNL     1       8.732  -3.338  23.887  0.00  0.00    +0.254 C 
ATOM     21  O   UNL     1       9.366  -4.319  24.265  0.00  0.00    -0.270 OA
BRANCH  20  22
ATOM     22  C   UNL     1       9.321  -2.008  24.151  0.00  0.00    +0.107 A 
ATOM     23  C   UNL     1       9.125  -1.406  25.398  0.00  0.00    +0.138 A 
ATOM     24  F   UNL     1       8.504  -2.053  26.395  0.00  0.00    -0.205 F 
ATOM     25  C   UNL     1       9.594  -0.117  25.659  0.00  0.00    +0.039 A 
ATOM     26  C   UNL     1      10.267   0.592  24.668  0.00  0.00    +0.006 A 
ATOM     27  C   UNL     1      10.473   0.001  23.422  0.00  0.00    +0.039 A 
ATOM     28  C   UNL     1      10.003  -1.291  23.171  0.00  0.00    +0.138 A 
ATOM     29  F   UNL     1      10.209  -1.815  21.955  0.00  0.00    -0.205 F 
ENDBRANCH  20  22
ENDBRANCH   2  18
TORSDOF 4
ENDMDL
MODEL 8
REMARK VINA RESULT:      -6.8      2.908      4.450
REMARK  Name = 
REMARK  4 active torsions:
REMARK  status: ('A' for Active; 'I' for Inactive)
REMARK    1  A    between atoms: C_2  and  N_8
REMARK    2  A    between atoms: C_9  and  C_11
REMARK    3  A    between atoms: C_15  and  N_16
REMARK    4  A    between atoms: C_17  and  C_19
REMARK                            x       y       z     vdW  Elec       q    Type
REMARK                         _______ _______ _______ _____ _____    ______ ____
ROOT
ATOM      1  C   UNL     1       9.001  -0.876  23.346  0.00  0.00    +0.168 A 
ATOM      2  C   UNL     1       9.131   0.348  22.615  0.00  0.00    +0.084 A 
ATOM      3  C   UNL     1       9.464  -0.054  21.343  0.00  0.00    +0.129 A 
ATOM      4  N   UNL     1       9.506  -1.412  21.353  0.00  0.00    -0.282 N 
ATOM      5  H   UNL     1       9.726  -2.030  20.580  0.00  0.00    +0.188 HD
ATOM      6  N   UNL     1       9.227  -1.949  22.550  0.00  0.00    -0.167 NA
ENDROOT
BRANCH   1   9
ATOM      7  N   UNL     1       8.583  -2.409  25.094  0.00  0.00    -0.306 N 
ATOM      8  H   UNL     1       8.605  -3.016  24.276  0.00  0.00    +0.149 HD
ATOM      9  C   UNL     1       8.694  -1.074  24.776  0.00  0.00    +0.266 C 
ATOM     10  O   UNL     1       8.567  -0.150  25.570  0.00  0.00    -0.268 OA
BRANCH   7  11
ATOM     11  C   UNL     1       8.263  -2.973  26.401  0.00  0.00    +0.087 C 
ATOM     12  C   UNL     1       8.787  -4.416  26.589  0.00  0.00    +0.103 C 
ATOM     13  N   UNL     1       8.170  -5.383  25.664  0.00  0.00    -0.314 NA
ATOM     14  H   UNL     1       8.430  -5.111  24.715  0.00  0.00    +0.122 HD
ATOM     15  C   UNL     1       6.710  -5.388  25.779  0.00  0.00    +0.081 C 
ATOM     16  C   UNL     1       6.093  -3.998  25.622  0.00  0.00    +0.017 C 
ATOM     17  C   UNL     1       6.735  -2.991  26.581  0.00  0.00    +0.025 C 
ENDBRANCH   7  11
ENDBRANCH   1   9
BRANCH   2  18
ATOM     18  N   UNL     1       8.979   1.655  23.069  0.00  0.00    -0.278 N 
ATOM     19  H   UNL     1       8.083   2.096  22.868  0.00  0.00    +0.155 HD
ATOM     20  C   UNL     1       9.954   2.342  23.783  0.00  0.00    +0.254 C 
ATOM     21  O   UNL     1      11.041   1.883  24.120  0.00  0.00    -0.270 OA
BRANCH  20  22
ATOM     22  C   UNL     1       9.652   3.732  24.184  0.00  0.00    +0.107 A 
ATOM     23  C   UNL     1      10.501   4.765  23.773  0.00  0.00    +0.138 A 
ATOM     24  F   UNL     1      11.524   4.535  22.937  0.00  0.00    -0.205 F 
ATOM     25  C   UNL     1      10.298   6.079  24.197  0.00  0.00    +0.039 A 
ATOM     26  C   UNL     1       9.236   6.378  25.047  0.00  0.00    +0.006 A 
ATOM     27  C   UNL     1       8.379   5.358  25.460  0.00  0.00    +0.039 A 
ATOM     28  C   UNL     1       8.589   4.047  25.027  0.00  0.00    +0.138 A 
ATOM     29  F   UNL     1       7.751   3.095  25.460  0.00  0.00    -0.205 F 
ENDBRANCH  20  22
ENDBRANCH   2  18
TORSDOF 4
ENDMDL
MODEL 9
REMARK VINA RESULT:      -6.7      1.759      2.238
REMARK  Name = 
REMARK  4 active torsions:
REMARK  status: ('A' for Active; 'I' for Inactive)
REMARK    1  A    between atoms: C_2  and  N_8
REMARK    2  A    between atoms: C_9  and  C_11
REMARK    3  A    between atoms: C_15  and  N_16
REMARK    4  A    between atoms: C_17  and  C_19
REMARK                            x       y       z     vdW  Elec       q    Type
REMARK                         _______ _______ _______ _____ _____    ______ ____
ROOT
ATOM      1  C   UNL     1       5.616  -5.077  23.119  0.00  0.00    +0.168 A 
ATOM      2  C   UNL     1       6.825  -4.530  22.583  0.00  0.00    +0.084 A 
ATOM      3  C   UNL     1       7.188  -5.417  21.597  0.00  0.00    +0.129 A 
ATOM      4  N   UNL     1       6.242  -6.392  21.570  0.00  0.00    -0.282 N 
ATOM      5  H   UNL     1       6.206  -7.203  20.964  0.00  0.00    +0.188 HD
ATOM      6  N   UNL     1       5.268  -6.219  22.476  0.00  0.00    -0.167 NA
ENDROOT
BRANCH   1   9
ATOM      7  N   UNL     1       5.403  -4.759  25.449  0.00  0.00    -0.306 N 
ATOM      8  H   UNL     1       6.255  -5.313  25.385  0.00  0.00    +0.149 HD
ATOM      9  C   UNL     1       4.786  -4.578  24.231  0.00  0.00    +0.266 C 
ATOM     10  O   UNL     1       3.688  -4.058  24.070  0.00  0.00    -0.268 OA
BRANCH   7  11
ATOM     11  C   UNL     1       4.866  -4.412  26.761  0.00  0.00    +0.087 C 
ATOM     12  C   UNL     1       5.963  -4.105  27.808  0.00  0.00    +0.103 C 
ATOM     13  N   UNL     1       6.818  -5.266  28.110  0.00  0.00    -0.314 NA
ATOM     14  H   UNL     1       7.311  -5.518  27.253  0.00  0.00    +0.122 HD
ATOM     15  C   UNL     1       6.032  -6.414  28.566  0.00  0.00    +0.081 C 
ATOM     16  C   UNL     1       4.906  -6.790  27.603  0.00  0.00    +0.017 C 
ATOM     17  C   UNL     1       4.018  -5.582  27.285  0.00  0.00    +0.025 C 
ENDBRANCH   7  11
ENDBRANCH   1   9
BRANCH   2  18
ATOM     18  N   UNL     1       7.506  -3.378  22.966  0.00  0.00    -0.278 N 
ATOM     19  H   UNL     1       7.372  -2.561  22.372  0.00  0.00    +0.155 HD
ATOM     20  C   UNL     1       8.304  -3.295  24.101  0.00  0.00    +0.254 C 
ATOM     21  O   UNL     1       8.487  -4.203  24.907  0.00  0.00    -0.270 OA
BRANCH  20  22
ATOM     22  C   UNL     1       8.977  -2.006  24.368  0.00  0.00    +0.107 A 
ATOM     23  C   UNL     1       8.511  -1.192  25.405  0.00  0.00    +0.138 A 
ATOM     24  F   UNL     1       7.536  -1.601  26.229  0.00  0.00    -0.205 F 
ATOM     25  C   UNL     1       9.065   0.068  25.638  0.00  0.00    +0.039 A 
ATOM     26  C   UNL     1      10.097   0.534  24.827  0.00  0.00    +0.006 A 
ATOM     27  C   UNL     1      10.574  -0.271  23.793  0.00  0.00    +0.039 A 
ATOM     28  C   UNL     1      10.015  -1.532  23.571  0.00  0.00    +0.138 A 
ATOM     29  F   UNL     1      10.492  -2.266  22.556  0.00  0.00    -0.205 F 
ENDBRANCH  20  22
ENDBRANCH   2  18
TORSDOF 4
ENDMDL
