MODEL 1
REMARK VINA RESULT:      -7.5      0.000      0.000
REMARK  Name = 
REMARK  6 active torsions:
REMARK  status: ('A' for Active; 'I' for Inactive)
REMARK    1  A    between atoms: C_1  and  C_2
REMARK    2  A    between atoms: C_2  and  C_3
REMARK    3  A    between atoms: C_3  and  C_4
REMARK    4  A    between atoms: C_4  and  C_5
REMARK    5  A    between atoms: CA_15  and  C_16
REMARK    6  A    between atoms: C_16  and  O_17
REMARK                            x       y       z     vdW  Elec       q    Type
REMARK                         _______ _______ _______ _____ _____    ______ ____
ROOT
ATOM      1  C   UNL     1       5.901  -2.707  22.228  0.00  0.00    +0.038 C 
ATOM      2  C   UNL     1       6.781  -2.219  23.383  0.00  0.00    +0.071 C 
ATOM      3  CA  UNL     1       8.274  -2.517  23.042  0.00  0.00    +0.068 C 
ATOM      4  N   UNL     1       9.039  -3.354  23.692  0.00  0.00    -0.243 NA
ATOM      5  C   UNL     1       8.474  -4.031  24.765  0.00  0.00    +0.168 A 
ATOM      6  C   UNL     1       9.303  -5.027  25.516  0.00  0.00    +0.280 A 
ATOM      7  N   UNL     1       8.689  -5.646  26.567  0.00  0.00    -0.293 N 
ATOM      8  H   UNL     1       9.231  -6.338  27.053  0.00  0.00    +0.172 HD
ATOM      9  C   UNL     1       7.393  -5.415  26.892  0.00  0.00    +0.195 A 
ATOM     10  N   UNL     1       6.657  -4.563  26.262  0.00  0.00    -0.199 NA
ATOM     11  N   UNL     1       6.886  -6.115  27.937  0.00  0.00    -0.329 N 
ATOM     12  H   UNL     1       6.006  -5.726  28.267  0.00  0.00    +0.145 HD
ATOM     13  H   UNL     1       7.518  -6.363  28.684  0.00  0.00    +0.145 HD
ATOM     14  O   UNL     1      10.469  -5.289  25.232  0.00  0.00    -0.265 OA
ATOM     15  C   UNL     1       7.205  -3.871  25.211  0.00  0.00    +0.154 A 
ATOM     16  N   UNL     1       6.400  -2.951  24.583  0.00  0.00    -0.317 N 
ATOM     17  H   UNL     1       5.425  -3.032  24.847  0.00  0.00    +0.148 HD
ENDROOT
BRANCH   2  18
ATOM     18  C   UNL     1       6.620  -0.714  23.694  0.00  0.00    +0.036 C 
BRANCH  18  19
ATOM     19  C   UNL     1       7.390  -0.234  24.932  0.00  0.00    +0.037 C 
BRANCH  19  20
ATOM     20  C   UNL     1       8.553   0.641  24.540  0.00  0.00    -0.047 A 
ATOM     21  C   UNL     1       9.863   0.259  24.851  0.00  0.00    +0.003 A 
ATOM     22  C   UNL     1      10.942   1.051  24.457  0.00  0.00    +0.000 A 
ATOM     23  C   UNL     1      10.717   2.226  23.743  0.00  0.00    +0.000 A 
ATOM     24  C   UNL     1       9.416   2.613  23.427  0.00  0.00    +0.000 A 
ATOM     25  C   UNL     1       8.336   1.825  23.823  0.00  0.00    +0.003 A 
ENDBRANCH  19  20
ENDBRANCH  18  19
ENDBRANCH   2  18
BRANCH   3  26
ATOM     26  C   UNL     1       8.903  -1.766  21.860  0.00  0.00    +0.208 C 
BRANCH  26  27
ATOM     27  O   UNL     1      10.317  -1.758  21.904  0.00  0.00    -0.389 OA
ATOM     28  H   UNL     1      10.577  -2.549  22.414  0.00  0.00    +0.210 HD
ENDBRANCH  26  27
ENDBRANCH   3  26
TORSDOF 5
ENDMDL
MODEL 2
REMARK VINA RESULT:      -7.1      2.511      3.591
REMARK  Name = 
REMARK  6 active torsions:
REMARK  status: ('A' for Active; 'I' for Inactive)
REMARK    1  A    between atoms: C_1  and  C_2
REMARK    2  A    between atoms: C_2  and  C_3
REMARK    3  A    between atoms: C_3  and  C_4
REMARK    4  A    between atoms: C_4  and  C_5
REMARK    5  A    between atoms: CA_15  and  C_16
REMARK    6  A    between atoms: C_16  and  O_17
REMARK                            x       y       z     vdW  Elec       q    Type
REMARK                         _______ _______ _______ _____ _____    ______ ____
ROOT
ATOM      1  C   UNL     1       6.935  -2.095  25.260  0.00  0.00    +0.038 C 
ATOM      2  C   UNL     1       7.237  -3.551  24.891  0.00  0.00    +0.071 C 
ATOM      3  CA  UNL     1       5.987  -4.165  24.189  0.00  0.00    +0.068 C 
ATOM      4  N   UNL     1       5.257  -5.135  24.672  0.00  0.00    -0.243 NA
ATOM      5  C   UNL     1       5.624  -5.654  25.907  0.00  0.00    +0.168 A 
ATOM      6  C   UNL     1       4.794  -6.744  26.515  0.00  0.00    +0.280 A 
ATOM      7  N   UNL     1       5.220  -7.215  27.724  0.00  0.00    -0.293 N 
ATOM      8  H   UNL     1       4.648  -7.923  28.150  0.00  0.00    +0.172 HD
ATOM      9  C   UNL     1       6.299  -6.706  28.366  0.00  0.00    +0.195 A 
ATOM     10  N   UNL     1       7.030  -5.768  27.865  0.00  0.00    -0.199 NA
ATOM     11  N   UNL     1       6.604  -7.236  29.576  0.00  0.00    -0.329 N 
ATOM     12  H   UNL     1       7.539  -6.980  29.883  0.00  0.00    +0.145 HD
ATOM     13  H   UNL     1       6.387  -8.210  29.726  0.00  0.00    +0.145 HD
ATOM     14  O   UNL     1       3.791  -7.209  25.982  0.00  0.00    -0.265 OA
ATOM     15  C   UNL     1       6.694  -5.258  26.636  0.00  0.00    +0.154 A 
ATOM     16  N   UNL     1       7.512  -4.280  26.121  0.00  0.00    -0.317 N 
ATOM     17  H   UNL     1       8.165  -3.910  26.803  0.00  0.00    +0.148 HD
ENDROOT
BRANCH   2  18
ATOM     18  C   UNL     1       8.469  -3.717  23.975  0.00  0.00    +0.036 C 
BRANCH  18  19
ATOM     19  C   UNL     1       9.678  -2.858  24.372  0.00  0.00    +0.037 C 
BRANCH  19  20
ATOM     20  C   UNL     1       9.762  -1.617  23.520  0.00  0.00    -0.047 A 
ATOM     21  C   UNL     1       9.343  -1.646  22.184  0.00  0.00    +0.003 A 
ATOM     22  C   UNL     1       9.388  -0.489  21.406  0.00  0.00    +0.000 A 
ATOM     23  C   UNL     1       9.845   0.705  21.960  0.00  0.00    +0.000 A 
ATOM     24  C   UNL     1      10.264   0.742  23.289  0.00  0.00    +0.000 A 
ATOM     25  C   UNL     1      10.223  -0.413  24.067  0.00  0.00    +0.003 A 
ENDBRANCH  19  20
ENDBRANCH  18  19
ENDBRANCH   2  18
BRANCH   3  26
ATOM     26  C   UNL     1       5.582  -3.598  22.821  0.00  0.00    +0.208 C 
BRANCH  26  27
ATOM     27  O   UNL     1       4.782  -4.490  22.071  0.00  0.00    -0.389 OA
ATOM     28  H   UNL     1       4.612  -4.050  21.217  0.00  0.00    +0.210 HD
ENDBRANCH  26  27
ENDBRANCH   3  26
TORSDOF 5
ENDMDL
MODEL 3
REMARK VINA RESULT:      -7.1      2.260      3.477
REMARK  Name = 
REMARK  6 active torsions:
REMARK  status: ('A' for Active; 'I' for Inactive)
REMARK    1  A    between atoms: C_1  and  C_2
REMARK    2  A    between atoms: C_2  and  C_3
REMARK    3  A    between atoms: C_3  and  C_4
REMARK    4  A    between atoms: C_4  and  C_5
REMARK    5  A    between atoms: CA_15  and  C_16
REMARK    6  A    between atoms: C_16  and  O_17
REMARK                            x       y       z     vdW  Elec       q    Type
REMARK                         _______ _______ _______ _____ _____    ______ ____
ROOT
ATOM      1  C   UNL     1       9.444  -0.033  21.371  0.00  0.00    +0.038 C 
ATOM      2  C   UNL     1       8.679  -0.403  22.645  0.00  0.00    +0.071 C 
ATOM      3  CA  UNL     1       9.699  -0.847  23.738  0.00  0.00    +0.068 C 
ATOM      4  N   UNL     1       9.787  -2.051  24.237  0.00  0.00    -0.243 NA
ATOM      5  C   UNL     1       8.904  -3.008  23.752  0.00  0.00    +0.168 A 
ATOM      6  C   UNL     1       8.992  -4.411  24.269  0.00  0.00    +0.280 A 
ATOM      7  N   UNL     1       8.086  -5.295  23.758  0.00  0.00    -0.293 N 
ATOM      8  H   UNL     1       8.164  -6.245  24.079  0.00  0.00    +0.172 HD
ATOM      9  C   UNL     1       7.186  -4.948  22.805  0.00  0.00    +0.195 A 
ATOM     10  N   UNL     1       7.089  -3.747  22.343  0.00  0.00    -0.199 NA
ATOM     11  N   UNL     1       6.360  -5.923  22.354  0.00  0.00    -0.329 N 
ATOM     12  H   UNL     1       5.573  -5.546  21.830  0.00  0.00    +0.145 HD
ATOM     13  H   UNL     1       6.096  -6.649  23.003  0.00  0.00    +0.145 HD
ATOM     14  O   UNL     1       9.815  -4.773  25.106  0.00  0.00    -0.265 OA
ATOM     15  C   UNL     1       7.941  -2.785  22.826  0.00  0.00    +0.154 A 
ATOM     16  N   UNL     1       7.788  -1.512  22.331  0.00  0.00    -0.317 N 
ATOM     17  H   UNL     1       7.187  -1.473  21.515  0.00  0.00    +0.148 HD
ENDROOT
BRANCH   2  18
ATOM     18  C   UNL     1       7.805   0.743  23.200  0.00  0.00    +0.036 C 
BRANCH  18  19
ATOM     19  C   UNL     1       7.411   1.803  22.161  0.00  0.00    +0.037 C 
BRANCH  19  20
ATOM     20  C   UNL     1       7.871   3.174  22.587  0.00  0.00    -0.047 A 
ATOM     21  C   UNL     1       7.172   4.315  22.175  0.00  0.00    +0.003 A 
ATOM     22  C   UNL     1       7.578   5.581  22.598  0.00  0.00    +0.000 A 
ATOM     23  C   UNL     1       8.680   5.713  23.440  0.00  0.00    +0.000 A 
ATOM     24  C   UNL     1       9.380   4.582  23.856  0.00  0.00    +0.000 A 
ATOM     25  C   UNL     1       8.979   3.316  23.432  0.00  0.00    +0.003 A 
ENDBRANCH  19  20
ENDBRANCH  18  19
ENDBRANCH   2  18
BRANCH   3  26
ATOM     26  C   UNL     1      10.672   0.209  24.281  0.00  0.00    +0.208 C 
BRANCH  26  27
ATOM     27  O   UNL     1      10.392   0.578  25.617  0.00  0.00    -0.389 OA
ATOM     28  H   UNL     1       9.531   1.038  25.597  0.00  0.00    +0.210 HD
ENDBRANCH  26  27
ENDBRANCH   3  26
TORSDOF 5
ENDMDL
MODEL 4
REMARK VINA RESULT:      -7.1      2.271      3.357
REMARK  Name = 
REMARK  6 active torsions:
REMARK  status: ('A' for Active; 'I' for Inactive)
REMARK    1  A    between atoms: C_1  and  C_2
REMARK    2  A    between atoms: C_2  and  C_3
REMARK    3  A    between atoms: C_3  and  C_4
REMARK    4  A    between atoms: C_4  and  C_5
REMARK    5  A    between atoms: CA_15  and  C_16
REMARK    6  A    between atoms: C_16  and  O_17
REMARK                            x       y       z     vdW  Elec       q    Type
REMARK                         _______ _______ _______ _____ _____    ______ ____
ROOT
ATOM      1  C   UNL     1       9.430   0.007  21.360  0.00  0.00    +0.038 C 
ATOM      2  C   UNL     1       8.665  -0.363  22.634  0.00  0.00    +0.071 C 
ATOM      3  CA  UNL     1       9.685  -0.813  23.725  0.00  0.00    +0.068 C 
ATOM      4  N   UNL     1       9.769  -2.019  24.221  0.00  0.00    -0.243 NA
ATOM      5  C   UNL     1       8.882  -2.971  23.735  0.00  0.00    +0.168 A 
ATOM      6  C   UNL     1       8.967  -4.376  24.250  0.00  0.00    +0.280 A 
ATOM      7  N   UNL     1       8.056  -5.255  23.738  0.00  0.00    -0.293 N 
ATOM      8  H   UNL     1       8.131  -6.206  24.056  0.00  0.00    +0.172 HD
ATOM      9  C   UNL     1       7.157  -4.903  22.787  0.00  0.00    +0.195 A 
ATOM     10  N   UNL     1       7.063  -3.701  22.327  0.00  0.00    -0.199 NA
ATOM     11  N   UNL     1       6.326  -5.874  22.335  0.00  0.00    -0.329 N 
ATOM     12  H   UNL     1       5.540  -5.493  21.813  0.00  0.00    +0.145 HD
ATOM     13  H   UNL     1       6.061  -6.601  22.983  0.00  0.00    +0.145 HD
ATOM     14  O   UNL     1       9.789  -4.743  25.084  0.00  0.00    -0.265 OA
ATOM     15  C   UNL     1       7.919  -2.743  22.812  0.00  0.00    +0.154 A 
ATOM     16  N   UNL     1       7.770  -1.468  22.319  0.00  0.00    -0.317 N 
ATOM     17  H   UNL     1       7.169  -1.425  21.504  0.00  0.00    +0.148 HD
ENDROOT
BRANCH   2  18
ATOM     18  C   UNL     1       7.796   0.785  23.193  0.00  0.00    +0.036 C 
BRANCH  18  19
ATOM     19  C   UNL     1       7.423   1.860  22.162  0.00  0.00    +0.037 C 
BRANCH  19  20
ATOM     20  C   UNL     1       7.861   3.227  22.624  0.00  0.00    -0.047 A 
ATOM     21  C   UNL     1       8.984   3.369  23.449  0.00  0.00    +0.003 A 
ATOM     22  C   UNL     1       9.410   4.636  23.848  0.00  0.00    +0.000 A 
ATOM     23  C   UNL     1       8.721   5.768  23.419  0.00  0.00    +0.000 A 
ATOM     24  C   UNL     1       7.604   5.636  22.596  0.00  0.00    +0.000 A 
ATOM     25  C   UNL     1       7.174   4.370  22.199  0.00  0.00    +0.003 A 
ENDBRANCH  19  20
ENDBRANCH  18  19
ENDBRANCH   2  18
BRANCH   3  26
ATOM     26  C   UNL     1      10.663   0.238  24.269  0.00  0.00    +0.208 C 
BRANCH  26  27
ATOM     27  O   UNL     1      10.415   0.572  25.621  0.00  0.00    -0.389 OA
ATOM     28  H   UNL     1       9.451   0.708  25.694  0.00  0.00    +0.210 HD
ENDBRANCH  26  27
ENDBRANCH   3  26
TORSDOF 5
ENDMDL
MODEL 5
REMARK VINA RESULT:      -7.0      2.657      3.889
REMARK  Name = 
REMARK  6 active torsions:
REMARK  status: ('A' for Active; 'I' for Inactive)
REMARK    1  A    between atoms: C_1  and  C_2
REMARK    2  A    between atoms: C_2  and  C_3
REMARK    3  A    between atoms: C_3  and  C_4
REMARK    4  A    between atoms: C_4  and  C_5
REMARK    5  A    between atoms: CA_15  and  C_16
REMARK    6  A    between atoms: C_16  and  O_17
REMARK                            x       y       z     vdW  Elec       q    Type
REMARK                         _______ _______ _______ _____ _____    ______ ____
ROOT
ATOM      1  C   UNL     1       7.517  -5.492  22.938  0.00  0.00    +0.038 C 
ATOM      2  C   UNL     1       6.980  -4.713  24.142  0.00  0.00    +0.071 C 
ATOM      3  CA  UNL     1       7.720  -5.195  25.429  0.00  0.00    +0.068 C 
ATOM      4  N   UNL     1       7.157  -5.823  26.426  0.00  0.00    -0.243 NA
ATOM      5  C   UNL     1       5.796  -6.083  26.329  0.00  0.00    +0.168 A 
ATOM      6  C   UNL     1       5.116  -6.833  27.434  0.00  0.00    +0.280 A 
ATOM      7  N   UNL     1       3.776  -7.041  27.278  0.00  0.00    -0.293 N 
ATOM      8  H   UNL     1       3.323  -7.572  28.001  0.00  0.00    +0.172 HD
ATOM      9  C   UNL     1       3.099  -6.640  26.174  0.00  0.00    +0.195 A 
ATOM     10  N   UNL     1       3.660  -5.993  25.209  0.00  0.00    -0.199 NA
ATOM     11  N   UNL     1       1.776  -6.934  26.122  0.00  0.00    -0.329 N 
ATOM     12  H   UNL     1       1.295  -6.406  25.397  0.00  0.00    +0.145 HD
ATOM     13  H   UNL     1       1.270  -6.966  26.995  0.00  0.00    +0.145 HD
ATOM     14  O   UNL     1       5.700  -7.243  28.433  0.00  0.00    -0.265 OA
ATOM     15  C   UNL     1       5.000  -5.711  25.298  0.00  0.00    +0.154 A 
ATOM     16  N   UNL     1       5.557  -4.995  24.265  0.00  0.00    -0.317 N 
ATOM     17  H   UNL     1       4.948  -4.927  23.457  0.00  0.00    +0.148 HD
ENDROOT
BRANCH   2  18
ATOM     18  C   UNL     1       7.134  -3.182  24.010  0.00  0.00    +0.036 C 
BRANCH  18  19
ATOM     19  C   UNL     1       7.790  -2.719  22.702  0.00  0.00    +0.037 C 
BRANCH  19  20
ATOM     20  C   UNL     1       8.747  -1.581  22.951  0.00  0.00    -0.047 A 
ATOM     21  C   UNL     1       9.082  -0.698  21.917  0.00  0.00    +0.003 A 
ATOM     22  C   UNL     1       9.941   0.375  22.156  0.00  0.00    +0.000 A 
ATOM     23  C   UNL     1      10.464   0.576  23.432  0.00  0.00    +0.000 A 
ATOM     24  C   UNL     1      10.135  -0.297  24.467  0.00  0.00    +0.000 A 
ATOM     25  C   UNL     1       9.280  -1.373  24.229  0.00  0.00    +0.003 A 
ENDBRANCH  19  20
ENDBRANCH  18  19
ENDBRANCH   2  18
BRANCH   3  26
ATOM     26  C   UNL     1       9.223  -4.905  25.542  0.00  0.00    +0.208 C 
BRANCH  26  27
ATOM     27  O   UNL     1      10.008  -6.080  25.586  0.00  0.00    -0.389 OA
ATOM     28  H   UNL     1      10.340  -6.150  26.501  0.00  0.00    +0.210 HD
ENDBRANCH  26  27
ENDBRANCH   3  26
TORSDOF 5
ENDMDL
MODEL 6
REMARK VINA RESULT:      -6.8      2.288      2.730
REMARK  Name = 
REMARK  6 active torsions:
REMARK  status: ('A' for Active; 'I' for Inactive)
REMARK    1  A    between atoms: C_1  and  C_2
REMARK    2  A    between atoms: C_2  and  C_3
REMARK    3  A    between atoms: C_3  and  C_4
REMARK    4  A    between atoms: C_4  and  C_5
REMARK    5  A    between atoms: CA_15  and  C_16
REMARK    6  A    between atoms: C_16  and  O_17
REMARK                            x       y       z     vdW  Elec       q    Type
REMARK                         _______ _______ _______ _____ _____    ______ ____
ROOT
ATOM      1  C   UNL     1       6.248  -0.910  24.153  0.00  0.00    +0.038 C 
ATOM      2  C   UNL     1       7.184  -2.122  24.162  0.00  0.00    +0.071 C 
ATOM      3  CA  UNL     1       7.668  -2.398  22.705  0.00  0.00    +0.068 C 
ATOM      4  N   UNL     1       7.378  -3.464  22.008  0.00  0.00    -0.243 NA
ATOM      5  C   UNL     1       6.574  -4.421  22.613  0.00  0.00    +0.168 A 
ATOM      6  C   UNL     1       6.186  -5.644  21.838  0.00  0.00    +0.280 A 
ATOM      7  N   UNL     1       5.404  -6.548  22.498  0.00  0.00    -0.293 N 
ATOM      8  H   UNL     1       5.115  -7.353  21.971  0.00  0.00    +0.172 HD
ATOM      9  C   UNL     1       4.961  -6.342  23.763  0.00  0.00    +0.195 A 
ATOM     10  N   UNL     1       5.280  -5.299  24.452  0.00  0.00    -0.199 NA
ATOM     11  N   UNL     1       4.165  -7.299  24.300  0.00  0.00    -0.329 N 
ATOM     12  H   UNL     1       4.070  -7.196  25.308  0.00  0.00    +0.145 HD
ATOM     13  H   UNL     1       4.319  -8.252  24.008  0.00  0.00    +0.145 HD
ATOM     14  O   UNL     1       6.538  -5.851  20.680  0.00  0.00    -0.265 OA
ATOM     15  C   UNL     1       6.091  -4.353  23.876  0.00  0.00    +0.154 A 
ATOM     16  N   UNL     1       6.434  -3.270  24.651  0.00  0.00    -0.317 N 
ATOM     17  H   UNL     1       5.882  -3.200  25.499  0.00  0.00    +0.148 HD
ENDROOT
BRANCH   2  18
ATOM     18  C   UNL     1       8.412  -1.951  25.083  0.00  0.00    +0.036 C 
BRANCH  18  19
ATOM     19  C   UNL     1       8.415  -0.655  25.907  0.00  0.00    +0.037 C 
BRANCH  19  20
ATOM     20  C   UNL     1       9.189   0.430  25.202  0.00  0.00    -0.047 A 
ATOM     21  C   UNL     1      10.488   0.187  24.741  0.00  0.00    +0.003 A 
ATOM     22  C   UNL     1      11.191   1.180  24.058  0.00  0.00    +0.000 A 
ATOM     23  C   UNL     1      10.596   2.419  23.826  0.00  0.00    +0.000 A 
ATOM     24  C   UNL     1       9.302   2.668  24.281  0.00  0.00    +0.000 A 
ATOM     25  C   UNL     1       8.600   1.678  24.966  0.00  0.00    +0.003 A 
ENDBRANCH  19  20
ENDBRANCH  18  19
ENDBRANCH   2  18
BRANCH   3  26
ATOM     26  C   UNL     1       8.563  -1.346  22.035  0.00  0.00    +0.208 C 
BRANCH  26  27
ATOM     27  O   UNL     1       9.872  -1.817  21.784  0.00  0.00    -0.389 OA
ATOM     28  H   UNL     1       9.816  -2.357  20.973  0.00  0.00    +0.210 HD
ENDBRANCH  26  27
ENDBRANCH   3  26
TORSDOF 5
ENDMDL
MODEL 7
REMARK VINA RESULT:      -6.8      4.520      7.715
REMARK  Name = 
REMARK  6 active torsions:
REMARK  status: ('A' for Active; 'I' for Inactive)
REMARK    1  A    between atoms: C_1  and  C_2
REMARK    2  A    between atoms: C_2  and  C_3
REMARK    3  A    between atoms: C_3  and  C_4
REMARK    4  A    between atoms: C_4  and  C_5
REMARK    5  A    between atoms: CA_15  and  C_16
REMARK    6  A    between atoms: C_16  and  O_17
REMARK                            x       y       z     vdW  Elec       q    Type
REMARK                         _______ _______ _______ _____ _____    ______ ____
ROOT
ATOM      1  C   UNL     1       9.410   0.573  21.485  0.00  0.00    +0.038 C 
ATOM      2  C   UNL     1       9.417   1.058  22.938  0.00  0.00    +0.071 C 
ATOM      3  CA  UNL     1       8.116   1.877  23.206  0.00  0.00    +0.068 C 
ATOM      4  N   UNL     1       8.077   3.154  23.478  0.00  0.00    -0.243 NA
ATOM      5  C   UNL     1       9.288   3.832  23.529  0.00  0.00    +0.168 A 
ATOM      6  C   UNL     1       9.288   5.305  23.802  0.00  0.00    +0.280 A 
ATOM      7  N   UNL     1      10.514   5.904  23.851  0.00  0.00    -0.293 N 
ATOM      8  H   UNL     1      10.516   6.898  24.001  0.00  0.00    +0.172 HD
ATOM      9  C   UNL     1      11.666   5.227  23.621  0.00  0.00    +0.195 A 
ATOM     10  N   UNL     1      11.694   3.960  23.383  0.00  0.00    -0.199 NA
ATOM     11  N   UNL     1      12.818   5.940  23.665  0.00  0.00    -0.329 N 
ATOM     12  H   UNL     1      13.638   5.339  23.721  0.00  0.00    +0.145 HD
ATOM     13  H   UNL     1      12.856   6.727  24.296  0.00  0.00    +0.145 HD
ATOM     14  O   UNL     1       8.265   5.960  23.982  0.00  0.00    -0.265 OA
ATOM     15  C   UNL     1      10.507   3.270  23.349  0.00  0.00    +0.154 A 
ATOM     16  N   UNL     1      10.579   1.916  23.123  0.00  0.00    -0.317 N 
ATOM     17  H   UNL     1      11.495   1.615  22.810  0.00  0.00    +0.148 HD
ENDROOT
BRANCH   2  18
ATOM     18  C   UNL     1       9.522  -0.084  23.973  0.00  0.00    +0.036 C 
BRANCH  18  19
ATOM     19  C   UNL     1      10.206  -1.355  23.451  0.00  0.00    +0.037 C 
BRANCH  19  20
ATOM     20  C   UNL     1       9.270  -2.535  23.512  0.00  0.00    -0.047 A 
ATOM     21  C   UNL     1       9.444  -3.528  24.484  0.00  0.00    +0.003 A 
ATOM     22  C   UNL     1       8.557  -4.601  24.562  0.00  0.00    +0.000 A 
ATOM     23  C   UNL     1       7.486  -4.686  23.675  0.00  0.00    +0.000 A 
ATOM     24  C   UNL     1       7.305  -3.701  22.704  0.00  0.00    +0.000 A 
ATOM     25  C   UNL     1       8.192  -2.629  22.622  0.00  0.00    +0.003 A 
ENDBRANCH  19  20
ENDBRANCH  18  19
ENDBRANCH   2  18
BRANCH   3  26
ATOM     26  C   UNL     1       6.776   1.129  23.156  0.00  0.00    +0.208 C 
BRANCH  26  27
ATOM     27  O   UNL     1       5.731   1.910  22.610  0.00  0.00    -0.389 OA
ATOM     28  H   UNL     1       6.118   2.785  22.418  0.00  0.00    +0.210 HD
ENDBRANCH  26  27
ENDBRANCH   3  26
TORSDOF 5
ENDMDL
MODEL 8
REMARK VINA RESULT:      -6.5      3.534      6.738
REMARK  Name = 
REMARK  6 active torsions:
REMARK  status: ('A' for Active; 'I' for Inactive)
REMARK    1  A    between atoms: C_1  and  C_2
REMARK    2  A    between atoms: C_2  and  C_3
REMARK    3  A    between atoms: C_3  and  C_4
REMARK    4  A    between atoms: C_4  and  C_5
REMARK    5  A    between atoms: CA_15  and  C_16
REMARK    6  A    between atoms: C_16  and  O_17
REMARK                            x       y       z     vdW  Elec       q    Type
REMARK                         _______ _______ _______ _____ _____    ______ ____
ROOT
ATOM      1  C   UNL     1       8.430  -1.292  25.391  0.00  0.00    +0.038 C 
ATOM      2  C   UNL     1       8.203  -0.437  24.140  0.00  0.00    +0.071 C 
ATOM      3  CA  UNL     1       9.566  -0.243  23.406  0.00  0.00    +0.068 C 
ATOM      4  N   UNL     1      10.185   0.899  23.263  0.00  0.00    -0.243 NA
ATOM      5  C   UNL     1       9.582   2.023  23.812  0.00  0.00    +0.168 A 
ATOM      6  C   UNL     1      10.273   3.348  23.703  0.00  0.00    +0.280 A 
ATOM      7  N   UNL     1       9.617   4.412  24.253  0.00  0.00    -0.293 N 
ATOM      8  H   UNL     1      10.094   5.296  24.211  0.00  0.00    +0.172 HD
ATOM      9  C   UNL     1       8.434   4.283  24.901  0.00  0.00    +0.195 A 
ATOM     10  N   UNL     1       7.817   3.155  25.009  0.00  0.00    -0.199 NA
ATOM     11  N   UNL     1       7.896   5.408  25.433  0.00  0.00    -0.329 N 
ATOM     12  H   UNL     1       6.919   5.283  25.687  0.00  0.00    +0.145 HD
ATOM     13  H   UNL     1       8.077   6.281  24.959  0.00  0.00    +0.145 HD
ATOM     14  O   UNL     1      11.361   3.501  23.155  0.00  0.00    -0.265 OA
ATOM     15  C   UNL     1       8.390   2.037  24.455  0.00  0.00    +0.154 A 
ATOM     16  N   UNL     1       7.691   0.858  24.564  0.00  0.00    -0.317 N 
ATOM     17  H   UNL     1       6.918   0.916  25.218  0.00  0.00    +0.148 HD
ENDROOT
BRANCH   2  18
ATOM     18  C   UNL     1       7.175  -1.037  23.155  0.00  0.00    +0.036 C 
BRANCH  18  19
ATOM     19  C   UNL     1       6.281  -2.130  23.757  0.00  0.00    +0.037 C 
BRANCH  19  20
ATOM     20  C   UNL     1       6.538  -3.461  23.096  0.00  0.00    -0.047 A 
ATOM     21  C   UNL     1       5.892  -3.793  21.899  0.00  0.00    +0.003 A 
ATOM     22  C   UNL     1       6.157  -5.010  21.270  0.00  0.00    +0.000 A 
ATOM     23  C   UNL     1       7.072  -5.898  21.830  0.00  0.00    +0.000 A 
ATOM     24  C   UNL     1       7.721  -5.574  23.021  0.00  0.00    +0.000 A 
ATOM     25  C   UNL     1       7.456  -4.361  23.653  0.00  0.00    +0.003 A 
ENDBRANCH  19  20
ENDBRANCH  18  19
ENDBRANCH   2  18
BRANCH   3  26
ATOM     26  C   UNL     1      10.233  -1.482  22.793  0.00  0.00    +0.208 C 
BRANCH  26  27
ATOM     27  O   UNL     1      10.142  -1.514  21.382  0.00  0.00    -0.389 OA
ATOM     28  H   UNL     1       9.562  -2.268  21.164  0.00  0.00    +0.210 HD
ENDBRANCH  26  27
ENDBRANCH   3  26
TORSDOF 5
ENDMDL
MODEL 9
REMARK VINA RESULT:      -6.4      2.992      4.059
REMARK  Name = 
REMARK  6 active torsions:
REMARK  status: ('A' for Active; 'I' for Inactive)
REMARK    1  A    between atoms: C_1  and  C_2
REMARK    2  A    between atoms: C_2  and  C_3
REMARK    3  A    between atoms: C_3  and  C_4
REMARK    4  A    between atoms: C_4  and  C_5
REMARK    5  A    between atoms: CA_15  and  C_16
REMARK    6  A    between atoms: C_16  and  O_17
REMARK                            x       y       z     vdW  Elec       q    Type
REMARK                         _______ _______ _______ _____ _____    ______ ____
ROOT
ATOM      1  C   UNL     1       8.681  -3.585  24.628  0.00  0.00    +0.038 C 
ATOM      2  C   UNL     1       7.602  -2.988  23.720  0.00  0.00    +0.071 C 
ATOM      3  CA  UNL     1       6.682  -2.057  24.570  0.00  0.00    +0.068 C 
ATOM      4  N   UNL     1       5.417  -2.273  24.814  0.00  0.00    -0.243 NA
ATOM      5  C   UNL     1       4.852  -3.423  24.277  0.00  0.00    +0.168 A 
ATOM      6  C   UNL     1       3.413  -3.729  24.561  0.00  0.00    +0.280 A 
ATOM      7  N   UNL     1       2.920  -4.868  23.991  0.00  0.00    -0.293 N 
ATOM      8  H   UNL     1       1.965  -5.094  24.206  0.00  0.00    +0.172 HD
ATOM      9  C   UNL     1       3.688  -5.703  23.249  0.00  0.00    +0.195 A 
ATOM     10  N   UNL     1       4.929  -5.463  22.989  0.00  0.00    -0.199 NA
ATOM     11  N   UNL     1       3.092  -6.819  22.763  0.00  0.00    -0.329 N 
ATOM     12  H   UNL     1       3.647  -7.264  22.035  0.00  0.00    +0.145 HD
ATOM     13  H   UNL     1       2.110  -6.763  22.538  0.00  0.00    +0.145 HD
ATOM     14  O   UNL     1       2.694  -3.017  25.256  0.00  0.00    -0.265 OA
ATOM     15  C   UNL     1       5.498  -4.321  23.496  0.00  0.00    +0.154 A 
ATOM     16  N   UNL     1       6.813  -4.084  23.174  0.00  0.00    -0.317 N 
ATOM     17  H   UNL     1       7.270  -4.887  22.757  0.00  0.00    +0.148 HD
ENDROOT
BRANCH   2  18
ATOM     18  C   UNL     1       8.168  -2.190  22.524  0.00  0.00    +0.036 C 
BRANCH  18  19
ATOM     19  C   UNL     1       9.680  -1.935  22.588  0.00  0.00    +0.037 C 
BRANCH  19  20
ATOM     20  C   UNL     1       9.972  -0.468  22.775  0.00  0.00    -0.047 A 
ATOM     21  C   UNL     1       9.648   0.452  21.770  0.00  0.00    +0.003 A 
ATOM     22  C   UNL     1       9.886   1.814  21.957  0.00  0.00    +0.000 A 
ATOM     23  C   UNL     1      10.442   2.265  23.151  0.00  0.00    +0.000 A 
ATOM     24  C   UNL     1      10.767   1.357  24.157  0.00  0.00    +0.000 A 
ATOM     25  C   UNL     1      10.533  -0.005  23.972  0.00  0.00    +0.003 A 
ENDBRANCH  19  20
ENDBRANCH  18  19
ENDBRANCH   2  18
BRANCH   3  26
ATOM     26  C   UNL     1       7.302  -0.783  25.160  0.00  0.00    +0.208 C 
BRANCH  26  27
ATOM     27  O   UNL     1       6.945   0.384  24.444  0.00  0.00    -0.389 OA
ATOM     28  H   UNL     1       7.642   1.041  24.632  0.00  0.00    +0.210 HD
ENDBRANCH  26  27
ENDBRANCH   3  26
TORSDOF 5
ENDMDL
