MODEL 1
REMARK VINA RESULT:      -6.9      0.000      0.000
REMARK  Name = 
REMARK  8 active torsions:
REMARK  status: ('A' for Active; 'I' for Inactive)
REMARK    1  A    between atoms: C_7  and  C_8
REMARK    2  A    between atoms: C_8  and  O_9
REMARK    3  A    between atoms: O_9  and  P_10
REMARK    4  A    between atoms: P_10  and  O_11
REMARK    5  A    between atoms: P_10  and  O_13
REMARK    6  A    between atoms: O_13  and  P_14
REMARK    7  A    between atoms: P_14  and  O_15
REMARK    8  A    between atoms: P_14  and  O_16
REMARK                            x       y       z     vdW  Elec       q    Type
REMARK                         _______ _______ _______ _____ _____    ______ ____
ROOT
ATOM      1  N   UNL     1      11.271   4.024  23.345  0.00  0.00    -0.329 N 
ATOM      2  H   UNL     1      11.261   4.742  22.633  0.00  0.00    +0.145 HD
ATOM      3  H   UNL     1      12.211   3.722  23.596  0.00  0.00    +0.145 HD
ATOM      4  C   UNL     1      10.425   2.974  23.187  0.00  0.00    +0.195 A 
ATOM      5  N   UNL     1       9.235   3.241  22.570  0.00  0.00    -0.293 N 
ATOM      6  H   UNL     1       9.008   4.180  22.287  0.00  0.00    +0.172 HD
ATOM      7  C   UNL     1       8.264   2.296  22.338  0.00  0.00    +0.280 A 
ATOM      8  O   UNL     1       7.210   2.591  21.774  0.00  0.00    -0.265 OA
ATOM      9  C   UNL     1       8.588   0.931  22.809  0.00  0.00    +0.172 A 
ATOM     10  C   UNL     1       9.826   0.761  23.409  0.00  0.00    +0.187 A 
ATOM     11  N   UNL     1      10.221  -0.451  23.858  0.00  0.00    -0.232 NA
ATOM     12  C   UNL     1       9.335  -1.462  23.669  0.00  0.00    +0.138 A 
ATOM     13  C   UNL     1       8.093  -1.292  23.068  0.00  0.00    +0.086 A 
ATOM     14  N   UNL     1       7.691  -0.074  22.627  0.00  0.00    -0.239 NA
ATOM     15  N   UNL     1      10.753   1.799  23.601  0.00  0.00    -0.195 NA
ENDROOT
BRANCH  13  16
ATOM     16  C   UNL     1       7.187  -2.489  22.878  0.00  0.00    +0.229 C 
BRANCH  16  17
ATOM     17  O   UNL     1       7.842  -3.690  22.503  0.00  0.00    -0.280 OA
BRANCH  17  18
ATOM     18  P   UNL     1       7.476  -5.015  23.329  0.00  0.00    +0.484 P 
ATOM     19  O   UNL     1       6.205  -4.973  24.109  0.00  0.00    -0.227 OA
BRANCH  18  20
ATOM     20  O   UNL     1       7.364  -6.105  22.153  0.00  0.00    -0.302 OA
ATOM     21  H   UNL     1       7.715  -6.967  22.445  0.00  0.00    +0.222 HD
ENDBRANCH  18  20
BRANCH  18  22
ATOM     22  O   UNL     1       8.809  -5.471  24.081  0.00  0.00    -0.186 OA
BRANCH  22  23
ATOM     23  P   UNL     1       8.968  -4.738  25.640  0.00  0.00    +0.481 P 
ATOM     24  O   UNL     1       9.111  -4.082  27.035  0.00  0.00    -0.227 OA
BRANCH  23  25
ATOM     25  O   UNL     1      10.423  -5.479  25.727  0.00  0.00    -0.302 OA
ATOM     26  H   UNL     1      10.711  -5.752  24.827  0.00  0.00    +0.222 HD
ENDBRANCH  23  25
BRANCH  23  27
ATOM     27  O   UNL     1       8.104  -5.995  26.236  0.00  0.00    -0.302 OA
ATOM     28  H   UNL     1       8.083  -5.892  27.206  0.00  0.00    +0.222 HD
ENDBRANCH  23  27
ENDBRANCH  22  23
ENDBRANCH  18  22
ENDBRANCH  17  18
ENDBRANCH  16  17
ENDBRANCH  13  16
TORSDOF 8
ENDMDL
MODEL 2
REMARK VINA RESULT:      -6.8      4.764      7.140
REMARK  Name = 
REMARK  8 active torsions:
REMARK  status: ('A' for Active; 'I' for Inactive)
REMARK    1  A    between atoms: C_7  and  C_8
REMARK    2  A    between atoms: C_8  and  O_9
REMARK    3  A    between atoms: O_9  and  P_10
REMARK    4  A    between atoms: P_10  and  O_11
REMARK    5  A    between atoms: P_10  and  O_13
REMARK    6  A    between atoms: O_13  and  P_14
REMARK    7  A    between atoms: P_14  and  O_15
REMARK    8  A    between atoms: P_14  and  O_16
REMARK                            x       y       z     vdW  Elec       q    Type
REMARK                         _______ _______ _______ _____ _____    ______ ____
ROOT
ATOM      1  N   UNL     1       5.114  -7.349  28.239  0.00  0.00    -0.329 N 
ATOM      2  H   UNL     1       5.723  -7.861  28.863  0.00  0.00    +0.145 HD
ATOM      3  H   UNL     1       4.357  -7.918  27.862  0.00  0.00    +0.145 HD
ATOM      4  C   UNL     1       5.699  -6.585  27.282  0.00  0.00    +0.195 A 
ATOM      5  N   UNL     1       6.898  -6.015  27.609  0.00  0.00    -0.293 N 
ATOM      6  H   UNL     1       7.289  -6.145  28.528  0.00  0.00    +0.172 HD
ATOM      7  C   UNL     1       7.619  -5.209  26.761  0.00  0.00    +0.280 A 
ATOM      8  O   UNL     1       8.697  -4.724  27.107  0.00  0.00    -0.265 OA
ATOM      9  C   UNL     1       7.005  -4.981  25.434  0.00  0.00    +0.172 A 
ATOM     10  C   UNL     1       5.796  -5.615  25.196  0.00  0.00    +0.187 A 
ATOM     11  N   UNL     1       5.164  -5.482  24.008  0.00  0.00    -0.232 NA
ATOM     12  C   UNL     1       5.798  -4.708  23.090  0.00  0.00    +0.138 A 
ATOM     13  C   UNL     1       7.012  -4.073  23.330  0.00  0.00    +0.086 A 
ATOM     14  N   UNL     1       7.641  -4.196  24.525  0.00  0.00    -0.239 NA
ATOM     15  N   UNL     1       5.136  -6.424  26.135  0.00  0.00    -0.195 NA
ENDROOT
BRANCH  13  16
ATOM     16  C   UNL     1       7.653  -3.253  22.231  0.00  0.00    +0.229 C 
BRANCH  16  17
ATOM     17  O   UNL     1       7.982  -1.919  22.585  0.00  0.00    -0.280 OA
BRANCH  17  18
ATOM     18  P   UNL     1       9.538  -1.535  22.639  0.00  0.00    +0.484 P 
ATOM     19  O   UNL     1      10.476  -2.644  22.985  0.00  0.00    -0.227 OA
BRANCH  18  20
ATOM     20  O   UNL     1       9.799  -1.044  21.132  0.00  0.00    -0.302 OA
ATOM     21  H   UNL     1       9.443  -1.687  20.491  0.00  0.00    +0.222 HD
ENDBRANCH  18  20
BRANCH  18  22
ATOM     22  O   UNL     1       9.647  -0.170  23.460  0.00  0.00    -0.186 OA
BRANCH  22  23
ATOM     23  P   UNL     1       8.575  -0.131  24.817  0.00  0.00    +0.481 P 
ATOM     24  O   UNL     1       7.615  -0.096  26.032  0.00  0.00    -0.227 OA
BRANCH  23  25
ATOM     25  O   UNL     1       9.753   0.694  25.595  0.00  0.00    -0.302 OA
ATOM     26  H   UNL     1       9.378   1.510  25.996  0.00  0.00    +0.222 HD
ENDBRANCH  23  25
BRANCH  23  27
ATOM     27  O   UNL     1       9.132  -1.622  25.205  0.00  0.00    -0.302 OA
ATOM     28  H   UNL     1       9.397  -2.053  24.371  0.00  0.00    +0.222 HD
ENDBRANCH  23  27
ENDBRANCH  22  23
ENDBRANCH  18  22
ENDBRANCH  17  18
ENDBRANCH  16  17
ENDBRANCH  13  16
TORSDOF 8
ENDMDL
MODEL 3
REMARK VINA RESULT:      -6.7      2.455      3.409
REMARK  Name = 
REMARK  8 active torsions:
REMARK  status: ('A' for Active; 'I' for Inactive)
REMARK    1  A    between atoms: C_7  and  C_8
REMARK    2  A    between atoms: C_8  and  O_9
REMARK    3  A    between atoms: O_9  and  P_10
REMARK    4  A    between atoms: P_10  and  O_11
REMARK    5  A    between atoms: P_10  and  O_13
REMARK    6  A    between atoms: O_13  and  P_14
REMARK    7  A    between atoms: P_14  and  O_15
REMARK    8  A    between atoms: P_14  and  O_16
REMARK                            x       y       z     vdW  Elec       q    Type
REMARK                         _______ _______ _______ _____ _____    ______ ____
ROOT
ATOM      1  N   UNL     1       9.046   2.581  21.771  0.00  0.00    -0.329 N 
ATOM      2  H   UNL     1       9.875   2.788  21.230  0.00  0.00    +0.145 HD
ATOM      3  H   UNL     1       8.696   3.384  22.290  0.00  0.00    +0.145 HD
ATOM      4  C   UNL     1       9.058   1.454  22.526  0.00  0.00    +0.195 A 
ATOM      5  N   UNL     1       9.775   0.399  22.033  0.00  0.00    -0.293 N 
ATOM      6  H   UNL     1      10.233   0.470  21.140  0.00  0.00    +0.172 HD
ATOM      7  C   UNL     1       9.885  -0.815  22.667  0.00  0.00    +0.280 A 
ATOM      8  O   UNL     1      10.548  -1.731  22.178  0.00  0.00    -0.265 OA
ATOM      9  C   UNL     1       9.160  -0.923  23.953  0.00  0.00    +0.172 A 
ATOM     10  C   UNL     1       8.475   0.206  24.373  0.00  0.00    +0.187 A 
ATOM     11  N   UNL     1       7.796   0.212  25.541  0.00  0.00    -0.232 NA
ATOM     12  C   UNL     1       7.846  -0.942  26.254  0.00  0.00    +0.138 A 
ATOM     13  C   UNL     1       8.533  -2.075  25.832  0.00  0.00    +0.086 A 
ATOM     14  N   UNL     1       9.206  -2.086  24.655  0.00  0.00    -0.239 NA
ATOM     15  N   UNL     1       8.423   1.407  23.646  0.00  0.00    -0.195 NA
ENDROOT
BRANCH  13  16
ATOM     16  C   UNL     1       8.553  -3.305  26.713  0.00  0.00    +0.229 C 
BRANCH  16  17
ATOM     17  O   UNL     1       7.323  -4.006  26.800  0.00  0.00    -0.280 OA
BRANCH  17  18
ATOM     18  P   UNL     1       7.110  -5.243  25.802  0.00  0.00    +0.484 P 
ATOM     19  O   UNL     1       6.804  -4.896  24.383  0.00  0.00    -0.227 OA
BRANCH  18  20
ATOM     20  O   UNL     1       8.535  -5.978  25.894  0.00  0.00    -0.302 OA
ATOM     21  H   UNL     1       8.721  -6.261  26.808  0.00  0.00    +0.222 HD
ENDBRANCH  18  20
BRANCH  18  22
ATOM     22  O   UNL     1       6.151  -6.278  26.549  0.00  0.00    -0.186 OA
BRANCH  22  23
ATOM     23  P   UNL     1       6.014  -5.945  28.241  0.00  0.00    +0.481 P 
ATOM     24  O   UNL     1       5.891  -5.647  29.756  0.00  0.00    -0.227 OA
BRANCH  23  25
ATOM     25  O   UNL     1       7.566  -6.446  28.362  0.00  0.00    -0.302 OA
ATOM     26  H   UNL     1       8.171  -5.675  28.284  0.00  0.00    +0.222 HD
ENDBRANCH  23  25
BRANCH  23  27
ATOM     27  O   UNL     1       5.346  -7.432  28.403  0.00  0.00    -0.302 OA
ATOM     28  H   UNL     1       5.896  -8.050  27.886  0.00  0.00    +0.222 HD
ENDBRANCH  23  27
ENDBRANCH  22  23
ENDBRANCH  18  22
ENDBRANCH  17  18
ENDBRANCH  16  17
ENDBRANCH  13  16
TORSDOF 8
ENDMDL
MODEL 4
REMARK VINA RESULT:      -6.7      1.407      2.055
REMARK  Name = 
REMARK  8 active torsions:
REMARK  status: ('A' for Active; 'I' for Inactive)
REMARK    1  A    between atoms: C_7  and  C_8
REMARK    2  A    between atoms: C_8  and  O_9
REMARK    3  A    between atoms: O_9  and  P_10
REMARK    4  A    between atoms: P_10  and  O_11
REMARK    5  A    between atoms: P_10  and  O_13
REMARK    6  A    between atoms: O_13  and  P_14
REMARK    7  A    between atoms: P_14  and  O_15
REMARK    8  A    between atoms: P_14  and  O_16
REMARK                            x       y       z     vdW  Elec       q    Type
REMARK                         _______ _______ _______ _____ _____    ______ ____
ROOT
ATOM      1  N   UNL     1      10.868   4.245  23.408  0.00  0.00    -0.329 N 
ATOM      2  H   UNL     1      10.891   4.872  22.615  0.00  0.00    +0.145 HD
ATOM      3  H   UNL     1      11.768   4.162  23.879  0.00  0.00    +0.145 HD
ATOM      4  C   UNL     1      10.273   3.038  23.234  0.00  0.00    +0.195 A 
ATOM      5  N   UNL     1       9.219   2.999  22.364  0.00  0.00    -0.293 N 
ATOM      6  H   UNL     1       8.901   3.842  21.914  0.00  0.00    +0.172 HD
ATOM      7  C   UNL     1       8.502   1.862  22.079  0.00  0.00    +0.280 A 
ATOM      8  O   UNL     1       7.563   1.885  21.283  0.00  0.00    -0.265 OA
ATOM      9  C   UNL     1       8.946   0.643  22.790  0.00  0.00    +0.172 A 
ATOM     10  C   UNL     1      10.033   0.783  23.639  0.00  0.00    +0.187 A 
ATOM     11  N   UNL     1      10.523  -0.276  24.321  0.00  0.00    -0.232 NA
ATOM     12  C   UNL     1       9.889  -1.457  24.104  0.00  0.00    +0.138 A 
ATOM     13  C   UNL     1       8.799  -1.597  23.252  0.00  0.00    +0.086 A 
ATOM     14  N   UNL     1       8.299  -0.533  22.576  0.00  0.00    -0.239 NA
ATOM     15  N   UNL     1      10.700   1.998  23.864  0.00  0.00    -0.195 NA
ENDROOT
BRANCH  13  16
ATOM     16  C   UNL     1       8.178  -2.963  23.056  0.00  0.00    +0.229 C 
BRANCH  16  17
ATOM     17  O   UNL     1       7.315  -3.391  24.098  0.00  0.00    -0.280 OA
BRANCH  17  18
ATOM     18  P   UNL     1       7.911  -4.430  25.165  0.00  0.00    +0.484 P 
ATOM     19  O   UNL     1       9.191  -5.098  24.787  0.00  0.00    -0.227 OA
BRANCH  18  20
ATOM     20  O   UNL     1       8.140  -3.482  26.442  0.00  0.00    -0.302 OA
ATOM     21  H   UNL     1       8.540  -3.982  27.177  0.00  0.00    +0.222 HD
ENDBRANCH  18  20
BRANCH  18  22
ATOM     22  O   UNL     1       6.694  -5.346  25.643  0.00  0.00    -0.186 OA
BRANCH  22  23
ATOM     23  P   UNL     1       6.494  -5.333  27.361  0.00  0.00    +0.481 P 
ATOM     24  O   UNL     1       6.316  -5.322  28.899  0.00  0.00    -0.227 OA
BRANCH  23  25
ATOM     25  O   UNL     1       7.988  -5.994  27.438  0.00  0.00    -0.302 OA
ATOM     26  H   UNL     1       8.641  -5.311  27.709  0.00  0.00    +0.222 HD
ENDBRANCH  23  25
BRANCH  23  27
ATOM     27  O   UNL     1       5.692  -6.753  27.203  0.00  0.00    -0.302 OA
ATOM     28  H   UNL     1       5.524  -6.881  26.251  0.00  0.00    +0.222 HD
ENDBRANCH  23  27
ENDBRANCH  22  23
ENDBRANCH  18  22
ENDBRANCH  17  18
ENDBRANCH  16  17
ENDBRANCH  13  16
TORSDOF 8
ENDMDL
MODEL 5
REMARK VINA RESULT:      -6.7      4.520      6.823
REMARK  Name = 
REMARK  8 active torsions:
REMARK  status: ('A' for Active; 'I' for Inactive)
REMARK    1  A    between atoms: C_7  and  C_8
REMARK    2  A    between atoms: C_8  and  O_9
REMARK    3  A    between atoms: O_9  and  P_10
REMARK    4  A    between atoms: P_10  and  O_11
REMARK    5  A    between atoms: P_10  and  O_13
REMARK    6  A    between atoms: O_13  and  P_14
REMARK    7  A    between atoms: P_14  and  O_15
REMARK    8  A    between atoms: P_14  and  O_16
REMARK                            x       y       z     vdW  Elec       q    Type
REMARK                         _______ _______ _______ _____ _____    ______ ____
ROOT
ATOM      1  N   UNL     1       5.038  -6.358  24.887  0.00  0.00    -0.329 N 
ATOM      2  H   UNL     1       4.038  -6.273  24.769  0.00  0.00    +0.145 HD
ATOM      3  H   UNL     1       5.316  -6.507  25.856  0.00  0.00    +0.145 HD
ATOM      4  C   UNL     1       5.822  -5.438  24.270  0.00  0.00    +0.195 A 
ATOM      5  N   UNL     1       5.362  -4.949  23.079  0.00  0.00    -0.293 N 
ATOM      6  H   UNL     1       4.502  -5.294  22.686  0.00  0.00    +0.172 HD
ATOM      7  C   UNL     1       6.034  -4.019  22.322  0.00  0.00    +0.280 A 
ATOM      8  O   UNL     1       5.571  -3.611  21.257  0.00  0.00    -0.265 OA
ATOM      9  C   UNL     1       7.324  -3.562  22.885  0.00  0.00    +0.172 A 
ATOM     10  C   UNL     1       7.694  -4.106  24.105  0.00  0.00    +0.187 A 
ATOM     11  N   UNL     1       8.847  -3.740  24.708  0.00  0.00    -0.232 NA
ATOM     12  C   UNL     1       9.587  -2.814  24.046  0.00  0.00    +0.138 A 
ATOM     13  C   UNL     1       9.215  -2.269  22.821  0.00  0.00    +0.086 A 
ATOM     14  N   UNL     1       8.064  -2.643  22.210  0.00  0.00    -0.239 NA
ATOM     15  N   UNL     1       6.932  -5.058  24.802  0.00  0.00    -0.195 NA
ENDROOT
BRANCH  13  16
ATOM     16  C   UNL     1      10.095  -1.221  22.175  0.00  0.00    +0.229 C 
BRANCH  16  17
ATOM     17  O   UNL     1       9.405  -0.129  21.589  0.00  0.00    -0.280 OA
BRANCH  17  18
ATOM     18  P   UNL     1       9.279   1.213  22.458  0.00  0.00    +0.484 P 
ATOM     19  O   UNL     1       9.838   1.154  23.841  0.00  0.00    -0.227 OA
BRANCH  18  20
ATOM     20  O   UNL     1      10.120   2.252  21.568  0.00  0.00    -0.302 OA
ATOM     21  H   UNL     1      10.572   1.793  20.835  0.00  0.00    +0.222 HD
ENDBRANCH  18  20
BRANCH  18  22
ATOM     22  O   UNL     1       7.785   1.744  22.270  0.00  0.00    -0.186 OA
BRANCH  22  23
ATOM     23  P   UNL     1       6.742   1.245  23.556  0.00  0.00    +0.481 P 
ATOM     24  O   UNL     1       5.807   0.799  24.708  0.00  0.00    -0.227 OA
BRANCH  23  25
ATOM     25  O   UNL     1       6.552  -0.150  22.725  0.00  0.00    -0.302 OA
ATOM     26  H   UNL     1       7.355  -0.708  22.825  0.00  0.00    +0.222 HD
ENDBRANCH  23  25
BRANCH  23  27
ATOM     27  O   UNL     1       5.540   2.058  22.795  0.00  0.00    -0.302 OA
ATOM     28  H   UNL     1       4.902   1.391  22.476  0.00  0.00    +0.222 HD
ENDBRANCH  23  27
ENDBRANCH  22  23
ENDBRANCH  18  22
ENDBRANCH  17  18
ENDBRANCH  16  17
ENDBRANCH  13  16
TORSDOF 8
ENDMDL
MODEL 6
REMARK VINA RESULT:      -6.7      4.968      7.818
REMARK  Name = 
REMARK  8 active torsions:
REMARK  status: ('A' for Active; 'I' for Inactive)
REMARK    1  A    between atoms: C_7  and  C_8
REMARK    2  A    between atoms: C_8  and  O_9
REMARK    3  A    between atoms: O_9  and  P_10
REMARK    4  A    between atoms: P_10  and  O_11
REMARK    5  A    between atoms: P_10  and  O_13
REMARK    6  A    between atoms: O_13  and  P_14
REMARK    7  A    between atoms: P_14  and  O_15
REMARK    8  A    between atoms: P_14  and  O_16
REMARK                            x       y       z     vdW  Elec       q    Type
REMARK                         _______ _______ _______ _____ _____    ______ ____
ROOT
ATOM      1  N   UNL     1       5.454  -7.494  28.632  0.00  0.00    -0.329 N 
ATOM      2  H   UNL     1       4.450  -7.608  28.680  0.00  0.00    +0.145 HD
ATOM      3  H   UNL     1       5.877  -7.289  29.535  0.00  0.00    +0.145 HD
ATOM      4  C   UNL     1       5.946  -6.699  27.648  0.00  0.00    +0.195 A 
ATOM      5  N   UNL     1       5.247  -6.683  26.473  0.00  0.00    -0.293 N 
ATOM      6  H   UNL     1       4.433  -7.263  26.358  0.00  0.00    +0.172 HD
ATOM      7  C   UNL     1       5.611  -5.940  25.376  0.00  0.00    +0.280 A 
ATOM      8  O   UNL     1       4.942  -5.960  24.342  0.00  0.00    -0.265 OA
ATOM      9  C   UNL     1       6.842  -5.134  25.540  0.00  0.00    +0.172 A 
ATOM     10  C   UNL     1       7.469  -5.208  26.774  0.00  0.00    +0.187 A 
ATOM     11  N   UNL     1       8.590  -4.497  27.028  0.00  0.00    -0.232 NA
ATOM     12  C   UNL     1       9.033  -3.719  26.008  0.00  0.00    +0.138 A 
ATOM     13  C   UNL     1       8.404  -3.645  24.770  0.00  0.00    +0.086 A 
ATOM     14  N   UNL     1       7.285  -4.366  24.510  0.00  0.00    -0.239 NA
ATOM     15  N   UNL     1       7.014  -6.004  27.838  0.00  0.00    -0.195 NA
ENDROOT
BRANCH  13  16
ATOM     16  C   UNL     1       8.961  -2.725  23.705  0.00  0.00    +0.229 C 
BRANCH  16  17
ATOM     17  O   UNL     1       9.933  -1.795  24.157  0.00  0.00    -0.280 OA
BRANCH  17  18
ATOM     18  P   UNL     1       9.496  -0.253  24.230  0.00  0.00    +0.484 P 
ATOM     19  O   UNL     1       8.101   0.013  24.689  0.00  0.00    -0.227 OA
BRANCH  18  20
ATOM     20  O   UNL     1      10.548   0.327  25.297  0.00  0.00    -0.302 OA
ATOM     21  H   UNL     1      11.441  -0.028  25.131  0.00  0.00    +0.222 HD
ENDBRANCH  18  20
BRANCH  18  22
ATOM     22  O   UNL     1       9.987   0.428  22.872  0.00  0.00    -0.186 OA
BRANCH  22  23
ATOM     23  P   UNL     1       8.954   1.723  22.374  0.00  0.00    +0.481 P 
ATOM     24  O   UNL     1       8.029   2.882  21.928  0.00  0.00    -0.227 OA
BRANCH  23  25
ATOM     25  O   UNL     1      10.238   2.288  21.533  0.00  0.00    -0.302 OA
ATOM     26  H   UNL     1      10.423   3.218  21.795  0.00  0.00    +0.222 HD
ENDBRANCH  23  25
BRANCH  23  27
ATOM     27  O   UNL     1       9.335   2.468  23.782  0.00  0.00    -0.302 OA
ATOM     28  H   UNL     1      10.108   2.002  24.152  0.00  0.00    +0.222 HD
ENDBRANCH  23  27
ENDBRANCH  22  23
ENDBRANCH  18  22
ENDBRANCH  17  18
ENDBRANCH  16  17
ENDBRANCH  13  16
TORSDOF 8
ENDMDL
MODEL 7
REMARK VINA RESULT:      -6.7      1.708      2.911
REMARK  Name = 
REMARK  8 active torsions:
REMARK  status: ('A' for Active; 'I' for Inactive)
REMARK    1  A    between atoms: C_7  and  C_8
REMARK    2  A    between atoms: C_8  and  O_9
REMARK    3  A    between atoms: O_9  and  P_10
REMARK    4  A    between atoms: P_10  and  O_11
REMARK    5  A    between atoms: P_10  and  O_13
REMARK    6  A    between atoms: O_13  and  P_14
REMARK    7  A    between atoms: P_14  and  O_15
REMARK    8  A    between atoms: P_14  and  O_16
REMARK                            x       y       z     vdW  Elec       q    Type
REMARK                         _______ _______ _______ _____ _____    ______ ____
ROOT
ATOM      1  N   UNL     1       6.866   4.587  21.895  0.00  0.00    -0.329 N 
ATOM      2  H   UNL     1       7.143   5.452  22.341  0.00  0.00    +0.145 HD
ATOM      3  H   UNL     1       5.856   4.457  21.870  0.00  0.00    +0.145 HD
ATOM      4  C   UNL     1       7.515   3.455  22.265  0.00  0.00    +0.195 A 
ATOM      5  N   UNL     1       8.830   3.596  22.615  0.00  0.00    -0.293 N 
ATOM      6  H   UNL     1       9.276   4.497  22.560  0.00  0.00    +0.172 HD
ATOM      7  C   UNL     1       9.634   2.552  23.007  0.00  0.00    +0.280 A 
ATOM      8  O   UNL     1      10.812   2.737  23.315  0.00  0.00    -0.265 OA
ATOM      9  C   UNL     1       8.978   1.226  23.028  0.00  0.00    +0.172 A 
ATOM     10  C   UNL     1       7.640   1.192  22.671  0.00  0.00    +0.187 A 
ATOM     11  N   UNL     1       6.949   0.030  22.675  0.00  0.00    -0.232 NA
ATOM     12  C   UNL     1       7.650  -1.068  23.057  0.00  0.00    +0.138 A 
ATOM     13  C   UNL     1       8.994  -1.033  23.415  0.00  0.00    +0.086 A 
ATOM     14  N   UNL     1       9.691   0.130  23.401  0.00  0.00    -0.239 NA
ATOM     15  N   UNL     1       6.903   2.322  22.282  0.00  0.00    -0.195 NA
ENDROOT
BRANCH  13  16
ATOM     16  C   UNL     1       9.681  -2.308  23.854  0.00  0.00    +0.229 C 
BRANCH  16  17
ATOM     17  O   UNL     1       8.856  -3.463  23.875  0.00  0.00    -0.280 OA
BRANCH  17  18
ATOM     18  P   UNL     1       8.947  -4.406  25.169  0.00  0.00    +0.484 P 
ATOM     19  O   UNL     1      10.186  -5.228  25.297  0.00  0.00    -0.227 OA
BRANCH  18  20
ATOM     20  O   UNL     1       8.875  -3.328  26.357  0.00  0.00    -0.302 OA
ATOM     21  H   UNL     1       8.203  -2.647  26.167  0.00  0.00    +0.222 HD
ENDBRANCH  18  20
BRANCH  18  22
ATOM     22  O   UNL     1       7.536  -5.143  25.300  0.00  0.00    -0.186 OA
BRANCH  22  23
ATOM     23  P   UNL     1       6.885  -5.039  26.899  0.00  0.00    +0.481 P 
ATOM     24  O   UNL     1       6.302  -4.947  28.331  0.00  0.00    -0.227 OA
BRANCH  23  25
ATOM     25  O   UNL     1       8.219  -5.850  27.385  0.00  0.00    -0.302 OA
ATOM     26  H   UNL     1       8.896  -5.833  26.672  0.00  0.00    +0.222 HD
ENDBRANCH  23  25
BRANCH  23  27
ATOM     27  O   UNL     1       6.001  -6.372  26.544  0.00  0.00    -0.302 OA
ATOM     28  H   UNL     1       5.113  -6.064  26.282  0.00  0.00    +0.222 HD
ENDBRANCH  23  27
ENDBRANCH  22  23
ENDBRANCH  18  22
ENDBRANCH  17  18
ENDBRANCH  16  17
ENDBRANCH  13  16
TORSDOF 8
ENDMDL
MODEL 8
REMARK VINA RESULT:      -6.7      2.169      3.085
REMARK  Name = 
REMARK  8 active torsions:
REMARK  status: ('A' for Active; 'I' for Inactive)
REMARK    1  A    between atoms: C_7  and  C_8
REMARK    2  A    between atoms: C_8  and  O_9
REMARK    3  A    between atoms: O_9  and  P_10
REMARK    4  A    between atoms: P_10  and  O_11
REMARK    5  A    between atoms: P_10  and  O_13
REMARK    6  A    between atoms: O_13  and  P_14
REMARK    7  A    between atoms: P_14  and  O_15
REMARK    8  A    between atoms: P_14  and  O_16
REMARK                            x       y       z     vdW  Elec       q    Type
REMARK                         _______ _______ _______ _____ _____    ______ ____
ROOT
ATOM      1  N   UNL     1       6.089   3.803  21.842  0.00  0.00    -0.329 N 
ATOM      2  H   UNL     1       5.080   3.856  21.793  0.00  0.00    +0.145 HD
ATOM      3  H   UNL     1       6.549   4.152  21.002  0.00  0.00    +0.145 HD
ATOM      4  C   UNL     1       6.634   2.637  22.272  0.00  0.00    +0.195 A 
ATOM      5  N   UNL     1       5.916   1.937  23.201  0.00  0.00    -0.293 N 
ATOM      6  H   UNL     1       5.047   2.304  23.554  0.00  0.00    +0.172 HD
ATOM      7  C   UNL     1       6.326   0.743  23.745  0.00  0.00    +0.280 A 
ATOM      8  O   UNL     1       5.636   0.153  24.577  0.00  0.00    -0.265 OA
ATOM      9  C   UNL     1       7.630   0.243  23.257  0.00  0.00    +0.172 A 
ATOM     10  C   UNL     1       8.273   1.019  22.305  0.00  0.00    +0.187 A 
ATOM     11  N   UNL     1       9.461   0.638  21.786  0.00  0.00    -0.232 NA
ATOM     12  C   UNL     1       9.955  -0.537  22.252  0.00  0.00    +0.138 A 
ATOM     13  C   UNL     1       9.310  -1.315  23.208  0.00  0.00    +0.086 A 
ATOM     14  N   UNL     1       8.123  -0.929  23.738  0.00  0.00    -0.239 NA
ATOM     15  N   UNL     1       7.766   2.232  21.811  0.00  0.00    -0.195 NA
ENDROOT
BRANCH  13  16
ATOM     16  C   UNL     1       9.929  -2.625  23.643  0.00  0.00    +0.229 C 
BRANCH  16  17
ATOM     17  O   UNL     1       9.016  -3.697  23.820  0.00  0.00    -0.280 OA
BRANCH  17  18
ATOM     18  P   UNL     1       8.963  -4.385  25.268  0.00  0.00    +0.484 P 
ATOM     19  O   UNL     1      10.193  -5.115  25.693  0.00  0.00    -0.227 OA
BRANCH  18  20
ATOM     20  O   UNL     1       8.721  -3.113  26.218  0.00  0.00    -0.302 OA
ATOM     21  H   UNL     1       9.558  -2.640  26.385  0.00  0.00    +0.222 HD
ENDBRANCH  18  20
BRANCH  18  22
ATOM     22  O   UNL     1       7.562  -5.145  25.364  0.00  0.00    -0.186 OA
BRANCH  22  23
ATOM     23  P   UNL     1       6.858  -5.032  26.940  0.00  0.00    +0.481 P 
ATOM     24  O   UNL     1       6.227  -4.931  28.351  0.00  0.00    -0.227 OA
BRANCH  23  25
ATOM     25  O   UNL     1       8.166  -5.857  27.472  0.00  0.00    -0.302 OA
ATOM     26  H   UNL     1       8.980  -5.329  27.312  0.00  0.00    +0.222 HD
ENDBRANCH  23  25
BRANCH  23  27
ATOM     27  O   UNL     1       5.971  -6.355  26.556  0.00  0.00    -0.302 OA
ATOM     28  H   UNL     1       6.592  -7.105  26.487  0.00  0.00    +0.222 HD
ENDBRANCH  23  27
ENDBRANCH  22  23
ENDBRANCH  18  22
ENDBRANCH  17  18
ENDBRANCH  16  17
ENDBRANCH  13  16
TORSDOF 8
ENDMDL
MODEL 9
REMARK VINA RESULT:      -6.7      4.506      7.493
REMARK  Name = 
REMARK  8 active torsions:
REMARK  status: ('A' for Active; 'I' for Inactive)
REMARK    1  A    between atoms: C_7  and  C_8
REMARK    2  A    between atoms: C_8  and  O_9
REMARK    3  A    between atoms: O_9  and  P_10
REMARK    4  A    between atoms: P_10  and  O_11
REMARK    5  A    between atoms: P_10  and  O_13
REMARK    6  A    between atoms: O_13  and  P_14
REMARK    7  A    between atoms: P_14  and  O_15
REMARK    8  A    between atoms: P_14  and  O_16
REMARK                            x       y       z     vdW  Elec       q    Type
REMARK                         _______ _______ _______ _____ _____    ______ ____
ROOT
ATOM      1  N   UNL     1       3.550  -7.281  24.019  0.00  0.00    -0.329 N 
ATOM      2  H   UNL     1       2.733  -7.208  23.429  0.00  0.00    +0.145 HD
ATOM      3  H   UNL     1       3.326  -7.305  25.012  0.00  0.00    +0.145 HD
ATOM      4  C   UNL     1       4.591  -6.453  23.752  0.00  0.00    +0.195 A 
ATOM      5  N   UNL     1       4.783  -6.120  22.440  0.00  0.00    -0.293 N 
ATOM      6  H   UNL     1       4.189  -6.510  21.726  0.00  0.00    +0.172 HD
ATOM      7  C   UNL     1       5.791  -5.299  21.997  0.00  0.00    +0.280 A 
ATOM      8  O   UNL     1       5.915  -5.030  20.802  0.00  0.00    -0.265 OA
ATOM      9  C   UNL     1       6.689  -4.779  23.052  0.00  0.00    +0.172 A 
ATOM     10  C   UNL     1       6.402  -5.162  24.353  0.00  0.00    +0.187 A 
ATOM     11  N   UNL     1       7.154  -4.726  25.388  0.00  0.00    -0.232 NA
ATOM     12  C   UNL     1       8.178  -3.898  25.061  0.00  0.00    +0.138 A 
ATOM     13  C   UNL     1       8.466  -3.514  23.755  0.00  0.00    +0.086 A 
ATOM     14  N   UNL     1       7.719  -3.959  22.714  0.00  0.00    -0.239 NA
ATOM     15  N   UNL     1       5.340  -6.012  24.703  0.00  0.00    -0.195 NA
ENDROOT
BRANCH  13  16
ATOM     16  C   UNL     1       9.614  -2.562  23.495  0.00  0.00    +0.229 C 
BRANCH  16  17
ATOM     17  O   UNL     1       9.881  -1.637  24.537  0.00  0.00    -0.280 OA
BRANCH  17  18
ATOM     18  P   UNL     1       9.271  -0.161  24.382  0.00  0.00    +0.484 P 
ATOM     19  O   UNL     1       7.811  -0.022  24.659  0.00  0.00    -0.227 OA
BRANCH  18  20
ATOM     20  O   UNL     1      10.120   0.652  25.476  0.00  0.00    -0.302 OA
ATOM     21  H   UNL     1       9.548   1.269  25.970  0.00  0.00    +0.222 HD
ENDBRANCH  18  20
BRANCH  18  22
ATOM     22  O   UNL     1       9.839   0.429  23.012  0.00  0.00    -0.186 OA
BRANCH  22  23
ATOM     23  P   UNL     1       8.745   1.546  22.272  0.00  0.00    +0.481 P 
ATOM     24  O   UNL     1       7.765   2.546  21.609  0.00  0.00    -0.227 OA
BRANCH  23  25
ATOM     25  O   UNL     1      10.056   2.182  21.529  0.00  0.00    -0.302 OA
ATOM     26  H   UNL     1      10.469   2.861  22.109  0.00  0.00    +0.222 HD
ENDBRANCH  23  25
BRANCH  23  27
ATOM     27  O   UNL     1       8.868   2.451  23.631  0.00  0.00    -0.302 OA
ATOM     28  H   UNL     1       9.487   3.179  23.435  0.00  0.00    +0.222 HD
ENDBRANCH  23  27
ENDBRANCH  22  23
ENDBRANCH  18  22
ENDBRANCH  17  18
ENDBRANCH  16  17
ENDBRANCH  13  16
TORSDOF 8
ENDMDL
