MODEL 1
REMARK VINA RESULT:      -4.5      0.000      0.000
REMARK  Name = 
REMARK  20 active torsions:
REMARK  status: ('A' for Active; 'I' for Inactive)
REMARK    1  A    between atoms: C_1  and  C_2
REMARK    2  A    between atoms: C_2  and  C_3
REMARK    3  A    between atoms: C_3  and  C_4
REMARK    4  A    between atoms: C_4  and  C_5
REMARK    5  A    between atoms: C_5  and  C_6
REMARK    6  A    between atoms: C_6  and  C_7
REMARK    7  A    between atoms: C_7  and  C_8
REMARK    8  A    between atoms: C_8  and  O_9
REMARK    9  A    between atoms: O_9  and  C_10
REMARK   10  A    between atoms: C_10  and  C_11
REMARK   11  A    between atoms: C_11  and  O_12
REMARK   12  A    between atoms: O_12  and  C_13
REMARK   13  A    between atoms: C_13  and  C_14
REMARK   14  A    between atoms: C_14  and  O_15
REMARK   15  A    between atoms: O_15  and  C_16
REMARK   16  A    between atoms: C_16  and  C_17
REMARK   17  A    between atoms: C_17  and  O_18
REMARK   18  A    between atoms: O_18  and  C_19
REMARK   19  A    between atoms: C_19  and  C_20
REMARK   20  A    between atoms: C_20  and  O_21
REMARK                            x       y       z     vdW  Elec       q    Type
REMARK                         _______ _______ _______ _____ _____    ______ ____
ROOT
ATOM      1  C   UNL     1       6.018  -3.677  21.644  0.00  0.00    +0.188 C 
ENDROOT
BRANCH   1   2
ATOM      2  O   UNL     1       4.886  -4.251  22.304  0.00  0.00    -0.375 OA
BRANCH   2   3
ATOM      3  C   UNL     1       5.080  -5.635  22.576  0.00  0.00    +0.188 C 
BRANCH   3   4
ATOM      4  C   UNL     1       3.895  -6.157  23.378  0.00  0.00    +0.188 C 
BRANCH   4   5
ATOM      5  O   UNL     1       4.292  -7.326  24.092  0.00  0.00    -0.375 OA
BRANCH   5   6
ATOM      6  C   UNL     1       3.720  -7.359  25.399  0.00  0.00    +0.188 C 
BRANCH   6   7
ATOM      7  C   UNL     1       4.345  -6.249  26.237  0.00  0.00    +0.188 C 
BRANCH   7   8
ATOM      8  O   UNL     1       5.736  -6.509  26.427  0.00  0.00    -0.375 OA
BRANCH   8   9
ATOM      9  C   UNL     1       6.533  -5.452  25.876  0.00  0.00    +0.187 C 
BRANCH   9  10
ATOM     10  C   UNL     1       7.623  -5.098  26.881  0.00  0.00    +0.184 C 
BRANCH  10  11
ATOM     11  O   UNL     1       7.694  -6.098  27.896  0.00  0.00    -0.393 OA
ATOM     12  H   UNL     1       7.097  -6.811  27.594  0.00  0.00    +0.209 HD
ENDBRANCH  10  11
ENDBRANCH   9  10
ENDBRANCH   8   9
ENDBRANCH   7   8
ENDBRANCH   6   7
ENDBRANCH   5   6
ENDBRANCH   4   5
ENDBRANCH   3   4
ENDBRANCH   2   3
ENDBRANCH   1   2
BRANCH   1  13
ATOM     13  C   UNL     1       6.735  -2.738  22.611  0.00  0.00    +0.188 C 
BRANCH  13  14
ATOM     14  O   UNL     1       8.022  -3.278  22.928  0.00  0.00    -0.377 OA
BRANCH  14  15
ATOM     15  C   UNL     1       9.010  -2.256  23.011  0.00  0.00    +0.160 C 
BRANCH  15  16
ATOM     16  C   UNL     1       8.690  -1.187  21.975  0.00  0.00    +0.028 C 
BRANCH  16  17
ATOM     17  C   UNL     1       9.871  -0.242  21.787  0.00  0.00    +0.002 C 
BRANCH  17  18
ATOM     18  C   UNL     1       9.424   1.217  21.718  0.00  0.00    +0.000 C 
BRANCH  18  19
ATOM     19  C   UNL     1      10.295   2.093  22.618  0.00  0.00    -0.000 C 
BRANCH  19  20
ATOM     20  C   UNL     1      10.303   1.581  24.057  0.00  0.00    -0.000 C 
BRANCH  20  22
ATOM     21  C   UNL     1       8.575   3.223  24.864  0.00  0.00    +0.004 C 
ATOM     22  C   UNL     1       8.933   1.755  24.711  0.00  0.00    -0.003 C 
ENDBRANCH  20  22
ENDBRANCH  19  20
ENDBRANCH  18  19
ENDBRANCH  17  18
ENDBRANCH  16  17
ENDBRANCH  15  16
ENDBRANCH  14  15
ENDBRANCH  13  14
ENDBRANCH   1  13
TORSDOF 19
ENDMDL
MODEL 2
REMARK VINA RESULT:      -4.5      2.077      3.891
REMARK  Name = 
REMARK  20 active torsions:
REMARK  status: ('A' for Active; 'I' for Inactive)
REMARK    1  A    between atoms: C_1  and  C_2
REMARK    2  A    between atoms: C_2  and  C_3
REMARK    3  A    between atoms: C_3  and  C_4
REMARK    4  A    between atoms: C_4  and  C_5
REMARK    5  A    between atoms: C_5  and  C_6
REMARK    6  A    between atoms: C_6  and  C_7
REMARK    7  A    between atoms: C_7  and  C_8
REMARK    8  A    between atoms: C_8  and  O_9
REMARK    9  A    between atoms: O_9  and  C_10
REMARK   10  A    between atoms: C_10  and  C_11
REMARK   11  A    between atoms: C_11  and  O_12
REMARK   12  A    between atoms: O_12  and  C_13
REMARK   13  A    between atoms: C_13  and  C_14
REMARK   14  A    between atoms: C_14  and  O_15
REMARK   15  A    between atoms: O_15  and  C_16
REMARK   16  A    between atoms: C_16  and  C_17
REMARK   17  A    between atoms: C_17  and  O_18
REMARK   18  A    between atoms: O_18  and  C_19
REMARK   19  A    between atoms: C_19  and  C_20
REMARK   20  A    between atoms: C_20  and  O_21
REMARK                            x       y       z     vdW  Elec       q    Type
REMARK                         _______ _______ _______ _____ _____    ______ ____
ROOT
ATOM      1  C   UNL     1       9.646  -4.527  25.039  0.00  0.00    +0.188 C 
ENDROOT
BRANCH   1   2
ATOM      2  O   UNL     1       9.107  -5.597  24.257  0.00  0.00    -0.375 OA
BRANCH   2   3
ATOM      3  C   UNL     1       7.815  -5.278  23.749  0.00  0.00    +0.188 C 
BRANCH   3   4
ATOM      4  C   UNL     1       7.603  -6.012  22.431  0.00  0.00    +0.188 C 
BRANCH   4   5
ATOM      5  O   UNL     1       6.219  -6.326  22.288  0.00  0.00    -0.375 OA
BRANCH   5   6
ATOM      6  C   UNL     1       5.550  -6.321  23.549  0.00  0.00    +0.188 C 
BRANCH   6   7
ATOM      7  C   UNL     1       4.097  -5.913  23.333  0.00  0.00    +0.188 C 
BRANCH   7   8
ATOM      8  O   UNL     1       4.041  -4.669  22.632  0.00  0.00    -0.375 OA
BRANCH   8   9
ATOM      9  C   UNL     1       4.664  -3.626  23.394  0.00  0.00    +0.187 C 
BRANCH   9  10
ATOM     10  C   UNL     1       5.568  -2.825  22.463  0.00  0.00    +0.184 C 
BRANCH  10  11
ATOM     11  O   UNL     1       5.680  -3.488  21.205  0.00  0.00    -0.393 OA
ATOM     12  H   UNL     1       6.593  -3.834  21.178  0.00  0.00    +0.209 HD
ENDBRANCH  10  11
ENDBRANCH   9  10
ENDBRANCH   8   9
ENDBRANCH   7   8
ENDBRANCH   6   7
ENDBRANCH   5   6
ENDBRANCH   4   5
ENDBRANCH   3   4
ENDBRANCH   2   3
ENDBRANCH   1   2
BRANCH   1  13
ATOM     13  C   UNL     1       9.227  -3.197  24.421  0.00  0.00    +0.188 C 
BRANCH  13  14
ATOM     14  O   UNL     1       8.932  -2.262  25.465  0.00  0.00    -0.377 OA
BRANCH  14  15
ATOM     15  C   UNL     1       8.321  -1.083  24.951  0.00  0.00    +0.160 C 
BRANCH  15  16
ATOM     16  C   UNL     1       9.170   0.116  25.350  0.00  0.00    +0.028 C 
BRANCH  16  17
ATOM     17  C   UNL     1       8.379   1.412  25.213  0.00  0.00    +0.002 C 
BRANCH  17  18
ATOM     18  C   UNL     1       9.138   2.456  24.397  0.00  0.00    +0.000 C 
BRANCH  18  19
ATOM     19  C   UNL     1      10.327   1.821  23.676  0.00  0.00    -0.000 C 
BRANCH  19  20
ATOM     20  C   UNL     1      10.197   1.957  22.161  0.00  0.00    -0.000 C 
BRANCH  20  22
ATOM     21  C   UNL     1       9.569  -0.391  21.512  0.00  0.00    +0.004 C 
ATOM     22  C   UNL     1       9.095   1.048  21.618  0.00  0.00    -0.003 C 
ENDBRANCH  20  22
ENDBRANCH  19  20
ENDBRANCH  18  19
ENDBRANCH  17  18
ENDBRANCH  16  17
ENDBRANCH  15  16
ENDBRANCH  14  15
ENDBRANCH  13  14
ENDBRANCH   1  13
TORSDOF 19
ENDMDL
MODEL 3
REMARK VINA RESULT:      -4.5      1.563      2.263
REMARK  Name = 
REMARK  20 active torsions:
REMARK  status: ('A' for Active; 'I' for Inactive)
REMARK    1  A    between atoms: C_1  and  C_2
REMARK    2  A    between atoms: C_2  and  C_3
REMARK    3  A    between atoms: C_3  and  C_4
REMARK    4  A    between atoms: C_4  and  C_5
REMARK    5  A    between atoms: C_5  and  C_6
REMARK    6  A    between atoms: C_6  and  C_7
REMARK    7  A    between atoms: C_7  and  C_8
REMARK    8  A    between atoms: C_8  and  O_9
REMARK    9  A    between atoms: O_9  and  C_10
REMARK   10  A    between atoms: C_10  and  C_11
REMARK   11  A    between atoms: C_11  and  O_12
REMARK   12  A    between atoms: O_12  and  C_13
REMARK   13  A    between atoms: C_13  and  C_14
REMARK   14  A    between atoms: C_14  and  O_15
REMARK   15  A    between atoms: O_15  and  C_16
REMARK   16  A    between atoms: C_16  and  C_17
REMARK   17  A    between atoms: C_17  and  O_18
REMARK   18  A    between atoms: O_18  and  C_19
REMARK   19  A    between atoms: C_19  and  C_20
REMARK   20  A    between atoms: C_20  and  O_21
REMARK                            x       y       z     vdW  Elec       q    Type
REMARK                         _______ _______ _______ _____ _____    ______ ____
ROOT
ATOM      1  C   UNL     1       8.126  -3.000  23.607  0.00  0.00    +0.188 C 
ENDROOT
BRANCH   1   2
ATOM      2  O   UNL     1       8.441  -4.364  23.313  0.00  0.00    -0.375 OA
BRANCH   2   3
ATOM      3  C   UNL     1       7.296  -5.087  22.874  0.00  0.00    +0.188 C 
BRANCH   3   4
ATOM      4  C   UNL     1       6.040  -4.339  23.303  0.00  0.00    +0.188 C 
BRANCH   4   5
ATOM      5  O   UNL     1       5.271  -5.174  24.167  0.00  0.00    -0.375 OA
BRANCH   5   6
ATOM      6  C   UNL     1       5.396  -4.770  25.530  0.00  0.00    +0.188 C 
BRANCH   6   7
ATOM      7  C   UNL     1       5.797  -5.981  26.366  0.00  0.00    +0.188 C 
BRANCH   7   8
ATOM      8  O   UNL     1       7.219  -6.032  26.495  0.00  0.00    -0.375 OA
BRANCH   8   9
ATOM      9  C   UNL     1       7.748  -4.743  26.833  0.00  0.00    +0.187 C 
BRANCH   9  10
ATOM     10  C   UNL     1       9.249  -4.756  26.571  0.00  0.00    +0.184 C 
BRANCH  10  11
ATOM     11  O   UNL     1       9.579  -5.820  25.679  0.00  0.00    -0.393 OA
ATOM     12  H   UNL     1       9.185  -5.566  24.822  0.00  0.00    +0.209 HD
ENDBRANCH  10  11
ENDBRANCH   9  10
ENDBRANCH   8   9
ENDBRANCH   7   8
ENDBRANCH   6   7
ENDBRANCH   5   6
ENDBRANCH   4   5
ENDBRANCH   3   4
ENDBRANCH   2   3
ENDBRANCH   1   2
BRANCH   1  13
ATOM     13  C   UNL     1       9.421  -2.229  23.845  0.00  0.00    +0.188 C 
BRANCH  13  14
ATOM     14  O   UNL     1      10.178  -2.189  22.630  0.00  0.00    -0.377 OA
BRANCH  14  15
ATOM     15  C   UNL     1      10.453  -0.850  22.232  0.00  0.00    +0.160 C 
BRANCH  15  16
ATOM     16  C   UNL     1       9.318  -0.366  21.340  0.00  0.00    +0.028 C 
BRANCH  16  17
ATOM     17  C   UNL     1       8.974   1.089  21.638  0.00  0.00    +0.002 C 
BRANCH  17  18
ATOM     18  C   UNL     1      10.183   1.861  22.162  0.00  0.00    +0.000 C 
BRANCH  18  19
ATOM     19  C   UNL     1       9.888   2.461  23.537  0.00  0.00    -0.000 C 
BRANCH  19  20
ATOM     20  C   UNL     1       8.483   2.098  24.014  0.00  0.00    -0.000 C 
BRANCH  20  22
ATOM     21  C   UNL     1       7.196   1.120  25.941  0.00  0.00    +0.004 C 
ATOM     22  C   UNL     1       8.535   1.169  25.225  0.00  0.00    -0.003 C 
ENDBRANCH  20  22
ENDBRANCH  19  20
ENDBRANCH  18  19
ENDBRANCH  17  18
ENDBRANCH  16  17
ENDBRANCH  15  16
ENDBRANCH  14  15
ENDBRANCH  13  14
ENDBRANCH   1  13
TORSDOF 19
ENDMDL
MODEL 4
REMARK VINA RESULT:      -4.5      1.397      2.091
REMARK  Name = 
REMARK  20 active torsions:
REMARK  status: ('A' for Active; 'I' for Inactive)
REMARK    1  A    between atoms: C_1  and  C_2
REMARK    2  A    between atoms: C_2  and  C_3
REMARK    3  A    between atoms: C_3  and  C_4
REMARK    4  A    between atoms: C_4  and  C_5
REMARK    5  A    between atoms: C_5  and  C_6
REMARK    6  A    between atoms: C_6  and  C_7
REMARK    7  A    between atoms: C_7  and  C_8
REMARK    8  A    between atoms: C_8  and  O_9
REMARK    9  A    between atoms: O_9  and  C_10
REMARK   10  A    between atoms: C_10  and  C_11
REMARK   11  A    between atoms: C_11  and  O_12
REMARK   12  A    between atoms: O_12  and  C_13
REMARK   13  A    between atoms: C_13  and  C_14
REMARK   14  A    between atoms: C_14  and  O_15
REMARK   15  A    between atoms: O_15  and  C_16
REMARK   16  A    between atoms: C_16  and  C_17
REMARK   17  A    between atoms: C_17  and  O_18
REMARK   18  A    between atoms: O_18  and  C_19
REMARK   19  A    between atoms: C_19  and  C_20
REMARK   20  A    between atoms: C_20  and  O_21
REMARK                            x       y       z     vdW  Elec       q    Type
REMARK                         _______ _______ _______ _____ _____    ______ ____
ROOT
ATOM      1  C   UNL     1       6.014  -4.861  22.006  0.00  0.00    +0.188 C 
ENDROOT
BRANCH   1   2
ATOM      2  O   UNL     1       4.617  -4.888  22.313  0.00  0.00    -0.375 OA
BRANCH   2   3
ATOM      3  C   UNL     1       4.388  -4.959  23.717  0.00  0.00    +0.188 C 
BRANCH   3   4
ATOM      4  C   UNL     1       4.932  -6.281  24.245  0.00  0.00    +0.188 C 
BRANCH   4   5
ATOM      5  O   UNL     1       5.991  -6.017  25.163  0.00  0.00    -0.375 OA
BRANCH   5   6
ATOM      6  C   UNL     1       5.574  -5.129  26.199  0.00  0.00    +0.188 C 
BRANCH   6   7
ATOM      7  C   UNL     1       6.678  -5.046  27.248  0.00  0.00    +0.188 C 
BRANCH   7   8
ATOM      8  O   UNL     1       7.880  -5.623  26.735  0.00  0.00    -0.375 OA
BRANCH   8   9
ATOM      9  C   UNL     1       8.887  -4.620  26.547  0.00  0.00    +0.187 C 
BRANCH   9  10
ATOM     10  C   UNL     1       9.690  -4.974  25.300  0.00  0.00    +0.184 C 
BRANCH  10  11
ATOM     11  O   UNL     1       8.807  -5.343  24.242  0.00  0.00    -0.393 OA
ATOM     12  H   UNL     1       9.297  -6.011  23.722  0.00  0.00    +0.209 HD
ENDBRANCH  10  11
ENDBRANCH   9  10
ENDBRANCH   8   9
ENDBRANCH   7   8
ENDBRANCH   6   7
ENDBRANCH   5   6
ENDBRANCH   4   5
ENDBRANCH   3   4
ENDBRANCH   2   3
ENDBRANCH   1   2
BRANCH   1  13
ATOM     13  C   UNL     1       6.478  -3.409  21.925  0.00  0.00    +0.188 C 
BRANCH  13  14
ATOM     14  O   UNL     1       7.710  -3.265  22.640  0.00  0.00    -0.377 OA
BRANCH  14  15
ATOM     15  C   UNL     1       8.304  -1.993  22.404  0.00  0.00    +0.160 C 
BRANCH  15  16
ATOM     16  C   UNL     1       8.987  -1.532  23.683  0.00  0.00    +0.028 C 
BRANCH  16  17
ATOM     17  C   UNL     1      10.157  -0.605  23.372  0.00  0.00    +0.002 C 
BRANCH  17  18
ATOM     18  C   UNL     1      10.090  -0.068  21.944  0.00  0.00    +0.000 C 
BRANCH  18  19
ATOM     19  C   UNL     1       9.778   1.428  21.942  0.00  0.00    -0.000 C 
BRANCH  19  20
ATOM     20  C   UNL     1       8.320   1.693  21.572  0.00  0.00    -0.000 C 
BRANCH  20  22
ATOM     21  C   UNL     1       8.075   3.119  23.631  0.00  0.00    +0.004 C 
ATOM     22  C   UNL     1       7.480   1.984  22.815  0.00  0.00    -0.003 C 
ENDBRANCH  20  22
ENDBRANCH  19  20
ENDBRANCH  18  19
ENDBRANCH  17  18
ENDBRANCH  16  17
ENDBRANCH  15  16
ENDBRANCH  14  15
ENDBRANCH  13  14
ENDBRANCH   1  13
TORSDOF 19
ENDMDL
MODEL 5
REMARK VINA RESULT:      -4.5      2.142      3.500
REMARK  Name = 
REMARK  20 active torsions:
REMARK  status: ('A' for Active; 'I' for Inactive)
REMARK    1  A    between atoms: C_1  and  C_2
REMARK    2  A    between atoms: C_2  and  C_3
REMARK    3  A    between atoms: C_3  and  C_4
REMARK    4  A    between atoms: C_4  and  C_5
REMARK    5  A    between atoms: C_5  and  C_6
REMARK    6  A    between atoms: C_6  and  C_7
REMARK    7  A    between atoms: C_7  and  C_8
REMARK    8  A    between atoms: C_8  and  O_9
REMARK    9  A    between atoms: O_9  and  C_10
REMARK   10  A    between atoms: C_10  and  C_11
REMARK   11  A    between atoms: C_11  and  O_12
REMARK   12  A    between atoms: O_12  and  C_13
REMARK   13  A    between atoms: C_13  and  C_14
REMARK   14  A    between atoms: C_14  and  O_15
REMARK   15  A    between atoms: O_15  and  C_16
REMARK   16  A    between atoms: C_16  and  C_17
REMARK   17  A    between atoms: C_17  and  O_18
REMARK   18  A    between atoms: O_18  and  C_19
REMARK   19  A    between atoms: C_19  and  C_20
REMARK   20  A    between atoms: C_20  and  O_21
REMARK                            x       y       z     vdW  Elec       q    Type
REMARK                         _______ _______ _______ _____ _____    ______ ____
ROOT
ATOM      1  C   UNL     1       9.347  -1.733  23.336  0.00  0.00    +0.188 C 
ENDROOT
BRANCH   1   2
ATOM      2  O   UNL     1       8.714  -3.015  23.392  0.00  0.00    -0.375 OA
BRANCH   2   3
ATOM      3  C   UNL     1       7.315  -2.901  23.634  0.00  0.00    +0.188 C 
BRANCH   3   4
ATOM      4  C   UNL     1       6.653  -4.247  23.369  0.00  0.00    +0.188 C 
BRANCH   4   5
ATOM      5  O   UNL     1       5.590  -4.436  24.303  0.00  0.00    -0.375 OA
BRANCH   5   6
ATOM      6  C   UNL     1       5.762  -5.639  25.052  0.00  0.00    +0.188 C 
BRANCH   6   7
ATOM      7  C   UNL     1       6.413  -5.297  26.388  0.00  0.00    +0.188 C 
BRANCH   7   8
ATOM      8  O   UNL     1       7.750  -5.797  26.418  0.00  0.00    -0.375 OA
BRANCH   8   9
ATOM      9  C   UNL     1       8.692  -4.727  26.576  0.00  0.00    +0.187 C 
BRANCH   9  10
ATOM     10  C   UNL     1       9.930  -5.050  25.747  0.00  0.00    +0.184 C 
BRANCH  10  11
ATOM     11  O   UNL     1       9.551  -5.726  24.549  0.00  0.00    -0.393 OA
ATOM     12  H   UNL     1      10.388  -6.045  24.160  0.00  0.00    +0.209 HD
ENDBRANCH  10  11
ENDBRANCH   9  10
ENDBRANCH   8   9
ENDBRANCH   7   8
ENDBRANCH   6   7
ENDBRANCH   5   6
ENDBRANCH   4   5
ENDBRANCH   3   4
ENDBRANCH   2   3
ENDBRANCH   1   2
BRANCH   1  13
ATOM     13  C   UNL     1       9.380  -1.257  21.887  0.00  0.00    +0.188 C 
BRANCH  13  14
ATOM     14  O   UNL     1      10.166  -0.063  21.799  0.00  0.00    -0.377 OA
BRANCH  14  15
ATOM     15  C   UNL     1       9.344   1.096  21.705  0.00  0.00    +0.160 C 
BRANCH  15  16
ATOM     16  C   UNL     1       9.941   2.186  22.583  0.00  0.00    +0.028 C 
BRANCH  16  17
ATOM     17  C   UNL     1       9.594   1.955  24.049  0.00  0.00    +0.002 C 
BRANCH  17  18
ATOM     18  C   UNL     1       8.875   3.157  24.658  0.00  0.00    +0.000 C 
BRANCH  18  19
ATOM     19  C   UNL     1       8.950   4.364  23.723  0.00  0.00    -0.000 C 
BRANCH  19  20
ATOM     20  C   UNL     1       9.746   5.506  24.350  0.00  0.00    -0.000 C 
BRANCH  20  22
ATOM     21  C   UNL     1      12.177   6.155  24.385  0.00  0.00    +0.004 C 
ATOM     22  C   UNL     1      10.974   5.849  23.508  0.00  0.00    -0.003 C 
ENDBRANCH  20  22
ENDBRANCH  19  20
ENDBRANCH  18  19
ENDBRANCH  17  18
ENDBRANCH  16  17
ENDBRANCH  15  16
ENDBRANCH  14  15
ENDBRANCH  13  14
ENDBRANCH   1  13
TORSDOF 19
ENDMDL
MODEL 6
REMARK VINA RESULT:      -4.4      1.546      3.654
REMARK  Name = 
REMARK  20 active torsions:
REMARK  status: ('A' for Active; 'I' for Inactive)
REMARK    1  A    between atoms: C_1  and  C_2
REMARK    2  A    between atoms: C_2  and  C_3
REMARK    3  A    between atoms: C_3  and  C_4
REMARK    4  A    between atoms: C_4  and  C_5
REMARK    5  A    between atoms: C_5  and  C_6
REMARK    6  A    between atoms: C_6  and  C_7
REMARK    7  A    between atoms: C_7  and  C_8
REMARK    8  A    between atoms: C_8  and  O_9
REMARK    9  A    between atoms: O_9  and  C_10
REMARK   10  A    between atoms: C_10  and  C_11
REMARK   11  A    between atoms: C_11  and  O_12
REMARK   12  A    between atoms: O_12  and  C_13
REMARK   13  A    between atoms: C_13  and  C_14
REMARK   14  A    between atoms: C_14  and  O_15
REMARK   15  A    between atoms: O_15  and  C_16
REMARK   16  A    between atoms: C_16  and  C_17
REMARK   17  A    between atoms: C_17  and  O_18
REMARK   18  A    between atoms: O_18  and  C_19
REMARK   19  A    between atoms: C_19  and  C_20
REMARK   20  A    between atoms: C_20  and  O_21
REMARK                            x       y       z     vdW  Elec       q    Type
REMARK                         _______ _______ _______ _____ _____    ______ ____
ROOT
ATOM      1  C   UNL     1       8.753  -3.020  24.450  0.00  0.00    +0.188 C 
ENDROOT
BRANCH   1   2
ATOM      2  O   UNL     1       9.869  -3.915  24.444  0.00  0.00    -0.375 OA
BRANCH   2   3
ATOM      3  C   UNL     1       9.622  -5.071  25.237  0.00  0.00    +0.188 C 
BRANCH   3   4
ATOM      4  C   UNL     1       8.902  -4.655  26.514  0.00  0.00    +0.188 C 
BRANCH   4   5
ATOM      5  O   UNL     1       7.941  -5.654  26.855  0.00  0.00    -0.375 OA
BRANCH   5   6
ATOM      6  C   UNL     1       6.730  -5.071  27.334  0.00  0.00    +0.188 C 
BRANCH   6   7
ATOM      7  C   UNL     1       5.850  -4.715  26.141  0.00  0.00    +0.188 C 
BRANCH   7   8
ATOM      8  O   UNL     1       5.723  -5.845  25.277  0.00  0.00    -0.375 OA
BRANCH   8   9
ATOM      9  C   UNL     1       5.995  -5.481  23.917  0.00  0.00    +0.187 C 
BRANCH   9  10
ATOM     10  C   UNL     1       4.833  -5.955  23.051  0.00  0.00    +0.184 C 
BRANCH  10  11
ATOM     11  O   UNL     1       5.238  -6.017  21.684  0.00  0.00    -0.393 OA
ATOM     12  H   UNL     1       5.060  -5.126  21.324  0.00  0.00    +0.209 HD
ENDBRANCH  10  11
ENDBRANCH   9  10
ENDBRANCH   8   9
ENDBRANCH   7   8
ENDBRANCH   6   7
ENDBRANCH   5   6
ENDBRANCH   4   5
ENDBRANCH   3   4
ENDBRANCH   2   3
ENDBRANCH   1   2
BRANCH   1  13
ATOM     13  C   UNL     1       8.436  -2.610  23.015  0.00  0.00    +0.188 C 
BRANCH  13  14
ATOM     14  O   UNL     1       9.651  -2.267  22.341  0.00  0.00    -0.377 OA
BRANCH  14  15
ATOM     15  C   UNL     1       9.556  -0.995  21.709  0.00  0.00    +0.160 C 
BRANCH  15  16
ATOM     16  C   UNL     1      10.012   0.071  22.696  0.00  0.00    +0.028 C 
BRANCH  16  17
ATOM     17  C   UNL     1      10.076   1.439  22.027  0.00  0.00    +0.002 C 
BRANCH  17  18
ATOM     18  C   UNL     1      10.324   2.555  23.040  0.00  0.00    +0.000 C 
BRANCH  18  19
ATOM     19  C   UNL     1       9.533   2.306  24.325  0.00  0.00    -0.000 C 
BRANCH  19  20
ATOM     20  C   UNL     1       8.201   3.052  24.312  0.00  0.00    -0.000 C 
BRANCH  20  22
ATOM     21  C   UNL     1       7.226   4.357  22.394  0.00  0.00    +0.004 C 
ATOM     22  C   UNL     1       8.291   4.328  23.477  0.00  0.00    -0.003 C 
ENDBRANCH  20  22
ENDBRANCH  19  20
ENDBRANCH  18  19
ENDBRANCH  17  18
ENDBRANCH  16  17
ENDBRANCH  15  16
ENDBRANCH  14  15
ENDBRANCH  13  14
ENDBRANCH   1  13
TORSDOF 19
ENDMDL
MODEL 7
REMARK VINA RESULT:      -4.4      2.438      7.725
REMARK  Name = 
REMARK  20 active torsions:
REMARK  status: ('A' for Active; 'I' for Inactive)
REMARK    1  A    between atoms: C_1  and  C_2
REMARK    2  A    between atoms: C_2  and  C_3
REMARK    3  A    between atoms: C_3  and  C_4
REMARK    4  A    between atoms: C_4  and  C_5
REMARK    5  A    between atoms: C_5  and  C_6
REMARK    6  A    between atoms: C_6  and  C_7
REMARK    7  A    between atoms: C_7  and  C_8
REMARK    8  A    between atoms: C_8  and  O_9
REMARK    9  A    between atoms: O_9  and  C_10
REMARK   10  A    between atoms: C_10  and  C_11
REMARK   11  A    between atoms: C_11  and  O_12
REMARK   12  A    between atoms: O_12  and  C_13
REMARK   13  A    between atoms: C_13  and  C_14
REMARK   14  A    between atoms: C_14  and  O_15
REMARK   15  A    between atoms: O_15  and  C_16
REMARK   16  A    between atoms: C_16  and  C_17
REMARK   17  A    between atoms: C_17  and  O_18
REMARK   18  A    between atoms: O_18  and  C_19
REMARK   19  A    between atoms: C_19  and  C_20
REMARK   20  A    between atoms: C_20  and  O_21
REMARK                            x       y       z     vdW  Elec       q    Type
REMARK                         _______ _______ _______ _____ _____    ______ ____
ROOT
ATOM      1  C   UNL     1       9.386  -5.390  25.204  0.00  0.00    +0.188 C 
ENDROOT
BRANCH   1   2
ATOM      2  O   UNL     1       9.925  -4.249  24.532  0.00  0.00    -0.375 OA
BRANCH   2   3
ATOM      3  C   UNL     1       9.092  -3.105  24.684  0.00  0.00    +0.188 C 
BRANCH   3   4
ATOM      4  C   UNL     1       9.012  -2.365  23.355  0.00  0.00    +0.188 C 
BRANCH   4   5
ATOM      5  O   UNL     1       9.177  -0.967  23.589  0.00  0.00    -0.375 OA
BRANCH   5   6
ATOM      6  C   UNL     1       9.934  -0.721  24.772  0.00  0.00    +0.188 C 
BRANCH   6   7
ATOM      7  C   UNL     1      10.577   0.658  24.667  0.00  0.00    +0.188 C 
BRANCH   7   8
ATOM      8  O   UNL     1       9.572   1.669  24.738  0.00  0.00    -0.375 OA
BRANCH   8   9
ATOM      9  C   UNL     1       9.796   2.682  23.748  0.00  0.00    +0.187 C 
BRANCH   9  10
ATOM     10  C   UNL     1       8.978   2.334  22.509  0.00  0.00    +0.184 C 
BRANCH  10  11
ATOM     11  O   UNL     1       9.849   2.057  21.413  0.00  0.00    -0.393 OA
ATOM     12  H   UNL     1      10.374   2.873  21.292  0.00  0.00    +0.209 HD
ENDBRANCH  10  11
ENDBRANCH   9  10
ENDBRANCH   8   9
ENDBRANCH   7   8
ENDBRANCH   6   7
ENDBRANCH   5   6
ENDBRANCH   4   5
ENDBRANCH   3   4
ENDBRANCH   2   3
ENDBRANCH   1   2
BRANCH   1  13
ATOM     13  C   UNL     1       8.612  -4.924  26.435  0.00  0.00    +0.188 C 
BRANCH  13  14
ATOM     14  O   UNL     1       7.518  -5.817  26.672  0.00  0.00    -0.377 OA
BRANCH  14  15
ATOM     15  C   UNL     1       6.662  -5.330  27.699  0.00  0.00    +0.160 C 
BRANCH  15  16
ATOM     16  C   UNL     1       5.769  -4.246  27.112  0.00  0.00    +0.028 C 
BRANCH  16  17
ATOM     17  C   UNL     1       4.779  -4.838  26.116  0.00  0.00    +0.002 C 
BRANCH  17  18
ATOM     18  C   UNL     1       4.790  -4.084  24.788  0.00  0.00    +0.000 C 
BRANCH  18  19
ATOM     19  C   UNL     1       5.815  -4.690  23.829  0.00  0.00    -0.000 C 
BRANCH  19  20
ATOM     20  C   UNL     1       5.723  -4.056  22.443  0.00  0.00    -0.000 C 
BRANCH  20  22
ATOM     21  C   UNL     1       6.889  -6.240  21.992  0.00  0.00    +0.004 C 
ATOM     22  C   UNL     1       6.303  -4.981  21.374  0.00  0.00    -0.003 C 
ENDBRANCH  20  22
ENDBRANCH  19  20
ENDBRANCH  18  19
ENDBRANCH  17  18
ENDBRANCH  16  17
ENDBRANCH  15  16
ENDBRANCH  14  15
ENDBRANCH  13  14
ENDBRANCH   1  13
TORSDOF 19
ENDMDL
MODEL 8
REMARK VINA RESULT:      -4.4      1.628      3.725
REMARK  Name = 
REMARK  20 active torsions:
REMARK  status: ('A' for Active; 'I' for Inactive)
REMARK    1  A    between atoms: C_1  and  C_2
REMARK    2  A    between atoms: C_2  and  C_3
REMARK    3  A    between atoms: C_3  and  C_4
REMARK    4  A    between atoms: C_4  and  C_5
REMARK    5  A    between atoms: C_5  and  C_6
REMARK    6  A    between atoms: C_6  and  C_7
REMARK    7  A    between atoms: C_7  and  C_8
REMARK    8  A    between atoms: C_8  and  O_9
REMARK    9  A    between atoms: O_9  and  C_10
REMARK   10  A    between atoms: C_10  and  C_11
REMARK   11  A    between atoms: C_11  and  O_12
REMARK   12  A    between atoms: O_12  and  C_13
REMARK   13  A    between atoms: C_13  and  C_14
REMARK   14  A    between atoms: C_14  and  O_15
REMARK   15  A    between atoms: O_15  and  C_16
REMARK   16  A    between atoms: C_16  and  C_17
REMARK   17  A    between atoms: C_17  and  O_18
REMARK   18  A    between atoms: O_18  and  C_19
REMARK   19  A    between atoms: C_19  and  C_20
REMARK   20  A    between atoms: C_20  and  O_21
REMARK                            x       y       z     vdW  Elec       q    Type
REMARK                         _______ _______ _______ _____ _____    ______ ____
ROOT
ATOM      1  C   UNL     1       8.914  -2.976  24.262  0.00  0.00    +0.188 C 
ENDROOT
BRANCH   1   2
ATOM      2  O   UNL     1       9.799  -4.096  24.358  0.00  0.00    -0.375 OA
BRANCH   2   3
ATOM      3  C   UNL     1       9.484  -4.922  25.474  0.00  0.00    +0.188 C 
BRANCH   3   4
ATOM      4  C   UNL     1       8.801  -4.077  26.542  0.00  0.00    +0.188 C 
BRANCH   4   5
ATOM      5  O   UNL     1       7.828  -4.874  27.217  0.00  0.00    -0.375 OA
BRANCH   5   6
ATOM      6  C   UNL     1       6.513  -4.618  26.726  0.00  0.00    +0.188 C 
BRANCH   6   7
ATOM      7  C   UNL     1       5.931  -5.916  26.179  0.00  0.00    +0.188 C 
BRANCH   7   8
ATOM      8  O   UNL     1       5.047  -5.633  25.094  0.00  0.00    -0.375 OA
BRANCH   8   9
ATOM      9  C   UNL     1       5.631  -4.682  24.194  0.00  0.00    +0.187 C 
BRANCH   9  10
ATOM     10  C   UNL     1       4.589  -4.305  23.148  0.00  0.00    +0.184 C 
BRANCH  10  11
ATOM     11  O   UNL     1       5.179  -3.472  22.151  0.00  0.00    -0.393 OA
ATOM     12  H   UNL     1       5.002  -3.925  21.303  0.00  0.00    +0.209 HD
ENDBRANCH  10  11
ENDBRANCH   9  10
ENDBRANCH   8   9
ENDBRANCH   7   8
ENDBRANCH   6   7
ENDBRANCH   5   6
ENDBRANCH   4   5
ENDBRANCH   3   4
ENDBRANCH   2   3
ENDBRANCH   1   2
BRANCH   1  13
ATOM     13  C   UNL     1       9.106  -2.304  22.905  0.00  0.00    +0.188 C 
BRANCH  13  14
ATOM     14  O   UNL     1       7.994  -1.440  22.643  0.00  0.00    -0.377 OA
BRANCH  14  15
ATOM     15  C   UNL     1       7.341  -1.052  23.847  0.00  0.00    +0.160 C 
BRANCH  15  16
ATOM     16  C   UNL     1       7.153   0.459  23.831  0.00  0.00    +0.028 C 
BRANCH  16  17
ATOM     17  C   UNL     1       6.977   0.969  22.405  0.00  0.00    +0.002 C 
BRANCH  17  18
ATOM     18  C   UNL     1       7.980   2.070  22.069  0.00  0.00    +0.000 C 
BRANCH  18  19
ATOM     19  C   UNL     1       9.383   1.490  21.893  0.00  0.00    -0.000 C 
BRANCH  19  20
ATOM     20  C   UNL     1      10.425   2.310  22.651  0.00  0.00    -0.000 C 
BRANCH  20  22
ATOM     21  C   UNL     1      10.849   0.539  24.387  0.00  0.00    +0.004 C 
ATOM     22  C   UNL     1      10.413   1.973  24.142  0.00  0.00    -0.003 C 
ENDBRANCH  20  22
ENDBRANCH  19  20
ENDBRANCH  18  19
ENDBRANCH  17  18
ENDBRANCH  16  17
ENDBRANCH  15  16
ENDBRANCH  14  15
ENDBRANCH  13  14
ENDBRANCH   1  13
TORSDOF 19
ENDMDL
MODEL 9
REMARK VINA RESULT:      -4.3      1.805      3.353
REMARK  Name = 
REMARK  20 active torsions:
REMARK  status: ('A' for Active; 'I' for Inactive)
REMARK    1  A    between atoms: C_1  and  C_2
REMARK    2  A    between atoms: C_2  and  C_3
REMARK    3  A    between atoms: C_3  and  C_4
REMARK    4  A    between atoms: C_4  and  C_5
REMARK    5  A    between atoms: C_5  and  C_6
REMARK    6  A    between atoms: C_6  and  C_7
REMARK    7  A    between atoms: C_7  and  C_8
REMARK    8  A    between atoms: C_8  and  O_9
REMARK    9  A    between atoms: O_9  and  C_10
REMARK   10  A    between atoms: C_10  and  C_11
REMARK   11  A    between atoms: C_11  and  O_12
REMARK   12  A    between atoms: O_12  and  C_13
REMARK   13  A    between atoms: C_13  and  C_14
REMARK   14  A    between atoms: C_14  and  O_15
REMARK   15  A    between atoms: O_15  and  C_16
REMARK   16  A    between atoms: C_16  and  C_17
REMARK   17  A    between atoms: C_17  and  O_18
REMARK   18  A    between atoms: O_18  and  C_19
REMARK   19  A    between atoms: C_19  and  C_20
REMARK   20  A    between atoms: C_20  and  O_21
REMARK                            x       y       z     vdW  Elec       q    Type
REMARK                         _______ _______ _______ _____ _____    ______ ____
ROOT
ATOM      1  C   UNL     1       8.273  -3.156  26.102  0.00  0.00    +0.188 C 
ENDROOT
BRANCH   1   2
ATOM      2  O   UNL     1       7.771  -4.489  25.972  0.00  0.00    -0.375 OA
BRANCH   2   3
ATOM      3  C   UNL     1       6.531  -4.654  26.653  0.00  0.00    +0.188 C 
BRANCH   3   4
ATOM      4  C   UNL     1       5.835  -5.902  26.126  0.00  0.00    +0.188 C 
BRANCH   4   5
ATOM      5  O   UNL     1       5.354  -5.647  24.807  0.00  0.00    -0.375 OA
BRANCH   5   6
ATOM      6  C   UNL     1       4.400  -4.585  24.797  0.00  0.00    +0.188 C 
BRANCH   6   7
ATOM      7  C   UNL     1       4.702  -3.666  23.618  0.00  0.00    +0.188 C 
BRANCH   7   8
ATOM      8  O   UNL     1       4.926  -4.443  22.441  0.00  0.00    -0.375 OA
BRANCH   8   9
ATOM      9  C   UNL     1       6.144  -4.051  21.795  0.00  0.00    +0.187 C 
BRANCH   9  10
ATOM     10  C   UNL     1       7.089  -5.247  21.785  0.00  0.00    +0.184 C 
BRANCH  10  11
ATOM     11  O   UNL     1       7.720  -5.379  23.058  0.00  0.00    -0.393 OA
ATOM     12  H   UNL     1       8.314  -4.606  23.131  0.00  0.00    +0.209 HD
ENDBRANCH  10  11
ENDBRANCH   9  10
ENDBRANCH   8   9
ENDBRANCH   7   8
ENDBRANCH   6   7
ENDBRANCH   5   6
ENDBRANCH   4   5
ENDBRANCH   3   4
ENDBRANCH   2   3
ENDBRANCH   1   2
BRANCH   1  13
ATOM     13  C   UNL     1       8.258  -2.482  24.732  0.00  0.00    +0.188 C 
BRANCH  13  14
ATOM     14  O   UNL     1       9.364  -2.960  23.959  0.00  0.00    -0.377 OA
BRANCH  14  15
ATOM     15  C   UNL     1       9.940  -1.919  23.176  0.00  0.00    +0.160 C 
BRANCH  15  16
ATOM     16  C   UNL     1       9.045  -1.667  21.971  0.00  0.00    +0.028 C 
BRANCH  16  17
ATOM     17  C   UNL     1       9.280  -0.273  21.401  0.00  0.00    +0.002 C 
BRANCH  17  18
ATOM     18  C   UNL     1      10.195   0.559  22.298  0.00  0.00    +0.000 C 
BRANCH  18  19
ATOM     19  C   UNL     1       9.778   2.030  22.280  0.00  0.00    -0.000 C 
BRANCH  19  20
ATOM     20  C   UNL     1       8.423   2.234  22.954  0.00  0.00    -0.000 C 
BRANCH  20  22
ATOM     21  C   UNL     1       6.161   3.065  22.233  0.00  0.00    +0.004 C 
ATOM     22  C   UNL     1       7.647   3.374  22.297  0.00  0.00    -0.003 C 
ENDBRANCH  20  22
ENDBRANCH  19  20
ENDBRANCH  18  19
ENDBRANCH  17  18
ENDBRANCH  16  17
ENDBRANCH  15  16
ENDBRANCH  14  15
ENDBRANCH  13  14
ENDBRANCH   1  13
TORSDOF 19
ENDMDL
