MODEL 1
REMARK VINA RESULT:      -4.0      0.000      0.000
REMARK  Name = 
REMARK  4 active torsions:
REMARK  status: ('A' for Active; 'I' for Inactive)
REMARK    1  A    between atoms: N_1  and  CA_2
REMARK    2  A    between atoms: CA_2  and  C_4
REMARK    3  A    between atoms: CA_2  and  C_7
REMARK    4  A    between atoms: C_4  and  O_5
REMARK                            x       y       z     vdW  Elec       q    Type
REMARK                         _______ _______ _______ _____ _____    ______ ____
ROOT
ATOM      1  CA  UNL     1       9.030  -4.659  25.303  0.00  0.00    +0.265 C 
ENDROOT
BRANCH   1   2
ATOM      2  C   UNL     1       8.067  -4.799  24.111  0.00  0.00    +0.415 C 
ATOM      3  F   UNL     1       8.138  -3.688  23.335  0.00  0.00    -0.168 F 
ATOM      4  F   UNL     1       6.775  -4.918  24.484  0.00  0.00    -0.168 F 
ATOM      5  F   UNL     1       8.356  -5.861  23.328  0.00  0.00    -0.168 F 
ENDBRANCH   1   2
BRANCH   1   6
ATOM      6  N   UNL     1      10.208  -5.594  25.330  0.00  0.00    -0.311 NA
ATOM      7  H1  UNL     1       9.940  -6.428  25.860  0.00  0.00    +0.119 HD
ATOM      8  H2  UNL     1      10.346  -5.950  24.377  0.00  0.00    +0.119 HD
ENDBRANCH   1   6
BRANCH   1   9
ATOM      9  C   UNL     1       8.227  -4.807  26.585  0.00  0.00    +0.331 C 
ATOM     10  OXT UNL     1       7.664  -3.869  27.139  0.00  0.00    -0.249 OA
BRANCH   9  11
ATOM     11  O   UNL     1       8.091  -6.073  27.042  0.00  0.00    -0.479 OA
ATOM     12  H   UNL     1       8.690  -6.362  27.758  0.00  0.00    +0.295 HD
ENDBRANCH   9  11
ENDBRANCH   1   9
TORSDOF 4
ENDMDL
MODEL 2
REMARK VINA RESULT:      -4.0      6.288      6.890
REMARK  Name = 
REMARK  4 active torsions:
REMARK  status: ('A' for Active; 'I' for Inactive)
REMARK    1  A    between atoms: N_1  and  CA_2
REMARK    2  A    between atoms: CA_2  and  C_4
REMARK    3  A    between atoms: CA_2  and  C_7
REMARK    4  A    between atoms: C_4  and  O_5
REMARK                            x       y       z     vdW  Elec       q    Type
REMARK                         _______ _______ _______ _____ _____    ______ ____
ROOT
ATOM      1  CA  UNL     1      10.100   0.888  22.194  0.00  0.00    +0.265 C 
ENDROOT
BRANCH   1   2
ATOM      2  C   UNL     1      10.324   1.148  23.694  0.00  0.00    +0.415 C 
ATOM      3  F   UNL     1      10.808   0.025  24.284  0.00  0.00    -0.168 F 
ATOM      4  F   UNL     1       9.187   1.462  24.354  0.00  0.00    -0.168 F 
ATOM      5  F   UNL     1      11.208   2.142  23.926  0.00  0.00    -0.168 F 
ENDBRANCH   1   2
BRANCH   1   6
ATOM      6  N   UNL     1       9.309   1.924  21.442  0.00  0.00    -0.311 NA
ATOM      7  H1  UNL     1       8.501   2.185  22.015  0.00  0.00    +0.119 HD
ATOM      8  H2  UNL     1       9.870   2.784  21.414  0.00  0.00    +0.119 HD
ENDBRANCH   1   6
BRANCH   1   9
ATOM      9  C   UNL     1       9.442  -0.473  22.038  0.00  0.00    +0.331 C 
ATOM     10  OXT UNL     1       8.267  -0.688  22.316  0.00  0.00    -0.249 OA
BRANCH   9  11
ATOM     11  O   UNL     1      10.216  -1.431  21.480  0.00  0.00    -0.479 OA
ATOM     12  H   UNL     1      11.171  -1.244  21.391  0.00  0.00    +0.295 HD
ENDBRANCH   9  11
ENDBRANCH   1   9
TORSDOF 4
ENDMDL
MODEL 3
REMARK VINA RESULT:      -3.8      6.599      7.294
REMARK  Name = 
REMARK  4 active torsions:
REMARK  status: ('A' for Active; 'I' for Inactive)
REMARK    1  A    between atoms: N_1  and  CA_2
REMARK    2  A    between atoms: CA_2  and  C_4
REMARK    3  A    between atoms: CA_2  and  C_7
REMARK    4  A    between atoms: C_4  and  O_5
REMARK                            x       y       z     vdW  Elec       q    Type
REMARK                         _______ _______ _______ _____ _____    ______ ____
ROOT
ATOM      1  CA  UNL     1      10.052   1.899  24.002  0.00  0.00    +0.265 C 
ENDROOT
BRANCH   1   2
ATOM      2  C   UNL     1      10.779   0.591  24.362  0.00  0.00    +0.415 C 
ATOM      3  F   UNL     1      12.074   0.858  24.670  0.00  0.00    -0.168 F 
ATOM      4  F   UNL     1      10.807  -0.298  23.346  0.00  0.00    -0.168 F 
ATOM      5  F   UNL     1      10.230  -0.036  25.426  0.00  0.00    -0.168 F 
ENDBRANCH   1   2
BRANCH   1   6
ATOM      6  N   UNL     1       8.990   2.365  24.959  0.00  0.00    -0.311 NA
ATOM      7  H1  UNL     1       8.141   1.821  24.782  0.00  0.00    +0.119 HD
ATOM      8  H2  UNL     1       9.270   2.071  25.903  0.00  0.00    +0.119 HD
ENDBRANCH   1   6
BRANCH   1   9
ATOM      9  C   UNL     1       9.459   1.747  22.610  0.00  0.00    +0.331 C 
ATOM     10  OXT UNL     1       8.344   1.281  22.401  0.00  0.00    -0.249 OA
BRANCH   9  11
ATOM     11  O   UNL     1      10.208   2.247  21.602  0.00  0.00    -0.479 OA
ATOM     12  H   UNL     1      11.173   2.092  21.636  0.00  0.00    +0.295 HD
ENDBRANCH   9  11
ENDBRANCH   1   9
TORSDOF 4
ENDMDL
MODEL 4
REMARK VINA RESULT:      -3.8      5.294      5.867
REMARK  Name = 
REMARK  4 active torsions:
REMARK  status: ('A' for Active; 'I' for Inactive)
REMARK    1  A    between atoms: N_1  and  CA_2
REMARK    2  A    between atoms: CA_2  and  C_4
REMARK    3  A    between atoms: CA_2  and  C_7
REMARK    4  A    between atoms: C_4  and  O_5
REMARK                            x       y       z     vdW  Elec       q    Type
REMARK                         _______ _______ _______ _____ _____    ______ ____
ROOT
ATOM      1  CA  UNL     1      10.470  -0.318  22.920  0.00  0.00    +0.265 C 
ENDROOT
BRANCH   1   2
ATOM      2  C   UNL     1       9.653   0.677  22.077  0.00  0.00    +0.415 C 
ATOM      3  F   UNL     1      10.411   1.769  21.799  0.00  0.00    -0.168 F 
ATOM      4  F   UNL     1       8.553   1.133  22.713  0.00  0.00    -0.168 F 
ATOM      5  F   UNL     1       9.247   0.154  20.900  0.00  0.00    -0.168 F 
ENDBRANCH   1   2
BRANCH   1   6
ATOM      6  N   UNL     1      10.474  -1.749  22.456  0.00  0.00    -0.311 NA
ATOM      7  H1  UNL     1      11.153  -1.834  21.694  0.00  0.00    +0.119 HD
ATOM      8  H2  UNL     1      10.883  -2.319  23.206  0.00  0.00    +0.119 HD
ENDBRANCH   1   6
BRANCH   1   9
ATOM      9  C   UNL     1       9.977  -0.245  24.356  0.00  0.00    +0.331 C 
ATOM     10  OXT UNL     1       9.187  -1.049  24.838  0.00  0.00    -0.249 OA
BRANCH   9  11
ATOM     11  O   UNL     1      10.540   0.724  25.114  0.00  0.00    -0.479 OA
ATOM     12  H   UNL     1       9.980   1.484  25.364  0.00  0.00    +0.295 HD
ENDBRANCH   9  11
ENDBRANCH   1   9
TORSDOF 4
ENDMDL
MODEL 5
REMARK VINA RESULT:      -3.8      6.253      6.916
REMARK  Name = 
REMARK  4 active torsions:
REMARK  status: ('A' for Active; 'I' for Inactive)
REMARK    1  A    between atoms: N_1  and  CA_2
REMARK    2  A    between atoms: CA_2  and  C_4
REMARK    3  A    between atoms: CA_2  and  C_7
REMARK    4  A    between atoms: C_4  and  O_5
REMARK                            x       y       z     vdW  Elec       q    Type
REMARK                         _______ _______ _______ _____ _____    ______ ____
ROOT
ATOM      1  CA  UNL     1       9.101   0.079  22.330  0.00  0.00    +0.265 C 
ENDROOT
BRANCH   1   2
ATOM      2  C   UNL     1       9.744   0.209  23.722  0.00  0.00    +0.415 C 
ATOM      3  F   UNL     1       9.370  -0.840  24.498  0.00  0.00    -0.168 F 
ATOM      4  F   UNL     1       9.361   1.323  24.382  0.00  0.00    -0.168 F 
ATOM      5  F   UNL     1      11.094   0.217  23.675  0.00  0.00    -0.168 F 
ENDBRANCH   1   2
BRANCH   1   6
ATOM      6  N   UNL     1       9.809  -0.806  21.341  0.00  0.00    -0.311 NA
ATOM      7  H1  UNL     1       9.101  -1.296  20.788  0.00  0.00    +0.119 HD
ATOM      8  H2  UNL     1      10.271  -0.198  20.654  0.00  0.00    +0.119 HD
ENDBRANCH   1   6
BRANCH   1   9
ATOM      9  C   UNL     1       8.937   1.473  21.748  0.00  0.00    +0.331 C 
ATOM     10  OXT UNL     1       7.847   2.013  21.589  0.00  0.00    -0.249 OA
BRANCH   9  11
ATOM     11  O   UNL     1      10.089   2.134  21.493  0.00  0.00    -0.479 OA
ATOM     12  H   UNL     1      10.860   1.606  21.209  0.00  0.00    +0.295 HD
ENDBRANCH   9  11
ENDBRANCH   1   9
TORSDOF 4
ENDMDL
MODEL 6
REMARK VINA RESULT:      -3.8      5.861      6.549
REMARK  Name = 
REMARK  4 active torsions:
REMARK  status: ('A' for Active; 'I' for Inactive)
REMARK    1  A    between atoms: N_1  and  CA_2
REMARK    2  A    between atoms: CA_2  and  C_4
REMARK    3  A    between atoms: CA_2  and  C_7
REMARK    4  A    between atoms: C_4  and  O_5
REMARK                            x       y       z     vdW  Elec       q    Type
REMARK                         _______ _______ _______ _____ _____    ______ ____
ROOT
ATOM      1  CA  UNL     1       9.386   0.128  22.948  0.00  0.00    +0.265 C 
ENDROOT
BRANCH   1   2
ATOM      2  C   UNL     1       9.284   1.259  21.910  0.00  0.00    +0.415 C 
ATOM      3  F   UNL     1       8.878   0.749  20.719  0.00  0.00    -0.168 F 
ATOM      4  F   UNL     1      10.464   1.873  21.675  0.00  0.00    -0.168 F 
ATOM      5  F   UNL     1       8.399   2.216  22.265  0.00  0.00    -0.168 F 
ENDBRANCH   1   2
BRANCH   1   6
ATOM      6  N   UNL     1      10.598   0.141  23.841  0.00  0.00    -0.311 NA
ATOM      7  H1  UNL     1      11.420   0.319  23.257  0.00  0.00    +0.119 HD
ATOM      8  H2  UNL     1      10.539   0.978  24.433  0.00  0.00    +0.119 HD
ENDBRANCH   1   6
BRANCH   1   9
ATOM      9  C   UNL     1       9.302  -1.202  22.216  0.00  0.00    +0.331 C 
ATOM     10  OXT UNL     1       8.261  -1.836  22.090  0.00  0.00    -0.249 OA
BRANCH   9  11
ATOM     11  O   UNL     1      10.446  -1.609  21.620  0.00  0.00    -0.479 OA
ATOM     12  H   UNL     1      11.012  -2.236  22.111  0.00  0.00    +0.295 HD
ENDBRANCH   9  11
ENDBRANCH   1   9
TORSDOF 4
ENDMDL
MODEL 7
REMARK VINA RESULT:      -3.7      1.400      1.918
REMARK  Name = 
REMARK  4 active torsions:
REMARK  status: ('A' for Active; 'I' for Inactive)
REMARK    1  A    between atoms: N_1  and  CA_2
REMARK    2  A    between atoms: CA_2  and  C_4
REMARK    3  A    between atoms: CA_2  and  C_7
REMARK    4  A    between atoms: C_4  and  O_5
REMARK                            x       y       z     vdW  Elec       q    Type
REMARK                         _______ _______ _______ _____ _____    ______ ____
ROOT
ATOM      1  CA  UNL     1       8.717  -3.904  24.809  0.00  0.00    +0.265 C 
ENDROOT
BRANCH   1   2
ATOM      2  C   UNL     1       7.714  -4.699  23.954  0.00  0.00    +0.415 C 
ATOM      3  F   UNL     1       6.768  -5.251  24.757  0.00  0.00    -0.168 F 
ATOM      4  F   UNL     1       8.284  -5.723  23.282  0.00  0.00    -0.168 F 
ATOM      5  F   UNL     1       7.076  -3.930  23.046  0.00  0.00    -0.168 F 
ENDBRANCH   1   2
BRANCH   1   6
ATOM      6  N   UNL     1       9.926  -3.362  24.097  0.00  0.00    -0.311 NA
ATOM      7  H1  UNL     1       9.968  -2.353  24.265  0.00  0.00    +0.119 HD
ATOM      8  H2  UNL     1      10.759  -3.721  24.579  0.00  0.00    +0.119 HD
ENDBRANCH   1   6
BRANCH   1   9
ATOM      9  C   UNL     1       9.155  -4.782  25.970  0.00  0.00    +0.331 C 
ATOM     10  OXT UNL     1       8.586  -4.795  27.056  0.00  0.00    -0.249 OA
BRANCH   9  11
ATOM     11  O   UNL     1      10.173  -5.631  25.704  0.00  0.00    -0.479 OA
ATOM     12  H   UNL     1      10.549  -6.135  26.452  0.00  0.00    +0.295 HD
ENDBRANCH   9  11
ENDBRANCH   1   9
TORSDOF 4
ENDMDL
MODEL 8
REMARK VINA RESULT:      -3.7      5.363      5.994
REMARK  Name = 
REMARK  4 active torsions:
REMARK  status: ('A' for Active; 'I' for Inactive)
REMARK    1  A    between atoms: N_1  and  CA_2
REMARK    2  A    between atoms: CA_2  and  C_4
REMARK    3  A    between atoms: CA_2  and  C_7
REMARK    4  A    between atoms: C_4  and  O_5
REMARK                            x       y       z     vdW  Elec       q    Type
REMARK                         _______ _______ _______ _____ _____    ______ ____
ROOT
ATOM      1  CA  UNL     1       9.179  -0.464  23.328  0.00  0.00    +0.265 C 
ENDROOT
BRANCH   1   2
ATOM      2  C   UNL     1      10.122   0.746  23.452  0.00  0.00    +0.415 C 
ATOM      3  F   UNL     1      11.306   0.348  23.985  0.00  0.00    -0.168 F 
ATOM      4  F   UNL     1       9.645   1.709  24.269  0.00  0.00    -0.168 F 
ATOM      5  F   UNL     1      10.387   1.326  22.261  0.00  0.00    -0.168 F 
ENDBRANCH   1   2
BRANCH   1   6
ATOM      6  N   UNL     1       8.429  -0.863  24.570  0.00  0.00    -0.311 NA
ATOM      7  H1  UNL     1       7.876  -0.059  24.879  0.00  0.00    +0.119 HD
ATOM      8  H2  UNL     1       7.719  -1.553  24.296  0.00  0.00    +0.119 HD
ENDBRANCH   1   6
BRANCH   1   9
ATOM      9  C   UNL     1       9.984  -1.645  22.811  0.00  0.00    +0.331 C 
ATOM     10  OXT UNL     1      10.284  -2.611  23.505  0.00  0.00    -0.249 OA
BRANCH   9  11
ATOM     11  O   UNL     1      10.278  -1.614  21.492  0.00  0.00    -0.479 OA
ATOM     12  H   UNL     1      10.819  -2.345  21.132  0.00  0.00    +0.295 HD
ENDBRANCH   9  11
ENDBRANCH   1   9
TORSDOF 4
ENDMDL
MODEL 9
REMARK VINA RESULT:      -3.7      6.057      6.716
REMARK  Name = 
REMARK  4 active torsions:
REMARK  status: ('A' for Active; 'I' for Inactive)
REMARK    1  A    between atoms: N_1  and  CA_2
REMARK    2  A    between atoms: CA_2  and  C_4
REMARK    3  A    between atoms: CA_2  and  C_7
REMARK    4  A    between atoms: C_4  and  O_5
REMARK                            x       y       z     vdW  Elec       q    Type
REMARK                         _______ _______ _______ _____ _____    ______ ____
ROOT
ATOM      1  CA  UNL     1       9.331   1.298  22.678  0.00  0.00    +0.265 C 
ENDROOT
BRANCH   1   2
ATOM      2  C   UNL     1       9.663  -0.190  22.469  0.00  0.00    +0.415 C 
ATOM      3  F   UNL     1       8.711  -0.957  23.060  0.00  0.00    -0.168 F 
ATOM      4  F   UNL     1      10.840  -0.554  23.024  0.00  0.00    -0.168 F 
ATOM      5  F   UNL     1       9.712  -0.536  21.164  0.00  0.00    -0.168 F 
ENDBRANCH   1   2
BRANCH   1   6
ATOM      6  N   UNL     1       9.573   2.213  21.509  0.00  0.00    -0.311 NA
ATOM      7  H1  UNL     1       8.686   2.336  21.013  0.00  0.00    +0.119 HD
ATOM      8  H2  UNL     1       9.771   3.150  21.881  0.00  0.00    +0.119 HD
ENDBRANCH   1   6
BRANCH   1   9
ATOM      9  C   UNL     1      10.106   1.795  23.888  0.00  0.00    +0.331 C 
ATOM     10  OXT UNL     1      11.071   2.547  23.807  0.00  0.00    -0.249 OA
BRANCH   9  11
ATOM     11  O   UNL     1       9.606   1.425  25.089  0.00  0.00    -0.479 OA
ATOM     12  H   UNL     1      10.240   1.297  25.822  0.00  0.00    +0.295 HD
ENDBRANCH   9  11
ENDBRANCH   1   9
TORSDOF 4
ENDMDL
