MODEL 1
REMARK VINA RESULT:      -6.4      0.000      0.000
REMARK  Name = 
REMARK  6 active torsions:
REMARK  status: ('A' for Active; 'I' for Inactive)
REMARK    1  A    between atoms: O_1  and  C_2
REMARK    2  A    between atoms: C_2  and  C_4
REMARK    3  A    between atoms: C_4  and  O_5
REMARK    4  A    between atoms: C_6  and  C_8
REMARK    5  A    between atoms: C_9  and  C_10
REMARK    6  A    between atoms: C_10  and  C_12
REMARK                            x       y       z     vdW  Elec       q    Type
REMARK                         _______ _______ _______ _____ _____    ______ ____
ROOT
ATOM      1  C   UNL     1       7.683  -4.849  23.726  0.00  0.00    +0.046 C 
ATOM      2  C   UNL     1       7.881  -3.523  23.805  0.00  0.00    +0.054 C 
ENDROOT
BRANCH   1   4
ATOM      3  C   UNL     1       5.541  -5.605  22.655  0.00  0.00    +0.238 C 
ATOM      4  C   UNL     1       6.369  -5.453  23.704  0.00  0.00    +0.172 C 
ATOM      5  F   UNL     1       5.926  -5.909  24.904  0.00  0.00    -0.201 F 
BRANCH   3   6
ATOM      6  C   UNL     1       5.897  -5.201  21.262  0.00  0.00    +0.375 C 
ATOM      7  O   UNL     1       6.293  -5.931  20.375  0.00  0.00    -0.242 OA
BRANCH   6   8
ATOM      8  O   UNL     1       5.616  -3.887  21.083  0.00  0.00    -0.475 OA
ATOM      9  H   UNL     1       6.419  -3.356  20.901  0.00  0.00    +0.296 HD
ENDBRANCH   6   8
ENDBRANCH   3   6
BRANCH   3  10
ATOM     10  O   UNL     1       4.283  -6.181  22.839  0.00  0.00    -0.499 OA
ATOM     11  H   UNL     1       4.260  -6.515  23.758  0.00  0.00    +0.292 HD
ENDBRANCH   3  10
ENDBRANCH   1   4
BRANCH   2  12
ATOM     12  C   UNL     1       9.278  -3.009  23.842  0.00  0.00    +0.186 C 
ATOM     13  O   UNL     1      10.194  -3.667  24.327  0.00  0.00    -0.287 OA
BRANCH  12  14
ATOM     14  C   UNL     1       9.549  -1.636  23.335  0.00  0.00    +0.022 A 
ATOM     15  C   UNL     1      10.119  -0.624  24.120  0.00  0.00    +0.014 A 
ATOM     16  C   UNL     1      10.377   0.631  23.559  0.00  0.00    +0.039 A 
ATOM     17  C   UNL     1      10.058   0.871  22.225  0.00  0.00    +0.123 A 
ATOM     18  F   UNL     1      10.318   2.070  21.691  0.00  0.00    -0.205 F 
ATOM     19  C   UNL     1       9.471  -0.115  21.441  0.00  0.00    +0.039 A 
ATOM     20  C   UNL     1       9.212  -1.367  21.999  0.00  0.00    +0.014 A 
ENDBRANCH  12  14
ENDBRANCH   2  12
TORSDOF 6
ENDMDL
MODEL 2
REMARK VINA RESULT:      -6.4      5.466      9.252
REMARK  Name = 
REMARK  6 active torsions:
REMARK  status: ('A' for Active; 'I' for Inactive)
REMARK    1  A    between atoms: O_1  and  C_2
REMARK    2  A    between atoms: C_2  and  C_4
REMARK    3  A    between atoms: C_4  and  O_5
REMARK    4  A    between atoms: C_6  and  C_8
REMARK    5  A    between atoms: C_9  and  C_10
REMARK    6  A    between atoms: C_10  and  C_12
REMARK                            x       y       z     vdW  Elec       q    Type
REMARK                         _______ _______ _______ _____ _____    ______ ____
ROOT
ATOM      1  C   UNL     1      10.389   4.448  23.308  0.00  0.00    +0.046 C 
ATOM      2  C   UNL     1       9.735   3.426  23.881  0.00  0.00    +0.054 C 
ENDROOT
BRANCH   1   4
ATOM      3  C   UNL     1      12.350   5.904  23.889  0.00  0.00    +0.238 C 
ATOM      4  C   UNL     1      11.093   5.462  24.063  0.00  0.00    +0.172 C 
ATOM      5  F   UNL     1      10.383   6.016  25.079  0.00  0.00    -0.201 F 
BRANCH   3   6
ATOM      6  C   UNL     1      13.243   5.432  22.790  0.00  0.00    +0.375 C 
ATOM      7  O   UNL     1      13.038   5.531  21.596  0.00  0.00    -0.242 OA
BRANCH   6   8
ATOM      8  O   UNL     1      14.397   4.951  23.315  0.00  0.00    -0.475 OA
ATOM      9  H   UNL     1      14.841   5.602  23.897  0.00  0.00    +0.296 HD
ENDBRANCH   6   8
ENDBRANCH   3   6
BRANCH   3  10
ATOM     10  O   UNL     1      12.874   6.868  24.752  0.00  0.00    -0.499 OA
ATOM     11  H   UNL     1      12.455   7.718  24.510  0.00  0.00    +0.292 HD
ENDBRANCH   3  10
ENDBRANCH   1   4
BRANCH   2  12
ATOM     12  C   UNL     1       9.025   2.450  23.008  0.00  0.00    +0.186 C 
ATOM     13  O   UNL     1       8.141   2.804  22.233  0.00  0.00    -0.287 OA
BRANCH  12  14
ATOM     14  C   UNL     1       9.358   1.004  23.132  0.00  0.00    +0.022 A 
ATOM     15  C   UNL     1       9.763   0.212  22.050  0.00  0.00    +0.014 A 
ATOM     16  C   UNL     1      10.094  -1.132  22.255  0.00  0.00    +0.039 A 
ATOM     17  C   UNL     1      10.013  -1.676  23.534  0.00  0.00    +0.123 A 
ATOM     18  F   UNL     1      10.342  -2.959  23.726  0.00  0.00    -0.205 F 
ATOM     19  C   UNL     1       9.591  -0.909  24.613  0.00  0.00    +0.039 A 
ATOM     20  C   UNL     1       9.258   0.431  24.410  0.00  0.00    +0.014 A 
ENDBRANCH  12  14
ENDBRANCH   2  12
TORSDOF 6
ENDMDL
MODEL 3
REMARK VINA RESULT:      -6.3      1.610      2.164
REMARK  Name = 
REMARK  6 active torsions:
REMARK  status: ('A' for Active; 'I' for Inactive)
REMARK    1  A    between atoms: O_1  and  C_2
REMARK    2  A    between atoms: C_2  and  C_4
REMARK    3  A    between atoms: C_4  and  O_5
REMARK    4  A    between atoms: C_6  and  C_8
REMARK    5  A    between atoms: C_9  and  C_10
REMARK    6  A    between atoms: C_10  and  C_12
REMARK                            x       y       z     vdW  Elec       q    Type
REMARK                         _______ _______ _______ _____ _____    ______ ____
ROOT
ATOM      1  C   UNL     1       7.476  -2.825  22.538  0.00  0.00    +0.046 C 
ATOM      2  C   UNL     1       8.226  -2.304  23.521  0.00  0.00    +0.054 C 
ENDROOT
BRANCH   1   4
ATOM      3  C   UNL     1       5.596  -4.475  22.326  0.00  0.00    +0.238 C 
ATOM      4  C   UNL     1       6.130  -3.314  22.742  0.00  0.00    +0.172 C 
ATOM      5  F   UNL     1       5.314  -2.477  23.433  0.00  0.00    -0.201 F 
BRANCH   3   6
ATOM      6  C   UNL     1       6.372  -5.523  21.597  0.00  0.00    +0.375 C 
ATOM      7  O   UNL     1       7.180  -6.292  22.079  0.00  0.00    -0.242 OA
BRANCH   6   8
ATOM      8  O   UNL     1       5.969  -5.571  20.304  0.00  0.00    -0.475 OA
ATOM      9  H   UNL     1       5.541  -4.738  20.015  0.00  0.00    +0.296 HD
ENDBRANCH   6   8
ENDBRANCH   3   6
BRANCH   3  10
ATOM     10  O   UNL     1       4.253  -4.757  22.586  0.00  0.00    -0.499 OA
ATOM     11  H   UNL     1       3.816  -4.857  21.717  0.00  0.00    +0.292 HD
ENDBRANCH   3  10
ENDBRANCH   1   4
BRANCH   2  12
ATOM     12  C   UNL     1       9.609  -1.850  23.205  0.00  0.00    +0.186 C 
ATOM     13  O   UNL     1      10.529  -2.648  23.052  0.00  0.00    -0.287 OA
BRANCH  12  14
ATOM     14  C   UNL     1       9.885  -0.389  23.139  0.00  0.00    +0.022 A 
ATOM     15  C   UNL     1       9.758   0.366  21.965  0.00  0.00    +0.014 A 
ATOM     16  C   UNL     1      10.000   1.744  21.993  0.00  0.00    +0.039 A 
ATOM     17  C   UNL     1      10.372   2.356  23.186  0.00  0.00    +0.123 A 
ATOM     18  F   UNL     1      10.591   3.676  23.209  0.00  0.00    -0.205 F 
ATOM     19  C   UNL     1      10.524   1.617  24.354  0.00  0.00    +0.039 A 
ATOM     20  C   UNL     1      10.285   0.243  24.327  0.00  0.00    +0.014 A 
ENDBRANCH  12  14
ENDBRANCH   2  12
TORSDOF 6
ENDMDL
MODEL 4
REMARK VINA RESULT:      -6.3      2.644      3.332
REMARK  Name = 
REMARK  6 active torsions:
REMARK  status: ('A' for Active; 'I' for Inactive)
REMARK    1  A    between atoms: O_1  and  C_2
REMARK    2  A    between atoms: C_2  and  C_4
REMARK    3  A    between atoms: C_4  and  O_5
REMARK    4  A    between atoms: C_6  and  C_8
REMARK    5  A    between atoms: C_9  and  C_10
REMARK    6  A    between atoms: C_10  and  C_12
REMARK                            x       y       z     vdW  Elec       q    Type
REMARK                         _______ _______ _______ _____ _____    ______ ____
ROOT
ATOM      1  C   UNL     1       8.910  -3.649  24.211  0.00  0.00    +0.046 C 
ATOM      2  C   UNL     1       9.849  -2.711  24.006  0.00  0.00    +0.054 C 
ENDROOT
BRANCH   1   4
ATOM      3  C   UNL     1       7.953  -5.095  26.026  0.00  0.00    +0.238 C 
ATOM      4  C   UNL     1       8.969  -4.605  25.295  0.00  0.00    +0.172 C 
ATOM      5  F   UNL     1      10.216  -5.043  25.607  0.00  0.00    -0.201 F 
BRANCH   3   6
ATOM      6  C   UNL     1       6.522  -4.751  25.779  0.00  0.00    +0.375 C 
ATOM      7  O   UNL     1       5.923  -3.785  26.211  0.00  0.00    -0.242 OA
BRANCH   6   8
ATOM      8  O   UNL     1       5.987  -5.632  24.899  0.00  0.00    -0.475 OA
ATOM      9  H   UNL     1       5.215  -5.261  24.422  0.00  0.00    +0.296 HD
ENDBRANCH   6   8
ENDBRANCH   3   6
BRANCH   3  10
ATOM     10  O   UNL     1       8.213  -5.987  27.068  0.00  0.00    -0.499 OA
ATOM     11  H   UNL     1       9.150  -5.860  27.318  0.00  0.00    +0.292 HD
ENDBRANCH   3  10
ENDBRANCH   1   4
BRANCH   2  12
ATOM     12  C   UNL     1       9.700  -1.789  22.845  0.00  0.00    +0.186 C 
ATOM     13  O   UNL     1       9.427  -2.206  21.724  0.00  0.00    -0.287 OA
BRANCH  12  14
ATOM     14  C   UNL     1       9.954  -0.337  23.047  0.00  0.00    +0.022 A 
ATOM     15  C   UNL     1      10.357   0.211  24.273  0.00  0.00    +0.014 A 
ATOM     16  C   UNL     1      10.613   1.583  24.372  0.00  0.00    +0.039 A 
ATOM     17  C   UNL     1      10.458   2.398  23.254  0.00  0.00    +0.123 A 
ATOM     18  F   UNL     1      10.715   3.707  23.353  0.00  0.00    -0.205 F 
ATOM     19  C   UNL     1      10.037   1.873  22.038  0.00  0.00    +0.039 A 
ATOM     20  C   UNL     1       9.780   0.505  21.937  0.00  0.00    +0.014 A 
ENDBRANCH  12  14
ENDBRANCH   2  12
TORSDOF 6
ENDMDL
MODEL 5
REMARK VINA RESULT:      -6.2      1.580      2.177
REMARK  Name = 
REMARK  6 active torsions:
REMARK  status: ('A' for Active; 'I' for Inactive)
REMARK    1  A    between atoms: O_1  and  C_2
REMARK    2  A    between atoms: C_2  and  C_4
REMARK    3  A    between atoms: C_4  and  O_5
REMARK    4  A    between atoms: C_6  and  C_8
REMARK    5  A    between atoms: C_9  and  C_10
REMARK    6  A    between atoms: C_10  and  C_12
REMARK                            x       y       z     vdW  Elec       q    Type
REMARK                         _______ _______ _______ _____ _____    ______ ____
ROOT
ATOM      1  C   UNL     1       7.627  -5.029  23.357  0.00  0.00    +0.046 C 
ATOM      2  C   UNL     1       7.798  -3.702  23.247  0.00  0.00    +0.054 C 
ENDROOT
BRANCH   1   4
ATOM      3  C   UNL     1       5.387  -6.062  23.825  0.00  0.00    +0.238 C 
ATOM      4  C   UNL     1       6.393  -5.700  23.010  0.00  0.00    +0.172 C 
ATOM      5  F   UNL     1       6.254  -6.003  21.694  0.00  0.00    -0.201 F 
BRANCH   3   6
ATOM      6  C   UNL     1       5.364  -5.759  25.287  0.00  0.00    +0.375 C 
ATOM      7  O   UNL     1       5.823  -6.448  26.178  0.00  0.00    -0.242 OA
BRANCH   6   8
ATOM      8  O   UNL     1       4.836  -4.527  25.489  0.00  0.00    -0.475 OA
ATOM      9  H   UNL     1       5.514  -3.820  25.449  0.00  0.00    +0.296 HD
ENDBRANCH   6   8
ENDBRANCH   3   6
BRANCH   3  10
ATOM     10  O   UNL     1       4.284  -6.744  23.309  0.00  0.00    -0.499 OA
ATOM     11  H   UNL     1       4.279  -7.627  23.729  0.00  0.00    +0.292 HD
ENDBRANCH   3  10
ENDBRANCH   1   4
BRANCH   2  12
ATOM     12  C   UNL     1       9.105  -3.112  23.652  0.00  0.00    +0.186 C 
ATOM     13  O   UNL     1       9.885  -3.717  24.382  0.00  0.00    -0.287 OA
BRANCH  12  14
ATOM     14  C   UNL     1       9.434  -1.730  23.209  0.00  0.00    +0.022 A 
ATOM     15  C   UNL     1      10.050  -0.782  24.038  0.00  0.00    +0.014 A 
ATOM     16  C   UNL     1      10.361   0.486  23.535  0.00  0.00    +0.039 A 
ATOM     17  C   UNL     1      10.049   0.801  22.216  0.00  0.00    +0.123 A 
ATOM     18  F   UNL     1      10.360   2.012  21.737  0.00  0.00    -0.205 F 
ATOM     19  C   UNL     1       9.417  -0.120  21.389  0.00  0.00    +0.039 A 
ATOM     20  C   UNL     1       9.105  -1.384  21.889  0.00  0.00    +0.014 A 
ENDBRANCH  12  14
ENDBRANCH   2  12
TORSDOF 6
ENDMDL
MODEL 6
REMARK VINA RESULT:      -6.2      3.033      3.872
REMARK  Name = 
REMARK  6 active torsions:
REMARK  status: ('A' for Active; 'I' for Inactive)
REMARK    1  A    between atoms: O_1  and  C_2
REMARK    2  A    between atoms: C_2  and  C_4
REMARK    3  A    between atoms: C_4  and  O_5
REMARK    4  A    between atoms: C_6  and  C_8
REMARK    5  A    between atoms: C_9  and  C_10
REMARK    6  A    between atoms: C_10  and  C_12
REMARK                            x       y       z     vdW  Elec       q    Type
REMARK                         _______ _______ _______ _____ _____    ______ ____
ROOT
ATOM      1  C   UNL     1       8.628  -2.307  24.595  0.00  0.00    +0.046 C 
ATOM      2  C   UNL     1       9.874  -1.932  24.264  0.00  0.00    +0.054 C 
ENDROOT
BRANCH   1   4
ATOM      3  C   UNL     1       8.528  -4.371  26.020  0.00  0.00    +0.238 C 
ATOM      4  C   UNL     1       8.320  -3.063  25.789  0.00  0.00    +0.172 C 
ATOM      5  F   UNL     1       7.738  -2.350  26.787  0.00  0.00    -0.201 F 
BRANCH   3   6
ATOM      6  C   UNL     1       9.200  -5.282  25.046  0.00  0.00    +0.375 C 
ATOM      7  O   UNL     1       8.750  -5.667  23.985  0.00  0.00    -0.242 OA
BRANCH   6   8
ATOM      8  O   UNL     1      10.459  -5.551  25.468  0.00  0.00    -0.475 OA
ATOM      9  H   UNL     1      10.789  -6.411  25.133  0.00  0.00    +0.296 HD
ENDBRANCH   6   8
ENDBRANCH   3   6
BRANCH   3  10
ATOM     10  O   UNL     1       8.122  -4.937  27.231  0.00  0.00    -0.499 OA
ATOM     11  H   UNL     1       7.245  -5.339  27.071  0.00  0.00    +0.292 HD
ENDBRANCH   3  10
ENDBRANCH   1   4
BRANCH   2  12
ATOM     12  C   UNL     1      10.082  -1.173  22.999  0.00  0.00    +0.186 C 
ATOM     13  O   UNL     1      10.618  -1.686  22.022  0.00  0.00    -0.287 OA
BRANCH  12  14
ATOM     14  C   UNL     1       9.685   0.261  22.951  0.00  0.00    +0.022 A 
ATOM     15  C   UNL     1       8.966   0.826  21.889  0.00  0.00    +0.014 A 
ATOM     16  C   UNL     1       8.598   2.174  21.936  0.00  0.00    +0.039 A 
ATOM     17  C   UNL     1       8.953   2.950  23.035  0.00  0.00    +0.123 A 
ATOM     18  F   UNL     1       8.587   4.236  23.079  0.00  0.00    -0.205 F 
ATOM     19  C   UNL     1       9.685   2.410  24.086  0.00  0.00    +0.039 A 
ATOM     20  C   UNL     1      10.055   1.066  24.040  0.00  0.00    +0.014 A 
ENDBRANCH  12  14
ENDBRANCH   2  12
TORSDOF 6
ENDMDL
MODEL 7
REMARK VINA RESULT:      -6.2      2.601      7.021
REMARK  Name = 
REMARK  6 active torsions:
REMARK  status: ('A' for Active; 'I' for Inactive)
REMARK    1  A    between atoms: O_1  and  C_2
REMARK    2  A    between atoms: C_2  and  C_4
REMARK    3  A    between atoms: C_4  and  O_5
REMARK    4  A    between atoms: C_6  and  C_8
REMARK    5  A    between atoms: C_9  and  C_10
REMARK    6  A    between atoms: C_10  and  C_12
REMARK                            x       y       z     vdW  Elec       q    Type
REMARK                         _______ _______ _______ _____ _____    ______ ____
ROOT
ATOM      1  C   UNL     1       9.760  -1.452  22.699  0.00  0.00    +0.046 C 
ATOM      2  C   UNL     1       8.654  -2.038  23.185  0.00  0.00    +0.054 C 
ENDROOT
BRANCH   1   4
ATOM      3  C   UNL     1      10.047   1.040  22.605  0.00  0.00    +0.238 C 
ATOM      4  C   UNL     1       9.754  -0.154  22.061  0.00  0.00    +0.172 C 
ATOM      5  F   UNL     1       9.393  -0.158  20.752  0.00  0.00    -0.201 F 
BRANCH   3   6
ATOM      6  C   UNL     1      10.506   1.210  24.016  0.00  0.00    +0.375 C 
ATOM      7  O   UNL     1      11.589   0.898  24.469  0.00  0.00    -0.242 OA
BRANCH   6   8
ATOM      8  O   UNL     1       9.560   1.873  24.726  0.00  0.00    -0.475 OA
ATOM      9  H   UNL     1       9.176   2.624  24.226  0.00  0.00    +0.296 HD
ENDBRANCH   6   8
ENDBRANCH   3   6
BRANCH   3  10
ATOM     10  O   UNL     1       9.944   2.200  21.835  0.00  0.00    -0.499 OA
ATOM     11  H   UNL     1       9.477   1.949  21.013  0.00  0.00    +0.292 HD
ENDBRANCH   3  10
ENDBRANCH   1   4
BRANCH   2  12
ATOM     12  C   UNL     1       8.771  -3.388  23.803  0.00  0.00    +0.186 C 
ATOM     13  O   UNL     1       9.813  -3.767  24.329  0.00  0.00    -0.287 OA
BRANCH  12  14
ATOM     14  C   UNL     1       7.611  -4.316  23.719  0.00  0.00    +0.022 A 
ATOM     15  C   UNL     1       7.265  -5.013  22.553  0.00  0.00    +0.014 A 
ATOM     16  C   UNL     1       6.181  -5.897  22.565  0.00  0.00    +0.039 A 
ATOM     17  C   UNL     1       5.447  -6.074  23.734  0.00  0.00    +0.123 A 
ATOM     18  F   UNL     1       4.418  -6.930  23.742  0.00  0.00    -0.205 F 
ATOM     19  C   UNL     1       5.763  -5.374  24.892  0.00  0.00    +0.039 A 
ATOM     20  C   UNL     1       6.843  -4.490  24.881  0.00  0.00    +0.014 A 
ENDBRANCH  12  14
ENDBRANCH   2  12
TORSDOF 6
ENDMDL
MODEL 8
REMARK VINA RESULT:      -6.0      3.076      6.978
REMARK  Name = 
REMARK  6 active torsions:
REMARK  status: ('A' for Active; 'I' for Inactive)
REMARK    1  A    between atoms: O_1  and  C_2
REMARK    2  A    between atoms: C_2  and  C_4
REMARK    3  A    between atoms: C_4  and  O_5
REMARK    4  A    between atoms: C_6  and  C_8
REMARK    5  A    between atoms: C_9  and  C_10
REMARK    6  A    between atoms: C_10  and  C_12
REMARK                            x       y       z     vdW  Elec       q    Type
REMARK                         _______ _______ _______ _____ _____    ______ ____
ROOT
ATOM      1  C   UNL     1       8.357  -0.483  22.742  0.00  0.00    +0.046 C 
ATOM      2  C   UNL     1       7.044  -0.377  23.001  0.00  0.00    +0.054 C 
ENDROOT
BRANCH   1   4
ATOM      3  C   UNL     1       9.832   1.537  22.522  0.00  0.00    +0.238 C 
ATOM      4  C   UNL     1       9.106   0.522  22.020  0.00  0.00    +0.172 C 
ATOM      5  F   UNL     1       9.049   0.420  20.668  0.00  0.00    -0.201 F 
BRANCH   3   6
ATOM      6  C   UNL     1      10.034   1.759  23.984  0.00  0.00    +0.375 C 
ATOM      7  O   UNL     1       9.308   2.389  24.729  0.00  0.00    -0.242 OA
BRANCH   6   8
ATOM      8  O   UNL     1      11.115   1.059  24.407  0.00  0.00    -0.475 OA
ATOM      9  H   UNL     1      11.621   0.670  23.663  0.00  0.00    +0.296 HD
ENDBRANCH   6   8
ENDBRANCH   3   6
BRANCH   3  10
ATOM     10  O   UNL     1      10.457   2.439  21.658  0.00  0.00    -0.499 OA
ATOM     11  H   UNL     1      11.074   2.966  22.204  0.00  0.00    +0.292 HD
ENDBRANCH   3  10
ENDBRANCH   1   4
BRANCH   2  12
ATOM     12  C   UNL     1       6.366  -1.482  23.734  0.00  0.00    +0.186 C 
ATOM     13  O   UNL     1       5.753  -1.281  24.778  0.00  0.00    -0.287 OA
BRANCH  12  14
ATOM     14  C   UNL     1       6.496  -2.871  23.215  0.00  0.00    +0.022 A 
ATOM     15  C   UNL     1       5.931  -3.296  22.005  0.00  0.00    +0.014 A 
ATOM     16  C   UNL     1       6.130  -4.610  21.566  0.00  0.00    +0.039 A 
ATOM     17  C   UNL     1       6.882  -5.490  22.339  0.00  0.00    +0.123 A 
ATOM     18  F   UNL     1       7.079  -6.741  21.908  0.00  0.00    -0.205 F 
ATOM     19  C   UNL     1       7.430  -5.089  23.552  0.00  0.00    +0.039 A 
ATOM     20  C   UNL     1       7.231  -3.781  23.991  0.00  0.00    +0.014 A 
ENDBRANCH  12  14
ENDBRANCH   2  12
TORSDOF 6
ENDMDL
MODEL 9
REMARK VINA RESULT:      -5.8      2.614      3.316
REMARK  Name = 
REMARK  6 active torsions:
REMARK  status: ('A' for Active; 'I' for Inactive)
REMARK    1  A    between atoms: O_1  and  C_2
REMARK    2  A    between atoms: C_2  and  C_4
REMARK    3  A    between atoms: C_4  and  O_5
REMARK    4  A    between atoms: C_6  and  C_8
REMARK    5  A    between atoms: C_9  and  C_10
REMARK    6  A    between atoms: C_10  and  C_12
REMARK                            x       y       z     vdW  Elec       q    Type
REMARK                         _______ _______ _______ _____ _____    ______ ____
ROOT
ATOM      1  C   UNL     1       9.180  -3.707  24.132  0.00  0.00    +0.046 C 
ATOM      2  C   UNL     1       9.731  -2.486  24.220  0.00  0.00    +0.054 C 
ENDROOT
BRANCH   1   4
ATOM      3  C   UNL     1       7.869  -5.106  25.753  0.00  0.00    +0.238 C 
ATOM      4  C   UNL     1       9.010  -4.582  25.271  0.00  0.00    +0.172 C 
ATOM      5  F   UNL     1      10.155  -4.896  25.930  0.00  0.00    -0.201 F 
BRANCH   3   6
ATOM      6  C   UNL     1       6.535  -4.897  25.116  0.00  0.00    +0.375 C 
ATOM      7  O   UNL     1       5.980  -5.643  24.333  0.00  0.00    -0.242 OA
BRANCH   6   8
ATOM      8  O   UNL     1       5.960  -3.776  25.618  0.00  0.00    -0.475 OA
ATOM      9  H   UNL     1       5.023  -3.684  25.347  0.00  0.00    +0.296 HD
ENDBRANCH   6   8
ENDBRANCH   3   6
BRANCH   3  10
ATOM     10  O   UNL     1       7.899  -5.904  26.898  0.00  0.00    -0.499 OA
ATOM     11  H   UNL     1       7.914  -5.295  27.663  0.00  0.00    +0.292 HD
ENDBRANCH   3  10
ENDBRANCH   1   4
BRANCH   2  12
ATOM     12  C   UNL     1       9.878  -1.675  22.979  0.00  0.00    +0.186 C 
ATOM     13  O   UNL     1      10.799  -1.866  22.190  0.00  0.00    -0.287 OA
BRANCH  12  14
ATOM     14  C   UNL     1       8.918  -0.565  22.731  0.00  0.00    +0.022 A 
ATOM     15  C   UNL     1       7.685  -0.453  23.388  0.00  0.00    +0.014 A 
ATOM     16  C   UNL     1       6.853   0.641  23.127  0.00  0.00    +0.039 A 
ATOM     17  C   UNL     1       7.251   1.608  22.210  0.00  0.00    +0.123 A 
ATOM     18  F   UNL     1       6.456   2.658  21.973  0.00  0.00    -0.205 F 
ATOM     19  C   UNL     1       8.461   1.499  21.533  0.00  0.00    +0.039 A 
ATOM     20  C   UNL     1       9.291   0.408  21.791  0.00  0.00    +0.014 A 
ENDBRANCH  12  14
ENDBRANCH   2  12
TORSDOF 6
ENDMDL
