MODEL 1
REMARK VINA RESULT:      -5.3      0.000      0.000
REMARK  Name = 
REMARK  3 active torsions:
REMARK  status: ('A' for Active; 'I' for Inactive)
REMARK    1  A    between atoms: C_1  and  O_2
REMARK    2  A    between atoms: O_2  and  C_3
REMARK    3  A    between atoms: C_8  and  C_9
REMARK                            x       y       z     vdW  Elec       q    Type
REMARK                         _______ _______ _______ _____ _____    ______ ____
ROOT
ATOM      1  C   UNL     1       8.195  -2.350  23.732  0.00  0.00    +0.196 A 
ATOM      2  C   UNL     1       7.059  -2.071  22.975  0.00  0.00    +0.204 A 
ATOM      3  F   UNL     1       6.596  -0.818  22.858  0.00  0.00    -0.198 F 
ATOM      4  C   UNL     1       6.354  -3.092  22.333  0.00  0.00    +0.177 A 
ATOM      5  F   UNL     1       5.269  -2.746  21.624  0.00  0.00    -0.201 F 
ATOM      6  C   UNL     1       6.762  -4.424  22.435  0.00  0.00    +0.113 A 
ATOM      7  C   UNL     1       7.886  -4.705  23.212  0.00  0.00    +0.177 A 
ATOM      8  F   UNL     1       8.330  -5.965  23.356  0.00  0.00    -0.201 F 
ATOM      9  C   UNL     1       8.585  -3.684  23.856  0.00  0.00    +0.204 A 
ATOM     10  F   UNL     1       9.663  -4.000  24.589  0.00  0.00    -0.198 F 
ENDROOT
BRANCH   6  11
ATOM     11  C   UNL     1       6.001  -5.479  21.723  0.00  0.00    +0.247 C 
ATOM     12  O   UNL     1       6.022  -5.588  20.505  0.00  0.00    -0.270 OA
ATOM     13  N   UNL     1       5.260  -6.356  22.462  0.00  0.00    -0.325 N 
ATOM     14  H   UNL     1       4.748  -7.071  21.960  0.00  0.00    +0.145 HD
ATOM     15  H   UNL     1       5.188  -6.333  23.472  0.00  0.00    +0.145 HD
ENDBRANCH   6  11
BRANCH   1  17
ATOM     16  C   UNL     1       9.960  -0.772  23.663  0.00  0.00    +0.277 C 
ATOM     17  O   UNL     1       8.947  -1.434  24.416  0.00  0.00    -0.489 OA
ENDBRANCH   1  17
TORSDOF 2
ENDMDL
MODEL 2
REMARK VINA RESULT:      -5.3      3.306      5.709
REMARK  Name = 
REMARK  3 active torsions:
REMARK  status: ('A' for Active; 'I' for Inactive)
REMARK    1  A    between atoms: C_1  and  O_2
REMARK    2  A    between atoms: O_2  and  C_3
REMARK    3  A    between atoms: C_8  and  C_9
REMARK                            x       y       z     vdW  Elec       q    Type
REMARK                         _______ _______ _______ _____ _____    ______ ____
ROOT
ATOM      1  C   UNL     1       8.300  -2.437  23.160  0.00  0.00    +0.196 A 
ATOM      2  C   UNL     1       9.597  -1.983  23.391  0.00  0.00    +0.204 A 
ATOM      3  F   UNL     1      10.573  -2.830  23.747  0.00  0.00    -0.198 F 
ATOM      4  C   UNL     1       9.914  -0.627  23.283  0.00  0.00    +0.177 A 
ATOM      5  F   UNL     1      11.183  -0.265  23.523  0.00  0.00    -0.201 F 
ATOM      6  C   UNL     1       8.940   0.316  22.944  0.00  0.00    +0.113 A 
ATOM      7  C   UNL     1       7.638  -0.136  22.735  0.00  0.00    +0.177 A 
ATOM      8  F   UNL     1       6.652   0.718  22.412  0.00  0.00    -0.201 F 
ATOM      9  C   UNL     1       7.323  -1.490  22.850  0.00  0.00    +0.204 A 
ATOM     10  F   UNL     1       6.058  -1.881  22.635  0.00  0.00    -0.198 F 
ENDROOT
BRANCH   6  11
ATOM     11  C   UNL     1       9.318   1.745  22.817  0.00  0.00    +0.247 C 
ATOM     12  O   UNL     1       9.337   2.502  23.777  0.00  0.00    -0.270 OA
ATOM     13  N   UNL     1       9.658   2.219  21.582  0.00  0.00    -0.325 N 
ATOM     14  H   UNL     1       9.915   3.196  21.514  0.00  0.00    +0.145 HD
ATOM     15  H   UNL     1       9.666   1.659  20.738  0.00  0.00    +0.145 HD
ENDBRANCH   6  11
BRANCH   1  17
ATOM     16  C   UNL     1       7.594  -4.200  24.575  0.00  0.00    +0.277 C 
ATOM     17  O   UNL     1       7.876  -3.734  23.257  0.00  0.00    -0.489 OA
ENDBRANCH   1  17
TORSDOF 2
ENDMDL
MODEL 3
REMARK VINA RESULT:      -5.3      3.309      5.095
REMARK  Name = 
REMARK  3 active torsions:
REMARK  status: ('A' for Active; 'I' for Inactive)
REMARK    1  A    between atoms: C_1  and  O_2
REMARK    2  A    between atoms: O_2  and  C_3
REMARK    3  A    between atoms: C_8  and  C_9
REMARK                            x       y       z     vdW  Elec       q    Type
REMARK                         _______ _______ _______ _____ _____    ______ ____
ROOT
ATOM      1  C   UNL     1       8.264  -2.461  23.262  0.00  0.00    +0.196 A 
ATOM      2  C   UNL     1       7.300  -1.523  22.898  0.00  0.00    +0.204 A 
ATOM      3  F   UNL     1       6.034  -1.892  22.655  0.00  0.00    -0.198 F 
ATOM      4  C   UNL     1       7.628  -0.174  22.752  0.00  0.00    +0.177 A 
ATOM      5  F   UNL     1       6.647   0.669  22.397  0.00  0.00    -0.201 F 
ATOM      6  C   UNL     1       8.934   0.277  22.961  0.00  0.00    +0.113 A 
ATOM      7  C   UNL     1       9.903  -0.665  23.303  0.00  0.00    +0.177 A 
ATOM      8  F   UNL     1      11.179  -0.301  23.514  0.00  0.00    -0.201 F 
ATOM      9  C   UNL     1       9.573  -2.014  23.443  0.00  0.00    +0.204 A 
ATOM     10  F   UNL     1      10.537  -2.885  23.778  0.00  0.00    -0.198 F 
ENDROOT
BRANCH   6  11
ATOM     11  C   UNL     1       9.242   1.721  22.818  0.00  0.00    +0.247 C 
ATOM     12  O   UNL     1       9.119   2.508  23.745  0.00  0.00    -0.270 OA
ATOM     13  N   UNL     1       9.680   2.174  21.606  0.00  0.00    -0.325 N 
ATOM     14  H   UNL     1       9.887   3.162  21.527  0.00  0.00    +0.145 HD
ATOM     15  H   UNL     1       9.806   1.589  20.789  0.00  0.00    +0.145 HD
ENDBRANCH   6  11
BRANCH   1  17
ATOM     16  C   UNL     1       7.505  -4.215  24.662  0.00  0.00    +0.277 C 
ATOM     17  O   UNL     1       8.057  -3.805  23.413  0.00  0.00    -0.489 OA
ENDBRANCH   1  17
TORSDOF 2
ENDMDL
MODEL 4
REMARK VINA RESULT:      -5.2      0.107      2.751
REMARK  Name = 
REMARK  3 active torsions:
REMARK  status: ('A' for Active; 'I' for Inactive)
REMARK    1  A    between atoms: C_1  and  O_2
REMARK    2  A    between atoms: O_2  and  C_3
REMARK    3  A    between atoms: C_8  and  C_9
REMARK                            x       y       z     vdW  Elec       q    Type
REMARK                         _______ _______ _______ _____ _____    ______ ____
ROOT
ATOM      1  C   UNL     1       8.146  -2.380  23.874  0.00  0.00    +0.196 A 
ATOM      2  C   UNL     1       8.552  -3.712  23.922  0.00  0.00    +0.204 A 
ATOM      3  F   UNL     1       9.637  -4.079  24.620  0.00  0.00    -0.198 F 
ATOM      4  C   UNL     1       7.856  -4.702  23.226  0.00  0.00    +0.177 A 
ATOM      5  F   UNL     1       8.308  -5.961  23.319  0.00  0.00    -0.201 F 
ATOM      6  C   UNL     1       6.734  -4.387  22.455  0.00  0.00    +0.113 A 
ATOM      7  C   UNL     1       6.341  -3.051  22.389  0.00  0.00    +0.177 A 
ATOM      8  F   UNL     1       5.274  -2.678  21.662  0.00  0.00    -0.201 F 
ATOM      9  C   UNL     1       7.042  -2.063  23.082  0.00  0.00    +0.204 A 
ATOM     10  F   UNL     1       6.626  -0.791  22.993  0.00  0.00    -0.198 F 
ENDROOT
BRANCH   6  11
ATOM     11  C   UNL     1       6.006  -5.468  21.746  0.00  0.00    +0.247 C 
ATOM     12  O   UNL     1       6.043  -5.589  20.530  0.00  0.00    -0.270 OA
ATOM     13  N   UNL     1       5.278  -6.354  22.487  0.00  0.00    -0.325 N 
ATOM     14  H   UNL     1       4.789  -7.087  21.987  0.00  0.00    +0.145 HD
ATOM     15  H   UNL     1       5.194  -6.322  23.496  0.00  0.00    +0.145 HD
ENDBRANCH   6  11
BRANCH   1  17
ATOM     16  C   UNL     1       9.903  -0.792  23.833  0.00  0.00    +0.277 C 
ATOM     17  O   UNL     1       8.763  -1.331  24.499  0.00  0.00    -0.489 OA
ENDBRANCH   1  17
TORSDOF 2
ENDMDL
MODEL 5
REMARK VINA RESULT:      -5.2      5.035      6.566
REMARK  Name = 
REMARK  3 active torsions:
REMARK  status: ('A' for Active; 'I' for Inactive)
REMARK    1  A    between atoms: C_1  and  O_2
REMARK    2  A    between atoms: O_2  and  C_3
REMARK    3  A    between atoms: C_8  and  C_9
REMARK                            x       y       z     vdW  Elec       q    Type
REMARK                         _______ _______ _______ _____ _____    ______ ____
ROOT
ATOM      1  C   UNL     1       9.911   0.168  23.015  0.00  0.00    +0.196 A 
ATOM      2  C   UNL     1       9.199   0.501  21.865  0.00  0.00    +0.204 A 
ATOM      3  F   UNL     1       9.254  -0.270  20.770  0.00  0.00    -0.198 F 
ATOM      4  C   UNL     1       8.424   1.662  21.810  0.00  0.00    +0.177 A 
ATOM      5  F   UNL     1       7.768   1.917  20.668  0.00  0.00    -0.201 F 
ATOM      6  C   UNL     1       8.343   2.527  22.904  0.00  0.00    +0.113 A 
ATOM      7  C   UNL     1       9.074   2.205  24.047  0.00  0.00    +0.177 A 
ATOM      8  F   UNL     1       9.045   2.995  25.133  0.00  0.00    -0.201 F 
ATOM      9  C   UNL     1       9.852   1.047  24.097  0.00  0.00    +0.204 A 
ATOM     10  F   UNL     1      10.535   0.774  25.219  0.00  0.00    -0.198 F 
ENDROOT
BRANCH   6  11
ATOM     11  C   UNL     1       7.493   3.739  22.817  0.00  0.00    +0.247 C 
ATOM     12  O   UNL     1       6.373   3.786  23.305  0.00  0.00    -0.270 OA
ATOM     13  N   UNL     1       7.991   4.836  22.173  0.00  0.00    -0.325 N 
ATOM     14  H   UNL     1       7.398   5.656  22.124  0.00  0.00    +0.145 HD
ATOM     15  H   UNL     1       8.906   4.878  21.741  0.00  0.00    +0.145 HD
ENDBRANCH   6  11
BRANCH   1  17
ATOM     16  C   UNL     1      10.047  -2.150  23.482  0.00  0.00    +0.277 C 
ATOM     17  O   UNL     1      10.713  -0.929  23.170  0.00  0.00    -0.489 OA
ENDBRANCH   1  17
TORSDOF 2
ENDMDL
MODEL 6
REMARK VINA RESULT:      -5.2      2.714      3.670
REMARK  Name = 
REMARK  3 active torsions:
REMARK  status: ('A' for Active; 'I' for Inactive)
REMARK    1  A    between atoms: C_1  and  O_2
REMARK    2  A    between atoms: O_2  and  C_3
REMARK    3  A    between atoms: C_8  and  C_9
REMARK                            x       y       z     vdW  Elec       q    Type
REMARK                         _______ _______ _______ _____ _____    ______ ____
ROOT
ATOM      1  C   UNL     1       7.884  -1.673  23.509  0.00  0.00    +0.196 A 
ATOM      2  C   UNL     1       8.300  -1.641  24.839  0.00  0.00    +0.204 A 
ATOM      3  F   UNL     1       8.507  -0.477  25.471  0.00  0.00    -0.198 F 
ATOM      4  C   UNL     1       8.537  -2.821  25.546  0.00  0.00    +0.177 A 
ATOM      5  F   UNL     1       8.938  -2.710  26.822  0.00  0.00    -0.201 F 
ATOM      6  C   UNL     1       8.370  -4.070  24.942  0.00  0.00    +0.113 A 
ATOM      7  C   UNL     1       7.976  -4.101  23.605  0.00  0.00    +0.177 A 
ATOM      8  F   UNL     1       7.801  -5.268  22.962  0.00  0.00    -0.201 F 
ATOM      9  C   UNL     1       7.745  -2.920  22.899  0.00  0.00    +0.204 A 
ATOM     10  F   UNL     1       7.362  -2.997  21.616  0.00  0.00    -0.198 F 
ENDROOT
BRANCH   6  11
ATOM     11  C   UNL     1       8.610  -5.303  25.731  0.00  0.00    +0.247 C 
ATOM     12  O   UNL     1       7.749  -5.800  26.442  0.00  0.00    -0.270 OA
ATOM     13  N   UNL     1       9.838  -5.897  25.650  0.00  0.00    -0.325 N 
ATOM     14  H   UNL     1       9.984  -6.738  26.193  0.00  0.00    +0.145 HD
ATOM     15  H   UNL     1      10.604  -5.548  25.086  0.00  0.00    +0.145 HD
ENDBRANCH   6  11
BRANCH   1  17
ATOM     16  C   UNL     1       8.788   0.012  22.112  0.00  0.00    +0.277 C 
ATOM     17  O   UNL     1       7.644  -0.582  22.719  0.00  0.00    -0.489 OA
ENDBRANCH   1  17
TORSDOF 2
ENDMDL
MODEL 7
REMARK VINA RESULT:      -5.2      2.949      4.079
REMARK  Name = 
REMARK  3 active torsions:
REMARK  status: ('A' for Active; 'I' for Inactive)
REMARK    1  A    between atoms: C_1  and  O_2
REMARK    2  A    between atoms: O_2  and  C_3
REMARK    3  A    between atoms: C_8  and  C_9
REMARK                            x       y       z     vdW  Elec       q    Type
REMARK                         _______ _______ _______ _____ _____    ______ ____
ROOT
ATOM      1  C   UNL     1       8.354  -1.342  23.343  0.00  0.00    +0.196 A 
ATOM      2  C   UNL     1       8.167  -2.693  23.055  0.00  0.00    +0.204 A 
ATOM      3  F   UNL     1       7.878  -3.100  21.811  0.00  0.00    -0.198 F 
ATOM      4  C   UNL     1       8.251  -3.660  24.059  0.00  0.00    +0.177 A 
ATOM      5  F   UNL     1       8.057  -4.939  23.705  0.00  0.00    -0.201 F 
ATOM      6  C   UNL     1       8.520  -3.304  25.383  0.00  0.00    +0.113 A 
ATOM      7  C   UNL     1       8.685  -1.950  25.674  0.00  0.00    +0.177 A 
ATOM      8  F   UNL     1       8.941  -1.538  26.927  0.00  0.00    -0.201 F 
ATOM      9  C   UNL     1       8.595  -0.985  24.670  0.00  0.00    +0.204 A 
ATOM     10  F   UNL     1       8.765   0.305  24.995  0.00  0.00    -0.198 F 
ENDROOT
BRANCH   6  11
ATOM     11  C   UNL     1       8.623  -4.360  26.418  0.00  0.00    +0.247 C 
ATOM     12  O   UNL     1       7.741  -4.553  27.243  0.00  0.00    -0.270 OA
ATOM     13  N   UNL     1       9.744  -5.141  26.440  0.00  0.00    -0.325 N 
ATOM     14  H   UNL     1       9.797  -5.858  27.153  0.00  0.00    +0.145 HD
ATOM     15  H   UNL     1      10.519  -5.045  25.795  0.00  0.00    +0.145 HD
ENDBRANCH   6  11
BRANCH   1  17
ATOM     16  C   UNL     1       9.421  -0.115  21.620  0.00  0.00    +0.277 C 
ATOM     17  O   UNL     1       8.275  -0.313  22.444  0.00  0.00    -0.489 OA
ENDBRANCH   1  17
TORSDOF 2
ENDMDL
MODEL 8
REMARK VINA RESULT:      -5.1      4.381      6.011
REMARK  Name = 
REMARK  3 active torsions:
REMARK  status: ('A' for Active; 'I' for Inactive)
REMARK    1  A    between atoms: C_1  and  O_2
REMARK    2  A    between atoms: O_2  and  C_3
REMARK    3  A    between atoms: C_8  and  C_9
REMARK                            x       y       z     vdW  Elec       q    Type
REMARK                         _______ _______ _______ _____ _____    ______ ____
ROOT
ATOM      1  C   UNL     1       9.706  -1.214  23.764  0.00  0.00    +0.196 A 
ATOM      2  C   UNL     1       9.456  -0.240  24.728  0.00  0.00    +0.204 A 
ATOM      3  F   UNL     1       9.567  -0.516  26.035  0.00  0.00    -0.198 F 
ATOM      4  C   UNL     1       9.058   1.048  24.362  0.00  0.00    +0.177 A 
ATOM      5  F   UNL     1       8.833   1.931  25.346  0.00  0.00    -0.201 F 
ATOM      6  C   UNL     1       8.894   1.398  23.019  0.00  0.00    +0.113 A 
ATOM      7  C   UNL     1       9.122   0.416  22.056  0.00  0.00    +0.177 A 
ATOM      8  F   UNL     1       8.978   0.683  20.747  0.00  0.00    -0.201 F 
ATOM      9  C   UNL     1       9.515  -0.872  22.425  0.00  0.00    +0.204 A 
ATOM     10  F   UNL     1       9.728  -1.783  21.464  0.00  0.00    -0.198 F 
ENDROOT
BRANCH   6  11
ATOM     11  C   UNL     1       8.490   2.781  22.667  0.00  0.00    +0.247 C 
ATOM     12  O   UNL     1       7.394   3.039  22.192  0.00  0.00    -0.270 OA
ATOM     13  N   UNL     1       9.380   3.793  22.890  0.00  0.00    -0.325 N 
ATOM     14  H   UNL     1       9.088   4.731  22.645  0.00  0.00    +0.145 HD
ATOM     15  H   UNL     1      10.307   3.663  23.277  0.00  0.00    +0.145 HD
ENDBRANCH   6  11
BRANCH   1  17
ATOM     16  C   UNL     1       9.028  -3.405  24.356  0.00  0.00    +0.277 C 
ATOM     17  O   UNL     1      10.080  -2.507  24.010  0.00  0.00    -0.489 OA
ENDBRANCH   1  17
TORSDOF 2
ENDMDL
MODEL 9
REMARK VINA RESULT:      -5.1      4.337      6.082
REMARK  Name = 
REMARK  3 active torsions:
REMARK  status: ('A' for Active; 'I' for Inactive)
REMARK    1  A    between atoms: C_1  and  O_2
REMARK    2  A    between atoms: O_2  and  C_3
REMARK    3  A    between atoms: C_8  and  C_9
REMARK                            x       y       z     vdW  Elec       q    Type
REMARK                         _______ _______ _______ _____ _____    ______ ____
ROOT
ATOM      1  C   UNL     1       9.005  -1.330  25.268  0.00  0.00    +0.196 A 
ATOM      2  C   UNL     1       9.685  -1.526  24.068  0.00  0.00    +0.204 A 
ATOM      3  F   UNL     1      10.058  -2.754  23.677  0.00  0.00    -0.198 F 
ATOM      4  C   UNL     1      10.020  -0.448  23.247  0.00  0.00    +0.177 A 
ATOM      5  F   UNL     1      10.676  -0.715  22.108  0.00  0.00    -0.201 F 
ATOM      6  C   UNL     1       9.688   0.861  23.605  0.00  0.00    +0.113 A 
ATOM      7  C   UNL     1       9.028   1.059  24.818  0.00  0.00    +0.177 A 
ATOM      8  F   UNL     1       8.684   2.293  25.225  0.00  0.00    -0.201 F 
ATOM      9  C   UNL     1       8.700  -0.020  25.638  0.00  0.00    +0.204 A 
ATOM     10  F   UNL     1       8.060   0.217  26.794  0.00  0.00    -0.198 F 
ENDROOT
BRANCH   6  11
ATOM     11  C   UNL     1      10.041   1.980  22.698  0.00  0.00    +0.247 C 
ATOM     12  O   UNL     1      10.849   2.843  23.011  0.00  0.00    -0.270 OA
ATOM     13  N   UNL     1       9.440   2.037  21.473  0.00  0.00    -0.325 N 
ATOM     14  H   UNL     1       9.694   2.806  20.865  0.00  0.00    +0.145 HD
ATOM     15  H   UNL     1       8.760   1.364  21.139  0.00  0.00    +0.145 HD
ENDBRANCH   6  11
BRANCH   1  17
ATOM     16  C   UNL     1       7.447  -3.017  25.851  0.00  0.00    +0.277 C 
ATOM     17  O   UNL     1       8.647  -2.309  26.155  0.00  0.00    -0.489 OA
ENDBRANCH   1  17
TORSDOF 2
ENDMDL
