MODEL 1
REMARK VINA RESULT:      -6.6      0.000      0.000
REMARK  Name = 
REMARK  6 active torsions:
REMARK  status: ('A' for Active; 'I' for Inactive)
REMARK    1  A    between atoms: C_2  and  C_3
REMARK    2  A    between atoms: C_3  and  C_4
REMARK    3  A    between atoms: C_4  and  O_6
REMARK    4  A    between atoms: O_6  and  C_7
REMARK    5  A    between atoms: C_9  and  C_12
REMARK    6  A    between atoms: C_15  and  O_16
REMARK                            x       y       z     vdW  Elec       q    Type
REMARK                         _______ _______ _______ _____ _____    ______ ____
ROOT
ATOM      1  C   UNL     1       7.831  -4.731  24.362  0.00  0.00    +0.221 C 
ATOM      2  O   UNL     1       9.227  -4.938  24.638  0.00  0.00    -0.389 OA
ATOM      3  N   UNL     1       9.908  -3.728  24.344  0.00  0.00    -0.089 NA
ATOM      4  C   UNL     1       9.129  -3.036  23.578  0.00  0.00    +0.091 C 
ATOM      5  C   UNL     1       7.828  -3.688  23.263  0.00  0.00    +0.107 C 
ENDROOT
BRANCH   4   6
ATOM      6  C   UNL     1       9.459  -1.694  23.061  0.00  0.00    -0.000 A 
ATOM      7  C   UNL     1       9.146  -1.332  21.746  0.00  0.00    +0.013 A 
ATOM      8  C   UNL     1       9.395  -0.031  21.306  0.00  0.00    +0.046 A 
ATOM      9  C   UNL     1       9.945   0.900  22.180  0.00  0.00    +0.117 A 
ATOM     10  C   UNL     1      10.290   0.543  23.482  0.00  0.00    +0.046 A 
ATOM     11  C   UNL     1      10.054  -0.762  23.920  0.00  0.00    +0.013 A 
BRANCH   9  12
ATOM     12  O   UNL     1      10.121   2.171  21.722  0.00  0.00    -0.507 OA
ATOM     13  H   UNL     1      10.666   2.140  20.918  0.00  0.00    +0.292 HD
ENDBRANCH   9  12
ENDBRANCH   4   6
BRANCH   1  14
ATOM     14  C   UNL     1       7.145  -4.308  25.659  0.00  0.00    +0.168 C 
BRANCH  14  15
ATOM     15  C   UNL     1       6.963  -5.477  26.585  0.00  0.00    +0.310 C 
ATOM     16  O   UNL     1       7.597  -5.654  27.618  0.00  0.00    -0.251 OA
BRANCH  15  17
ATOM     17  O   UNL     1       5.999  -6.309  26.106  0.00  0.00    -0.468 OA
ATOM     18  C   UNL     1       4.945  -6.581  27.029  0.00  0.00    +0.280 C 
ENDBRANCH  15  17
ENDBRANCH  14  15
ENDBRANCH   1  14
TORSDOF 5
ENDMDL
MODEL 2
REMARK VINA RESULT:      -6.2      0.951      1.843
REMARK  Name = 
REMARK  6 active torsions:
REMARK  status: ('A' for Active; 'I' for Inactive)
REMARK    1  A    between atoms: C_2  and  C_3
REMARK    2  A    between atoms: C_3  and  C_4
REMARK    3  A    between atoms: C_4  and  O_6
REMARK    4  A    between atoms: O_6  and  C_7
REMARK    5  A    between atoms: C_9  and  C_12
REMARK    6  A    between atoms: C_15  and  O_16
REMARK                            x       y       z     vdW  Elec       q    Type
REMARK                         _______ _______ _______ _____ _____    ______ ____
ROOT
ATOM      1  C   UNL     1       7.882  -4.735  23.903  0.00  0.00    +0.221 C 
ATOM      2  O   UNL     1       9.201  -4.781  24.477  0.00  0.00    -0.389 OA
ATOM      3  N   UNL     1       9.769  -3.486  24.353  0.00  0.00    -0.089 NA
ATOM      4  C   UNL     1       9.093  -2.866  23.442  0.00  0.00    +0.091 C 
ATOM      5  C   UNL     1       7.985  -3.659  22.842  0.00  0.00    +0.107 C 
ENDROOT
BRANCH   4   6
ATOM      6  C   UNL     1       9.353  -1.474  23.024  0.00  0.00    -0.000 A 
ATOM      7  C   UNL     1       9.996  -0.574  23.880  0.00  0.00    +0.013 A 
ATOM      8  C   UNL     1      10.302   0.712  23.432  0.00  0.00    +0.046 A 
ATOM      9  C   UNL     1       9.973   1.087  22.134  0.00  0.00    +0.117 A 
ATOM     10  C   UNL     1       9.303   0.211  21.284  0.00  0.00    +0.046 A 
ATOM     11  C   UNL     1       8.984  -1.072  21.735  0.00  0.00    +0.013 A 
BRANCH   9  12
ATOM     12  O   UNL     1      10.338   2.334  21.724  0.00  0.00    -0.507 OA
ATOM     13  H   UNL     1      11.259   2.493  21.991  0.00  0.00    +0.292 HD
ENDBRANCH   9  12
ENDBRANCH   4   6
BRANCH   1  14
ATOM     14  C   UNL     1       6.884  -4.449  25.021  0.00  0.00    +0.168 C 
BRANCH  14  15
ATOM     15  C   UNL     1       7.422  -4.879  26.356  0.00  0.00    +0.310 C 
ATOM     16  O   UNL     1       7.542  -6.042  26.719  0.00  0.00    -0.251 OA
BRANCH  15  17
ATOM     17  O   UNL     1       7.750  -3.788  27.101  0.00  0.00    -0.468 OA
ATOM     18  C   UNL     1       7.114  -2.580  26.686  0.00  0.00    +0.280 C 
ENDBRANCH  15  17
ENDBRANCH  14  15
ENDBRANCH   1  14
TORSDOF 5
ENDMDL
MODEL 3
REMARK VINA RESULT:      -5.9      2.106      2.701
REMARK  Name = 
REMARK  6 active torsions:
REMARK  status: ('A' for Active; 'I' for Inactive)
REMARK    1  A    between atoms: C_2  and  C_3
REMARK    2  A    between atoms: C_3  and  C_4
REMARK    3  A    between atoms: C_4  and  O_6
REMARK    4  A    between atoms: O_6  and  C_7
REMARK    5  A    between atoms: C_9  and  C_12
REMARK    6  A    between atoms: C_15  and  O_16
REMARK                            x       y       z     vdW  Elec       q    Type
REMARK                         _______ _______ _______ _____ _____    ______ ____
ROOT
ATOM      1  C   UNL     1       7.703  -3.986  23.204  0.00  0.00    +0.221 C 
ATOM      2  O   UNL     1       8.939  -4.314  23.863  0.00  0.00    -0.389 OA
ATOM      3  N   UNL     1       9.663  -3.107  24.045  0.00  0.00    -0.089 NA
ATOM      4  C   UNL     1       9.163  -2.243  23.222  0.00  0.00    +0.091 C 
ATOM      5  C   UNL     1       8.041  -2.755  22.388  0.00  0.00    +0.107 C 
ENDROOT
BRANCH   4   6
ATOM      6  C   UNL     1       9.625  -0.845  23.110  0.00  0.00    -0.000 A 
ATOM      7  C   UNL     1       9.474  -0.131  21.917  0.00  0.00    +0.013 A 
ATOM      8  C   UNL     1       9.845   1.214  21.862  0.00  0.00    +0.046 A 
ATOM      9  C   UNL     1      10.354   1.836  22.996  0.00  0.00    +0.117 A 
ATOM     10  C   UNL     1      10.539   1.127  24.180  0.00  0.00    +0.046 A 
ATOM     11  C   UNL     1      10.180  -0.222  24.234  0.00  0.00    +0.013 A 
BRANCH   9  12
ATOM     12  O   UNL     1      10.653   3.163  22.909  0.00  0.00    -0.507 OA
ATOM     13  H   UNL     1      10.360   3.603  23.725  0.00  0.00    +0.292 HD
ENDBRANCH   9  12
ENDBRANCH   4   6
BRANCH   1  14
ATOM     14  C   UNL     1       6.631  -3.783  24.272  0.00  0.00    +0.168 C 
BRANCH  14  15
ATOM     15  C   UNL     1       5.341  -3.307  23.666  0.00  0.00    +0.310 C 
ATOM     16  O   UNL     1       4.862  -3.732  22.623  0.00  0.00    -0.251 OA
BRANCH  15  17
ATOM     17  O   UNL     1       4.791  -2.334  24.442  0.00  0.00    -0.468 OA
ATOM     18  C   UNL     1       5.694  -1.288  24.801  0.00  0.00    +0.280 C 
ENDBRANCH  15  17
ENDBRANCH  14  15
ENDBRANCH   1  14
TORSDOF 5
ENDMDL
MODEL 4
REMARK VINA RESULT:      -5.7      1.514      2.136
REMARK  Name = 
REMARK  6 active torsions:
REMARK  status: ('A' for Active; 'I' for Inactive)
REMARK    1  A    between atoms: C_2  and  C_3
REMARK    2  A    between atoms: C_3  and  C_4
REMARK    3  A    between atoms: C_4  and  O_6
REMARK    4  A    between atoms: O_6  and  C_7
REMARK    5  A    between atoms: C_9  and  C_12
REMARK    6  A    between atoms: C_15  and  O_16
REMARK                            x       y       z     vdW  Elec       q    Type
REMARK                         _______ _______ _______ _____ _____    ______ ____
ROOT
ATOM      1  C   UNL     1       8.032  -3.971  23.611  0.00  0.00    +0.221 C 
ATOM      2  O   UNL     1       9.404  -4.211  23.972  0.00  0.00    -0.389 OA
ATOM      3  N   UNL     1      10.052  -2.952  24.060  0.00  0.00    -0.089 NA
ATOM      4  C   UNL     1       9.318  -2.106  23.412  0.00  0.00    +0.091 C 
ATOM      5  C   UNL     1       8.085  -2.685  22.812  0.00  0.00    +0.107 C 
ENDROOT
BRANCH   4   6
ATOM      6  C   UNL     1       9.633  -0.670  23.282  0.00  0.00    -0.000 A 
ATOM      7  C   UNL     1      10.145   0.055  24.363  0.00  0.00    +0.013 A 
ATOM      8  C   UNL     1      10.510   1.392  24.192  0.00  0.00    +0.046 A 
ATOM      9  C   UNL     1      10.369   1.991  22.945  0.00  0.00    +0.117 A 
ATOM     10  C   UNL     1       9.829   1.289  21.870  0.00  0.00    +0.046 A 
ATOM     11  C   UNL     1       9.452  -0.045  22.043  0.00  0.00    +0.013 A 
BRANCH   9  12
ATOM     12  O   UNL     1      10.786   3.281  22.812  0.00  0.00    -0.507 OA
ATOM     13  H   UNL     1      10.582   3.761  23.632  0.00  0.00    +0.292 HD
ENDBRANCH   9  12
ENDBRANCH   4   6
BRANCH   1  14
ATOM     14  C   UNL     1       7.206  -3.903  24.894  0.00  0.00    +0.168 C 
BRANCH  14  15
ATOM     15  C   UNL     1       6.027  -4.832  24.833  0.00  0.00    +0.310 C 
ATOM     16  O   UNL     1       5.144  -4.895  25.679  0.00  0.00    -0.251 OA
BRANCH  15  17
ATOM     17  O   UNL     1       6.088  -5.592  23.706  0.00  0.00    -0.468 OA
ATOM     18  C   UNL     1       4.817  -5.903  23.136  0.00  0.00    +0.280 C 
ENDBRANCH  15  17
ENDBRANCH  14  15
ENDBRANCH   1  14
TORSDOF 5
ENDMDL
MODEL 5
REMARK VINA RESULT:      -5.6      1.921      6.814
REMARK  Name = 
REMARK  6 active torsions:
REMARK  status: ('A' for Active; 'I' for Inactive)
REMARK    1  A    between atoms: C_2  and  C_3
REMARK    2  A    between atoms: C_3  and  C_4
REMARK    3  A    between atoms: C_4  and  O_6
REMARK    4  A    between atoms: O_6  and  C_7
REMARK    5  A    between atoms: C_9  and  C_12
REMARK    6  A    between atoms: C_15  and  O_16
REMARK                            x       y       z     vdW  Elec       q    Type
REMARK                         _______ _______ _______ _____ _____    ______ ____
ROOT
ATOM      1  C   UNL     1       9.350  -2.156  23.927  0.00  0.00    +0.221 C 
ATOM      2  O   UNL     1      10.148  -3.310  24.248  0.00  0.00    -0.389 OA
ATOM      3  N   UNL     1       9.308  -4.450  24.165  0.00  0.00    -0.089 NA
ATOM      4  C   UNL     1       8.089  -4.024  24.232  0.00  0.00    +0.091 C 
ATOM      5  C   UNL     1       7.953  -2.547  24.364  0.00  0.00    +0.107 C 
ENDROOT
BRANCH   4   6
ATOM      6  C   UNL     1       6.903  -4.899  24.160  0.00  0.00    -0.000 A 
ATOM      7  C   UNL     1       6.434  -5.375  22.931  0.00  0.00    +0.013 A 
ATOM      8  C   UNL     1       5.359  -6.266  22.896  0.00  0.00    +0.046 A 
ATOM      9  C   UNL     1       4.767  -6.680  24.084  0.00  0.00    +0.117 A 
ATOM     10  C   UNL     1       5.204  -6.187  25.312  0.00  0.00    +0.046 A 
ATOM     11  C   UNL     1       6.271  -5.286  25.348  0.00  0.00    +0.013 A 
BRANCH   9  12
ATOM     12  O   UNL     1       3.756  -7.590  24.004  0.00  0.00    -0.507 OA
ATOM     13  H   UNL     1       3.857  -8.097  23.181  0.00  0.00    +0.292 HD
ENDBRANCH   9  12
ENDBRANCH   4   6
BRANCH   1  14
ATOM     14  C   UNL     1       9.506  -1.868  22.436  0.00  0.00    +0.168 C 
BRANCH  14  15
ATOM     15  C   UNL     1       9.811  -0.418  22.190  0.00  0.00    +0.310 C 
ATOM     16  O   UNL     1       9.430   0.220  21.217  0.00  0.00    -0.251 OA
BRANCH  15  17
ATOM     17  O   UNL     1      10.576   0.078  23.201  0.00  0.00    -0.468 OA
ATOM     18  C   UNL     1      10.321   1.446  23.514  0.00  0.00    +0.280 C 
ENDBRANCH  15  17
ENDBRANCH  14  15
ENDBRANCH   1  14
TORSDOF 5
ENDMDL
MODEL 6
REMARK VINA RESULT:      -5.6      2.047      6.831
REMARK  Name = 
REMARK  6 active torsions:
REMARK  status: ('A' for Active; 'I' for Inactive)
REMARK    1  A    between atoms: C_2  and  C_3
REMARK    2  A    between atoms: C_3  and  C_4
REMARK    3  A    between atoms: C_4  and  O_6
REMARK    4  A    between atoms: O_6  and  C_7
REMARK    5  A    between atoms: C_9  and  C_12
REMARK    6  A    between atoms: C_15  and  O_16
REMARK                            x       y       z     vdW  Elec       q    Type
REMARK                         _______ _______ _______ _____ _____    ______ ____
ROOT
ATOM      1  C   UNL     1       9.179  -0.808  23.465  0.00  0.00    +0.221 C 
ATOM      2  O   UNL     1      10.235  -1.705  23.852  0.00  0.00    -0.389 OA
ATOM      3  N   UNL     1       9.721  -3.026  23.793  0.00  0.00    -0.089 NA
ATOM      4  C   UNL     1       8.431  -2.927  23.812  0.00  0.00    +0.091 C 
ATOM      5  C   UNL     1       7.915  -1.532  23.881  0.00  0.00    +0.107 C 
ENDROOT
BRANCH   4   6
ATOM      6  C   UNL     1       7.513  -4.081  23.743  0.00  0.00    -0.000 A 
ATOM      7  C   UNL     1       6.784  -4.488  24.866  0.00  0.00    +0.013 A 
ATOM      8  C   UNL     1       5.863  -5.531  24.755  0.00  0.00    +0.046 A 
ATOM      9  C   UNL     1       5.670  -6.153  23.526  0.00  0.00    +0.117 A 
ATOM     10  C   UNL     1       6.414  -5.779  22.409  0.00  0.00    +0.046 A 
ATOM     11  C   UNL     1       7.346  -4.744  22.522  0.00  0.00    +0.013 A 
BRANCH   9  12
ATOM     12  O   UNL     1       4.724  -7.130  23.453  0.00  0.00    -0.507 OA
ATOM     13  H   UNL     1       3.967  -6.873  24.006  0.00  0.00    +0.292 HD
ENDBRANCH   9  12
ENDBRANCH   4   6
BRANCH   1  14
ATOM     14  C   UNL     1       9.308  -0.536  21.968  0.00  0.00    +0.168 C 
BRANCH  14  15
ATOM     15  C   UNL     1       9.367   0.938  21.685  0.00  0.00    +0.310 C 
ATOM     16  O   UNL     1      10.335   1.654  21.909  0.00  0.00    -0.251 OA
BRANCH  15  17
ATOM     17  O   UNL     1       8.188   1.360  21.151  0.00  0.00    -0.468 OA
ATOM     18  C   UNL     1       7.503   2.336  21.935  0.00  0.00    +0.280 C 
ENDBRANCH  15  17
ENDBRANCH  14  15
ENDBRANCH   1  14
TORSDOF 5
ENDMDL
MODEL 7
REMARK VINA RESULT:      -5.6      1.940      6.741
REMARK  Name = 
REMARK  6 active torsions:
REMARK  status: ('A' for Active; 'I' for Inactive)
REMARK    1  A    between atoms: C_2  and  C_3
REMARK    2  A    between atoms: C_3  and  C_4
REMARK    3  A    between atoms: C_4  and  O_6
REMARK    4  A    between atoms: O_6  and  C_7
REMARK    5  A    between atoms: C_9  and  C_12
REMARK    6  A    between atoms: C_15  and  O_16
REMARK                            x       y       z     vdW  Elec       q    Type
REMARK                         _______ _______ _______ _____ _____    ______ ____
ROOT
ATOM      1  C   UNL     1      10.000  -0.186  22.965  0.00  0.00    +0.221 C 
ATOM      2  O   UNL     1      10.626  -1.259  22.239  0.00  0.00    -0.389 OA
ATOM      3  N   UNL     1      10.172  -2.481  22.801  0.00  0.00    -0.089 NA
ATOM      4  C   UNL     1       9.702  -2.202  23.974  0.00  0.00    +0.091 C 
ATOM      5  C   UNL     1       9.776  -0.763  24.347  0.00  0.00    +0.107 C 
ENDROOT
BRANCH   4   6
ATOM      6  C   UNL     1       9.109  -3.200  24.884  0.00  0.00    -0.000 A 
ATOM      7  C   UNL     1       9.571  -4.521  24.905  0.00  0.00    +0.013 A 
ATOM      8  C   UNL     1       9.048  -5.425  25.831  0.00  0.00    +0.046 A 
ATOM      9  C   UNL     1       8.077  -5.004  26.733  0.00  0.00    +0.117 A 
ATOM     10  C   UNL     1       7.585  -3.702  26.701  0.00  0.00    +0.046 A 
ATOM     11  C   UNL     1       8.098  -2.799  25.766  0.00  0.00    +0.013 A 
BRANCH   9  12
ATOM     12  O   UNL     1       7.634  -5.908  27.652  0.00  0.00    -0.507 OA
ATOM     13  H   UNL     1       6.937  -6.450  27.246  0.00  0.00    +0.292 HD
ENDBRANCH   9  12
ENDBRANCH   4   6
BRANCH   1  14
ATOM     14  C   UNL     1       8.731   0.218  22.218  0.00  0.00    +0.168 C 
BRANCH  14  15
ATOM     15  C   UNL     1       8.497   1.700  22.302  0.00  0.00    +0.310 C 
ATOM     16  O   UNL     1       9.345   2.523  22.622  0.00  0.00    -0.251 OA
BRANCH  15  17
ATOM     17  O   UNL     1       7.208   1.989  21.976  0.00  0.00    -0.468 OA
ATOM     18  C   UNL     1       6.877   3.375  22.060  0.00  0.00    +0.280 C 
ENDBRANCH  15  17
ENDBRANCH  14  15
ENDBRANCH   1  14
TORSDOF 5
ENDMDL
MODEL 8
REMARK VINA RESULT:      -5.6      2.539      6.574
REMARK  Name = 
REMARK  6 active torsions:
REMARK  status: ('A' for Active; 'I' for Inactive)
REMARK    1  A    between atoms: C_2  and  C_3
REMARK    2  A    between atoms: C_3  and  C_4
REMARK    3  A    between atoms: C_4  and  O_6
REMARK    4  A    between atoms: O_6  and  C_7
REMARK    5  A    between atoms: C_9  and  C_12
REMARK    6  A    between atoms: C_15  and  O_16
REMARK                            x       y       z     vdW  Elec       q    Type
REMARK                         _______ _______ _______ _____ _____    ______ ____
ROOT
ATOM      1  C   UNL     1       9.909  -1.715  23.953  0.00  0.00    +0.221 C 
ATOM      2  O   UNL     1       9.571  -1.533  22.567  0.00  0.00    -0.389 OA
ATOM      3  N   UNL     1       8.437  -2.341  22.292  0.00  0.00    -0.089 NA
ATOM      4  C   UNL     1       8.368  -3.225  23.234  0.00  0.00    +0.091 C 
ATOM      5  C   UNL     1       9.441  -3.122  24.262  0.00  0.00    +0.107 C 
ENDROOT
BRANCH   4   6
ATOM      6  C   UNL     1       7.311  -4.249  23.331  0.00  0.00    -0.000 A 
ATOM      7  C   UNL     1       6.921  -4.989  22.209  0.00  0.00    +0.013 A 
ATOM      8  C   UNL     1       5.976  -6.008  22.343  0.00  0.00    +0.046 A 
ATOM      9  C   UNL     1       5.434  -6.285  23.593  0.00  0.00    +0.117 A 
ATOM     10  C   UNL     1       5.789  -5.534  24.711  0.00  0.00    +0.046 A 
ATOM     11  C   UNL     1       6.725  -4.506  24.576  0.00  0.00    +0.013 A 
BRANCH   9  12
ATOM     12  O   UNL     1       4.554  -7.322  23.685  0.00  0.00    -0.507 OA
ATOM     13  H   UNL     1       4.238  -7.543  22.793  0.00  0.00    +0.292 HD
ENDBRANCH   9  12
ENDBRANCH   4   6
BRANCH   1  14
ATOM     14  C   UNL     1       9.226  -0.612  24.759  0.00  0.00    +0.168 C 
BRANCH  14  15
ATOM     15  C   UNL     1       9.909   0.711  24.561  0.00  0.00    +0.310 C 
ATOM     16  O   UNL     1      11.119   0.888  24.616  0.00  0.00    -0.251 OA
BRANCH  15  17
ATOM     17  O   UNL     1       8.986   1.681  24.317  0.00  0.00    -0.468 OA
ATOM     18  C   UNL     1       9.531   2.995  24.199  0.00  0.00    +0.280 C 
ENDBRANCH  15  17
ENDBRANCH  14  15
ENDBRANCH   1  14
TORSDOF 5
ENDMDL
MODEL 9
REMARK VINA RESULT:      -5.5      2.109      2.918
REMARK  Name = 
REMARK  6 active torsions:
REMARK  status: ('A' for Active; 'I' for Inactive)
REMARK    1  A    between atoms: C_2  and  C_3
REMARK    2  A    between atoms: C_3  and  C_4
REMARK    3  A    between atoms: C_4  and  O_6
REMARK    4  A    between atoms: O_6  and  C_7
REMARK    5  A    between atoms: C_9  and  C_12
REMARK    6  A    between atoms: C_15  and  O_16
REMARK                            x       y       z     vdW  Elec       q    Type
REMARK                         _______ _______ _______ _____ _____    ______ ____
ROOT
ATOM      1  C   UNL     1       9.103  -3.346  24.107  0.00  0.00    +0.221 C 
ATOM      2  O   UNL     1       8.861  -2.965  25.473  0.00  0.00    -0.389 OA
ATOM      3  N   UNL     1       8.810  -1.548  25.521  0.00  0.00    -0.089 NA
ATOM      4  C   UNL     1       9.382  -1.115  24.444  0.00  0.00    +0.091 C 
ATOM      5  C   UNL     1       9.885  -2.182  23.536  0.00  0.00    +0.107 C 
ENDROOT
BRANCH   4   6
ATOM      6  C   UNL     1       9.517   0.313  24.097  0.00  0.00    -0.000 A 
ATOM      7  C   UNL     1      10.129   0.709  22.903  0.00  0.00    +0.013 A 
ATOM      8  C   UNL     1      10.173   2.061  22.560  0.00  0.00    +0.046 A 
ATOM      9  C   UNL     1       9.601   3.006  23.406  0.00  0.00    +0.117 A 
ATOM     10  C   UNL     1       9.019   2.628  24.613  0.00  0.00    +0.046 A 
ATOM     11  C   UNL     1       8.985   1.276  24.964  0.00  0.00    +0.013 A 
BRANCH   9  12
ATOM     12  O   UNL     1       9.622   4.308  23.005  0.00  0.00    -0.507 OA
ATOM     13  H   UNL     1      10.524   4.533  22.722  0.00  0.00    +0.292 HD
ENDBRANCH   9  12
ENDBRANCH   4   6
BRANCH   1  14
ATOM     14  C   UNL     1       7.755  -3.611  23.440  0.00  0.00    +0.168 C 
BRANCH  14  15
ATOM     15  C   UNL     1       7.285  -5.015  23.698  0.00  0.00    +0.310 C 
ATOM     16  O   UNL     1       6.611  -5.359  24.660  0.00  0.00    -0.251 OA
BRANCH  15  17
ATOM     17  O   UNL     1       7.724  -5.843  22.711  0.00  0.00    -0.468 OA
ATOM     18  C   UNL     1       6.930  -5.817  21.525  0.00  0.00    +0.280 C 
ENDBRANCH  15  17
ENDBRANCH  14  15
ENDBRANCH   1  14
TORSDOF 5
ENDMDL
