MODEL 1
REMARK VINA RESULT:      -7.9      0.000      0.000
REMARK  Name = 
REMARK  7 active torsions:
REMARK  status: ('A' for Active; 'I' for Inactive)
REMARK    1  A    between atoms: C_5  and  C_6
REMARK    2  A    between atoms: N_10  and  C_11
REMARK    3  A    between atoms: CA_19  and  C_37
REMARK    4  A    between atoms: CA_23  and  N_25
REMARK    5  A    between atoms: C_26  and  C_28
REMARK    6  A    between atoms: C_28  and  N_29
REMARK    7  A    between atoms: C_37  and  O_38
REMARK                            x       y       z     vdW  Elec       q    Type
REMARK                         _______ _______ _______ _____ _____    ______ ____
ROOT
ATOM      1  C   UNL     1       7.018  -3.661  23.670  0.00  0.00    +0.169 C 
ATOM      2  CA  UNL     1       7.637  -4.802  24.554  0.00  0.00    +0.191 C 
ATOM      3  C   UNL     1       8.982  -4.034  24.282  0.00  0.00    +0.244 C 
ATOM      4  O   UNL     1      10.161  -4.130  24.528  0.00  0.00    -0.273 OA
ATOM      5  N   UNL     1       8.307  -2.995  23.748  0.00  0.00    -0.249 N 
ATOM      6  CA  UNL     1       8.546  -1.722  23.295  0.00  0.00    +0.126 C 
ATOM      7  C   UNL     1       7.510  -0.852  23.155  0.00  0.00    -0.009 C 
ATOM      8  C   UNL     1       6.052  -1.189  23.442  0.00  0.00    +0.108 C 
ATOM      9  S   UNL     1       5.779  -2.626  24.495  0.00  0.00    -0.131 S 
ENDROOT
BRANCH   7  10
ATOM     10  C   UNL     1       7.595   0.564  22.745  0.00  0.00    +0.015 C 
ATOM     11  C   UNL     1       7.930   1.600  23.525  0.00  0.00    +0.016 C 
ATOM     12  C   UNL     1       7.856   3.041  23.086  0.00  0.00    +0.243 C 
ATOM     13  O   UNL     1       7.665   3.430  21.950  0.00  0.00    -0.270 OA
ATOM     14  N   UNL     1       8.018   3.806  24.238  0.00  0.00    -0.293 N 
ATOM     15  C   UNL     1       7.910   2.974  25.416  0.00  0.00    +0.113 C 
ATOM     16  C   UNL     1       8.371   1.608  24.952  0.00  0.00    +0.059 C 
BRANCH  14  17
ATOM     17  C   UNL     1       7.992   5.281  24.251  0.00  0.00    +0.091 C 
ATOM     18  C   UNL     1       8.093   5.919  25.646  0.00  0.00    +0.103 C 
ATOM     19  N   UNL     1       9.503   6.326  25.858  0.00  0.00    -0.314 NA
ATOM     20  H   UNL     1       9.523   7.331  26.041  0.00  0.00    +0.122 HD
ATOM     21  C   UNL     1      10.222   6.051  24.611  0.00  0.00    +0.083 C 
ATOM     22  C   UNL     1       9.159   5.950  23.532  0.00  0.00    +0.039 C 
ENDBRANCH  14  17
ENDBRANCH   7  10
BRANCH   2  23
ATOM     23  N   UNL     1       7.179  -4.814  25.968  0.00  0.00    -0.296 N 
ATOM     24  H   UNL     1       7.760  -4.336  26.661  0.00  0.00    +0.150 HD
ATOM     25  C   UNL     1       6.217  -5.659  26.472  0.00  0.00    +0.270 C 
ATOM     26  O   UNL     1       5.571  -6.396  25.731  0.00  0.00    -0.268 OA
BRANCH  25  27
ATOM     27  C   UNL     1       5.990  -5.581  27.979  0.00  0.00    +0.211 C 
ATOM     28  C   UNL     1       5.131  -4.685  28.544  0.00  0.00    +0.174 A 
ATOM     29  N   UNL     1       4.418  -3.783  27.745  0.00  0.00    -0.204 NA
ATOM     30  C   UNL     1       3.712  -3.013  28.513  0.00  0.00    +0.174 A 
ATOM     31  N   UNL     1       2.902  -2.012  28.095  0.00  0.00    -0.336 N 
ATOM     32  H   UNL     1       2.621  -2.088  27.124  0.00  0.00    +0.144 HD
ATOM     33  H   UNL     1       2.153  -1.763  28.729  0.00  0.00    +0.144 HD
ATOM     34  S   UNL     1       3.827  -3.361  30.233  0.00  0.00    +0.023 S 
ATOM     35  N   UNL     1       4.891  -4.583  29.909  0.00  0.00    -0.306 N 
ATOM     36  H   UNL     1       5.347  -5.201  30.573  0.00  0.00    +0.176 HD
BRANCH  27  37
ATOM     37  N   UNL     1       6.737  -6.392  28.742  0.00  0.00    -0.022 NA
ATOM     38  O   UNL     1       6.207  -7.476  29.017  0.00  0.00    -0.143 OA
ENDBRANCH  27  37
ENDBRANCH  25  27
ENDBRANCH   2  23
BRANCH   6  39
ATOM     39  C   UNL     1       9.953  -1.294  22.930  0.00  0.00    +0.352 C 
ATOM     40  OXT UNL     1      10.706  -0.741  23.720  0.00  0.00    -0.244 OA
BRANCH  39  41
ATOM     41  O   UNL     1      10.367  -1.540  21.675  0.00  0.00    -0.476 OA
ATOM     42  H   UNL     1       9.714  -1.880  21.021  0.00  0.00    +0.295 HD
ENDBRANCH  39  41
ENDBRANCH   6  39
TORSDOF 7
ENDMDL
MODEL 2
REMARK VINA RESULT:      -7.9      3.232      9.578
REMARK  Name = 
REMARK  7 active torsions:
REMARK  status: ('A' for Active; 'I' for Inactive)
REMARK    1  A    between atoms: C_5  and  C_6
REMARK    2  A    between atoms: N_10  and  C_11
REMARK    3  A    between atoms: CA_19  and  C_37
REMARK    4  A    between atoms: CA_23  and  N_25
REMARK    5  A    between atoms: C_26  and  C_28
REMARK    6  A    between atoms: C_28  and  N_29
REMARK    7  A    between atoms: C_37  and  O_38
REMARK                            x       y       z     vdW  Elec       q    Type
REMARK                         _______ _______ _______ _____ _____    ______ ____
ROOT
ATOM      1  C   UNL     1       9.060  -1.125  25.792  0.00  0.00    +0.169 C 
ATOM      2  CA  UNL     1       9.796  -0.311  24.667  0.00  0.00    +0.191 C 
ATOM      3  C   UNL     1       9.965  -1.728  24.005  0.00  0.00    +0.244 C 
ATOM      4  O   UNL     1      10.467  -2.231  23.029  0.00  0.00    -0.273 OA
ATOM      5  N   UNL     1       9.117  -2.273  24.902  0.00  0.00    -0.249 N 
ATOM      6  CA  UNL     1       8.479  -3.464  25.139  0.00  0.00    +0.126 C 
ATOM      7  C   UNL     1       7.409  -3.499  25.978  0.00  0.00    -0.009 C 
ATOM      8  C   UNL     1       6.855  -2.292  26.724  0.00  0.00    +0.108 C 
ATOM      9  S   UNL     1       7.322  -0.684  26.058  0.00  0.00    -0.131 S 
ENDROOT
BRANCH   7  10
ATOM     10  C   UNL     1       6.571  -4.673  26.292  0.00  0.00    +0.015 C 
ATOM     11  C   UNL     1       5.455  -5.050  25.654  0.00  0.00    +0.016 C 
ATOM     12  C   UNL     1       4.562  -6.174  26.114  0.00  0.00    +0.243 C 
ATOM     13  O   UNL     1       4.822  -6.978  26.989  0.00  0.00    -0.270 OA
ATOM     14  N   UNL     1       3.394  -6.075  25.361  0.00  0.00    -0.293 N 
ATOM     15  C   UNL     1       3.355  -4.813  24.656  0.00  0.00    +0.113 C 
ATOM     16  C   UNL     1       4.811  -4.458  24.443  0.00  0.00    +0.059 C 
BRANCH  14  17
ATOM     17  C   UNL     1       2.244  -6.985  25.513  0.00  0.00    +0.091 C 
ATOM     18  C   UNL     1       0.898  -6.412  25.040  0.00  0.00    +0.103 C 
ATOM     19  N   UNL     1       0.637  -6.933  23.677  0.00  0.00    -0.314 NA
ATOM     20  H   UNL     1      -0.250  -7.439  23.691  0.00  0.00    +0.122 HD
ATOM     21  C   UNL     1       1.718  -7.871  23.360  0.00  0.00    +0.083 C 
ATOM     22  C   UNL     1       2.326  -8.268  24.693  0.00  0.00    +0.039 C 
ENDBRANCH  14  17
ENDBRANCH   7  10
BRANCH   2  23
ATOM     23  N   UNL     1       8.934   0.646  23.924  0.00  0.00    -0.296 N 
ATOM     24  H   UNL     1       7.988   0.345  23.680  0.00  0.00    +0.150 HD
ATOM     25  C   UNL     1       9.392   1.771  23.278  0.00  0.00    +0.270 C 
ATOM     26  O   UNL     1      10.563   2.129  23.381  0.00  0.00    -0.268 OA
BRANCH  25  27
ATOM     27  C   UNL     1       8.349   2.545  22.477  0.00  0.00    +0.211 C 
ATOM     28  C   UNL     1       8.199   3.897  22.583  0.00  0.00    +0.174 A 
ATOM     29  N   UNL     1       9.009   4.635  23.454  0.00  0.00    -0.204 NA
ATOM     30  C   UNL     1       8.645   5.879  23.410  0.00  0.00    +0.174 A 
ATOM     31  N   UNL     1       9.196   6.887  24.126  0.00  0.00    -0.336 N 
ATOM     32  H   UNL     1      10.126   6.684  24.474  0.00  0.00    +0.144 HD
ATOM     33  H   UNL     1       9.089   7.812  23.731  0.00  0.00    +0.144 HD
ATOM     34  S   UNL     1       7.342   6.238  22.285  0.00  0.00    +0.023 S 
ATOM     35  N   UNL     1       7.267   4.640  21.869  0.00  0.00    -0.306 N 
ATOM     36  H   UNL     1       6.641   4.201  21.201  0.00  0.00    +0.176 HD
BRANCH  27  37
ATOM     37  N   UNL     1       7.523   1.821  21.707  0.00  0.00    -0.022 NA
ATOM     38  O   UNL     1       6.442   1.533  22.235  0.00  0.00    -0.143 OA
ENDBRANCH  27  37
ENDBRANCH  25  27
ENDBRANCH   2  23
BRANCH   6  39
ATOM     39  C   UNL     1       8.976  -4.739  24.489  0.00  0.00    +0.352 C 
ATOM     40  OXT UNL     1       8.398  -5.279  23.555  0.00  0.00    -0.244 OA
BRANCH  39  41
ATOM     41  O   UNL     1      10.103  -5.284  24.980  0.00  0.00    -0.476 OA
ATOM     42  H   UNL     1      10.957  -5.082  24.534  0.00  0.00    +0.295 HD
ENDBRANCH  39  41
ENDBRANCH   6  39
TORSDOF 7
ENDMDL
MODEL 3
REMARK VINA RESULT:      -7.6      2.446      4.133
REMARK  Name = 
REMARK  7 active torsions:
REMARK  status: ('A' for Active; 'I' for Inactive)
REMARK    1  A    between atoms: C_5  and  C_6
REMARK    2  A    between atoms: N_10  and  C_11
REMARK    3  A    between atoms: CA_19  and  C_37
REMARK    4  A    between atoms: CA_23  and  N_25
REMARK    5  A    between atoms: C_26  and  C_28
REMARK    6  A    between atoms: C_28  and  N_29
REMARK    7  A    between atoms: C_37  and  O_38
REMARK                            x       y       z     vdW  Elec       q    Type
REMARK                         _______ _______ _______ _____ _____    ______ ____
ROOT
ATOM      1  C   UNL     1       5.379  -6.289  25.252  0.00  0.00    +0.169 C 
ATOM      2  CA  UNL     1       4.881  -6.647  26.698  0.00  0.00    +0.191 C 
ATOM      3  C   UNL     1       6.322  -6.177  27.115  0.00  0.00    +0.244 C 
ATOM      4  O   UNL     1       7.007  -6.080  28.106  0.00  0.00    -0.273 OA
ATOM      5  N   UNL     1       6.545  -5.688  25.877  0.00  0.00    -0.249 N 
ATOM      6  CA  UNL     1       7.484  -4.947  25.205  0.00  0.00    +0.126 C 
ATOM      7  C   UNL     1       7.158  -4.361  24.022  0.00  0.00    -0.009 C 
ATOM      8  C   UNL     1       5.800  -4.482  23.342  0.00  0.00    +0.108 C 
ATOM      9  S   UNL     1       4.438  -4.989  24.408  0.00  0.00    -0.131 S 
ENDROOT
BRANCH   7  10
ATOM     10  C   UNL     1       8.018  -3.483  23.204  0.00  0.00    +0.015 C 
ATOM     11  C   UNL     1       8.031  -2.143  23.217  0.00  0.00    +0.016 C 
ATOM     12  C   UNL     1       8.827  -1.301  22.253  0.00  0.00    +0.243 C 
ATOM     13  O   UNL     1       9.676  -1.710  21.483  0.00  0.00    -0.270 OA
ATOM     14  N   UNL     1       8.370   0.005  22.409  0.00  0.00    -0.293 N 
ATOM     15  C   UNL     1       7.154   0.023  23.192  0.00  0.00    +0.113 C 
ATOM     16  C   UNL     1       7.264  -1.197  24.081  0.00  0.00    +0.059 C 
BRANCH  14  17
ATOM     17  C   UNL     1       8.882   1.149  21.632  0.00  0.00    +0.091 C 
ATOM     18  C   UNL     1       7.993   2.403  21.662  0.00  0.00    +0.103 C 
ATOM     19  N   UNL     1       8.552   3.333  22.671  0.00  0.00    -0.314 NA
ATOM     20  H   UNL     1       8.772   4.216  22.207  0.00  0.00    +0.122 HD
ATOM     21  C   UNL     1       9.793   2.732  23.169  0.00  0.00    +0.083 C 
ATOM     22  C   UNL     1      10.211   1.716  22.122  0.00  0.00    +0.039 C 
ENDBRANCH  14  17
ENDBRANCH   7  10
BRANCH   2  23
ATOM     23  N   UNL     1       3.761  -5.807  27.199  0.00  0.00    -0.296 N 
ATOM     24  H   UNL     1       3.534  -4.957  26.679  0.00  0.00    +0.150 HD
ATOM     25  C   UNL     1       3.208  -5.909  28.455  0.00  0.00    +0.270 C 
ATOM     26  O   UNL     1       3.538  -6.811  29.221  0.00  0.00    -0.268 OA
BRANCH  25  27
ATOM     27  C   UNL     1       2.149  -4.865  28.799  0.00  0.00    +0.211 C 
ATOM     28  C   UNL     1       2.411  -3.527  28.791  0.00  0.00    +0.174 A 
ATOM     29  N   UNL     1       3.689  -3.055  28.468  0.00  0.00    -0.204 NA
ATOM     30  C   UNL     1       3.696  -1.762  28.576  0.00  0.00    +0.174 A 
ATOM     31  N   UNL     1       4.762  -0.959  28.351  0.00  0.00    -0.336 N 
ATOM     32  H   UNL     1       5.485  -1.384  27.783  0.00  0.00    +0.144 HD
ATOM     33  H   UNL     1       4.543  -0.003  28.103  0.00  0.00    +0.144 HD
ATOM     34  S   UNL     1       2.156  -1.040  29.024  0.00  0.00    +0.023 S 
ATOM     35  N   UNL     1       1.476  -2.544  29.093  0.00  0.00    -0.306 N 
ATOM     36  H   UNL     1       0.516  -2.781  29.326  0.00  0.00    +0.176 HD
BRANCH  27  37
ATOM     37  N   UNL     1       0.952  -5.329  29.186  0.00  0.00    -0.022 NA
ATOM     38  O   UNL     1       0.679  -5.128  30.376  0.00  0.00    -0.143 OA
ENDBRANCH  27  37
ENDBRANCH  25  27
ENDBRANCH   2  23
BRANCH   6  39
ATOM     39  C   UNL     1       8.884  -4.801  25.765  0.00  0.00    +0.352 C 
ATOM     40  OXT UNL     1       9.188  -3.941  26.580  0.00  0.00    -0.244 OA
BRANCH  39  41
ATOM     41  O   UNL     1       9.817  -5.665  25.328  0.00  0.00    -0.476 OA
ATOM     42  H   UNL     1       9.536  -6.574  25.077  0.00  0.00    +0.295 HD
ENDBRANCH  39  41
ENDBRANCH   6  39
TORSDOF 7
ENDMDL
MODEL 4
REMARK VINA RESULT:      -7.5      3.355      4.355
REMARK  Name = 
REMARK  7 active torsions:
REMARK  status: ('A' for Active; 'I' for Inactive)
REMARK    1  A    between atoms: C_5  and  C_6
REMARK    2  A    between atoms: N_10  and  C_11
REMARK    3  A    between atoms: CA_19  and  C_37
REMARK    4  A    between atoms: CA_23  and  N_25
REMARK    5  A    between atoms: C_26  and  C_28
REMARK    6  A    between atoms: C_28  and  N_29
REMARK    7  A    between atoms: C_37  and  O_38
REMARK                            x       y       z     vdW  Elec       q    Type
REMARK                         _______ _______ _______ _____ _____    ______ ____
ROOT
ATOM      1  C   UNL     1       8.604  -3.960  25.126  0.00  0.00    +0.169 C 
ATOM      2  CA  UNL     1       7.448  -4.879  25.661  0.00  0.00    +0.191 C 
ATOM      3  C   UNL     1       7.170  -3.662  26.619  0.00  0.00    +0.244 C 
ATOM      4  O   UNL     1       6.428  -3.354  27.520  0.00  0.00    -0.273 OA
ATOM      5  N   UNL     1       8.028  -2.889  25.921  0.00  0.00    -0.249 N 
ATOM      6  CA  UNL     1       8.436  -1.580  25.863  0.00  0.00    +0.126 C 
ATOM      7  C   UNL     1       9.084  -1.126  24.757  0.00  0.00    -0.009 C 
ATOM      8  C   UNL     1       9.433  -1.983  23.546  0.00  0.00    +0.108 C 
ATOM      9  S   UNL     1       8.489  -3.508  23.374  0.00  0.00    -0.131 S 
ENDROOT
BRANCH   7  10
ATOM     10  C   UNL     1       9.533   0.257  24.501  0.00  0.00    +0.015 C 
ATOM     11  C   UNL     1       8.753   1.303  24.195  0.00  0.00    +0.016 C 
ATOM     12  C   UNL     1       9.283   2.658  23.800  0.00  0.00    +0.243 C 
ATOM     13  O   UNL     1      10.440   3.022  23.881  0.00  0.00    -0.270 OA
ATOM     14  N   UNL     1       8.193   3.372  23.307  0.00  0.00    -0.293 N 
ATOM     15  C   UNL     1       7.067   2.490  23.094  0.00  0.00    +0.113 C 
ATOM     16  C   UNL     1       7.264   1.381  24.107  0.00  0.00    +0.059 C 
BRANCH  14  17
ATOM     17  C   UNL     1       8.283   4.752  22.793  0.00  0.00    +0.091 C 
ATOM     18  C   UNL     1       6.970   5.322  22.235  0.00  0.00    +0.103 C 
ATOM     19  N   UNL     1       6.357   6.166  23.288  0.00  0.00    -0.314 NA
ATOM     20  H   UNL     1       6.241   7.110  22.917  0.00  0.00    +0.122 HD
ATOM     21  C   UNL     1       7.298   6.203  24.411  0.00  0.00    +0.083 C 
ATOM     22  C   UNL     1       8.645   5.803  23.837  0.00  0.00    +0.039 C 
ENDBRANCH  14  17
ENDBRANCH   7  10
BRANCH   2  23
ATOM     23  N   UNL     1       6.378  -5.175  24.672  0.00  0.00    -0.296 N 
ATOM     24  H   UNL     1       6.373  -4.640  23.800  0.00  0.00    +0.150 HD
ATOM     25  C   UNL     1       5.229  -5.880  24.950  0.00  0.00    +0.270 C 
ATOM     26  O   UNL     1       5.071  -6.428  26.039  0.00  0.00    -0.268 OA
BRANCH  25  27
ATOM     27  C   UNL     1       4.212  -5.962  23.816  0.00  0.00    +0.211 C 
ATOM     28  C   UNL     1       3.213  -6.890  23.794  0.00  0.00    +0.174 A 
ATOM     29  N   UNL     1       3.089  -7.824  24.830  0.00  0.00    -0.204 NA
ATOM     30  C   UNL     1       2.101  -8.620  24.558  0.00  0.00    +0.174 A 
ATOM     31  N   UNL     1       1.689  -9.654  25.328  0.00  0.00    -0.336 N 
ATOM     32  H   UNL     1       1.988  -9.594  26.294  0.00  0.00    +0.144 HD
ATOM     33  H   UNL     1       0.723  -9.932  25.205  0.00  0.00    +0.144 HD
ATOM     34  S   UNL     1       1.238  -8.260  23.069  0.00  0.00    +0.023 S 
ATOM     35  N   UNL     1       2.263  -6.996  22.785  0.00  0.00    -0.306 N 
ATOM     36  H   UNL     1       2.258  -6.357  21.996  0.00  0.00    +0.176 HD
BRANCH  27  37
ATOM     37  N   UNL     1       4.387  -5.117  22.789  0.00  0.00    -0.022 NA
ATOM     38  O   UNL     1       5.045  -5.577  21.847  0.00  0.00    -0.143 OA
ENDBRANCH  27  37
ENDBRANCH  25  27
ENDBRANCH   2  23
BRANCH   6  39
ATOM     39  C   UNL     1       8.187  -0.650  27.033  0.00  0.00    +0.352 C 
ATOM     40  OXT UNL     1       7.103  -0.122  27.243  0.00  0.00    -0.244 OA
BRANCH  39  41
ATOM     41  O   UNL     1       9.219  -0.407  27.860  0.00  0.00    -0.476 OA
ATOM     42  H   UNL     1      10.017   0.040  27.498  0.00  0.00    +0.295 HD
ENDBRANCH  39  41
ENDBRANCH   6  39
TORSDOF 7
ENDMDL
MODEL 5
REMARK VINA RESULT:      -7.1      3.763      9.222
REMARK  Name = 
REMARK  7 active torsions:
REMARK  status: ('A' for Active; 'I' for Inactive)
REMARK    1  A    between atoms: C_5  and  C_6
REMARK    2  A    between atoms: N_10  and  C_11
REMARK    3  A    between atoms: CA_19  and  C_37
REMARK    4  A    between atoms: CA_23  and  N_25
REMARK    5  A    between atoms: C_26  and  C_28
REMARK    6  A    between atoms: C_28  and  N_29
REMARK    7  A    between atoms: C_37  and  O_38
REMARK                            x       y       z     vdW  Elec       q    Type
REMARK                         _______ _______ _______ _____ _____    ______ ____
ROOT
ATOM      1  C   UNL     1       8.037   3.509  25.224  0.00  0.00    +0.169 C 
ATOM      2  CA  UNL     1       7.354   4.803  24.654  0.00  0.00    +0.191 C 
ATOM      3  C   UNL     1       7.815   4.216  23.269  0.00  0.00    +0.244 C 
ATOM      4  O   UNL     1       7.792   4.503  22.096  0.00  0.00    -0.273 OA
ATOM      5  N   UNL     1       8.151   3.046  23.852  0.00  0.00    -0.249 N 
ATOM      6  CA  UNL     1       8.558   1.786  23.494  0.00  0.00    +0.126 C 
ATOM      7  C   UNL     1       8.453   0.766  24.388  0.00  0.00    -0.009 C 
ATOM      8  C   UNL     1       7.929   0.913  25.811  0.00  0.00    +0.108 C 
ATOM      9  S   UNL     1       6.938   2.384  26.126  0.00  0.00    -0.131 S 
ENDROOT
BRANCH   7  10
ATOM     10  C   UNL     1       8.781  -0.654  24.150  0.00  0.00    +0.015 C 
ATOM     11  C   UNL     1       7.942  -1.603  23.715  0.00  0.00    +0.016 C 
ATOM     12  C   UNL     1       8.297  -3.066  23.633  0.00  0.00    +0.243 C 
ATOM     13  O   UNL     1       9.410  -3.537  23.771  0.00  0.00    -0.270 OA
ATOM     14  N   UNL     1       7.102  -3.743  23.402  0.00  0.00    -0.293 N 
ATOM     15  C   UNL     1       5.975  -2.862  23.609  0.00  0.00    +0.113 C 
ATOM     16  C   UNL     1       6.515  -1.483  23.290  0.00  0.00    +0.059 C 
BRANCH  14  17
ATOM     17  C   UNL     1       7.005  -5.210  23.272  0.00  0.00    +0.091 C 
ATOM     18  C   UNL     1       5.584  -5.779  23.410  0.00  0.00    +0.103 C 
ATOM     19  N   UNL     1       5.053  -6.010  22.046  0.00  0.00    -0.314 NA
ATOM     20  H   UNL     1       4.809  -6.998  21.959  0.00  0.00    +0.122 HD
ATOM     21  C   UNL     1       6.133  -5.699  21.105  0.00  0.00    +0.083 C 
ATOM     22  C   UNL     1       7.417  -5.763  21.913  0.00  0.00    +0.039 C 
ENDBRANCH  14  17
ENDBRANCH   7  10
BRANCH   2  23
ATOM     23  N   UNL     1       5.884   4.877  24.862  0.00  0.00    -0.296 N 
ATOM     24  H   UNL     1       5.362   3.997  24.891  0.00  0.00    +0.150 HD
ATOM     25  C   UNL     1       5.130   6.018  24.718  0.00  0.00    +0.270 C 
ATOM     26  O   UNL     1       5.662   7.108  24.518  0.00  0.00    -0.268 OA
BRANCH  25  27
ATOM     27  C   UNL     1       3.621   5.838  24.863  0.00  0.00    +0.211 C 
ATOM     28  C   UNL     1       2.840   5.364  23.851  0.00  0.00    +0.174 A 
ATOM     29  N   UNL     1       3.405   5.025  22.616  0.00  0.00    -0.204 NA
ATOM     30  C   UNL     1       2.459   4.647  21.813  0.00  0.00    +0.174 A 
ATOM     31  N   UNL     1       2.626   4.254  20.529  0.00  0.00    -0.336 N 
ATOM     32  H   UNL     1       3.571   3.963  20.307  0.00  0.00    +0.144 HD
ATOM     33  H   UNL     1       1.904   3.648  20.160  0.00  0.00    +0.144 HD
ATOM     34  S   UNL     1       0.845   4.632  22.512  0.00  0.00    +0.023 S 
ATOM     35  N   UNL     1       1.465   5.180  23.943  0.00  0.00    -0.306 N 
ATOM     36  H   UNL     1       0.961   5.382  24.800  0.00  0.00    +0.176 HD
BRANCH  27  37
ATOM     37  N   UNL     1       3.076   6.242  26.021  0.00  0.00    -0.022 NA
ATOM     38  O   UNL     1       3.679   5.869  27.034  0.00  0.00    -0.143 OA
ENDBRANCH  27  37
ENDBRANCH  25  27
ENDBRANCH   2  23
BRANCH   6  39
ATOM     39  C   UNL     1       9.143   1.535  22.119  0.00  0.00    +0.352 C 
ATOM     40  OXT UNL     1       8.676   0.717  21.337  0.00  0.00    -0.244 OA
BRANCH  39  41
ATOM     41  O   UNL     1      10.225   2.251  21.768  0.00  0.00    -0.476 OA
ATOM     42  H   UNL     1      11.088   2.039  22.191  0.00  0.00    +0.295 HD
ENDBRANCH  39  41
ENDBRANCH   6  39
TORSDOF 7
ENDMDL
MODEL 6
REMARK VINA RESULT:      -7.1      3.110      9.378
REMARK  Name = 
REMARK  7 active torsions:
REMARK  status: ('A' for Active; 'I' for Inactive)
REMARK    1  A    between atoms: C_5  and  C_6
REMARK    2  A    between atoms: N_10  and  C_11
REMARK    3  A    between atoms: CA_19  and  C_37
REMARK    4  A    between atoms: CA_23  and  N_25
REMARK    5  A    between atoms: C_26  and  C_28
REMARK    6  A    between atoms: C_28  and  N_29
REMARK    7  A    between atoms: C_37  and  O_38
REMARK                            x       y       z     vdW  Elec       q    Type
REMARK                         _______ _______ _______ _____ _____    ______ ____
ROOT
ATOM      1  C   UNL     1       9.817  -2.298  24.156  0.00  0.00    +0.169 C 
ATOM      2  CA  UNL     1      10.173  -1.084  23.225  0.00  0.00    +0.191 C 
ATOM      3  C   UNL     1       9.172  -1.785  22.234  0.00  0.00    +0.244 C 
ATOM      4  O   UNL     1       8.730  -1.639  21.119  0.00  0.00    -0.273 OA
ATOM      5  N   UNL     1       8.773  -2.635  23.203  0.00  0.00    -0.249 N 
ATOM      6  CA  UNL     1       7.821  -3.601  23.411  0.00  0.00    +0.126 C 
ATOM      7  C   UNL     1       7.523  -3.989  24.680  0.00  0.00    -0.009 C 
ATOM      8  C   UNL     1       8.197  -3.443  25.933  0.00  0.00    +0.108 C 
ATOM      9  S   UNL     1       9.042  -1.864  25.736  0.00  0.00    -0.131 S 
ENDROOT
BRANCH   7  10
ATOM     10  C   UNL     1       6.488  -4.960  25.087  0.00  0.00    +0.015 C 
ATOM     11  C   UNL     1       5.200  -4.693  25.340  0.00  0.00    +0.016 C 
ATOM     12  C   UNL     1       4.226  -5.702  25.894  0.00  0.00    +0.243 C 
ATOM     13  O   UNL     1       4.425  -6.896  26.007  0.00  0.00    -0.270 OA
ATOM     14  N   UNL     1       3.093  -4.983  26.266  0.00  0.00    -0.293 N 
ATOM     15  C   UNL     1       3.370  -3.564  26.255  0.00  0.00    +0.113 C 
ATOM     16  C   UNL     1       4.458  -3.403  25.214  0.00  0.00    +0.059 C 
BRANCH  14  17
ATOM     17  C   UNL     1       1.898  -5.597  26.875  0.00  0.00    +0.091 C 
ATOM     18  C   UNL     1       1.866  -7.133  26.830  0.00  0.00    +0.103 C 
ATOM     19  N   UNL     1       2.321  -7.635  28.149  0.00  0.00    -0.314 NA
ATOM     20  H   UNL     1       1.580  -8.216  28.545  0.00  0.00    +0.122 HD
ATOM     21  C   UNL     1       2.525  -6.465  29.008  0.00  0.00    +0.083 C 
ATOM     22  C   UNL     1       1.733  -5.339  28.368  0.00  0.00    +0.039 C 
ENDBRANCH  14  17
ENDBRANCH   7  10
BRANCH   2  23
ATOM     23  N   UNL     1       9.743   0.243  23.739  0.00  0.00    -0.296 N 
ATOM     24  H   UNL     1       9.217   0.267  24.615  0.00  0.00    +0.150 HD
ATOM     25  C   UNL     1       9.725   1.401  22.996  0.00  0.00    +0.270 C 
ATOM     26  O   UNL     1      10.193   1.432  21.860  0.00  0.00    -0.268 OA
BRANCH  25  27
ATOM     27  C   UNL     1       9.133   2.624  23.690  0.00  0.00    +0.211 C 
ATOM     28  C   UNL     1       9.826   3.789  23.839  0.00  0.00    +0.174 A 
ATOM     29  N   UNL     1      11.136   3.903  23.358  0.00  0.00    -0.204 NA
ATOM     30  C   UNL     1      11.591   5.079  23.660  0.00  0.00    +0.174 A 
ATOM     31  N   UNL     1      12.827   5.545  23.364  0.00  0.00    -0.336 N 
ATOM     32  H   UNL     1      13.286   5.045  22.611  0.00  0.00    +0.144 HD
ATOM     33  H   UNL     1      12.913   6.552  23.312  0.00  0.00    +0.144 HD
ATOM     34  S   UNL     1      10.456   6.129  24.497  0.00  0.00    +0.023 S 
ATOM     35  N   UNL     1       9.323   4.927  24.459  0.00  0.00    -0.306 N 
ATOM     36  H   UNL     1       8.378   4.952  24.830  0.00  0.00    +0.176 HD
BRANCH  27  37
ATOM     37  N   UNL     1       7.909   2.481  24.220  0.00  0.00    -0.022 NA
ATOM     38  O   UNL     1       7.895   2.259  25.437  0.00  0.00    -0.143 OA
ENDBRANCH  27  37
ENDBRANCH  25  27
ENDBRANCH   2  23
BRANCH   6  39
ATOM     39  C   UNL     1       7.122  -4.249  22.234  0.00  0.00    +0.352 C 
ATOM     40  OXT UNL     1       6.182  -3.727  21.649  0.00  0.00    -0.244 OA
BRANCH  39  41
ATOM     41  O   UNL     1       7.570  -5.454  21.837  0.00  0.00    -0.476 OA
ATOM     42  H   UNL     1       7.124  -6.259  22.183  0.00  0.00    +0.295 HD
ENDBRANCH  39  41
ENDBRANCH   6  39
TORSDOF 7
ENDMDL
MODEL 7
REMARK VINA RESULT:      -7.0      3.130      8.981
REMARK  Name = 
REMARK  7 active torsions:
REMARK  status: ('A' for Active; 'I' for Inactive)
REMARK    1  A    between atoms: C_5  and  C_6
REMARK    2  A    between atoms: N_10  and  C_11
REMARK    3  A    between atoms: CA_19  and  C_37
REMARK    4  A    between atoms: CA_23  and  N_25
REMARK    5  A    between atoms: C_26  and  C_28
REMARK    6  A    between atoms: C_28  and  N_29
REMARK    7  A    between atoms: C_37  and  O_38
REMARK                            x       y       z     vdW  Elec       q    Type
REMARK                         _______ _______ _______ _____ _____    ______ ____
ROOT
ATOM      1  C   UNL     1       9.454   1.777  24.691  0.00  0.00    +0.169 C 
ATOM      2  CA  UNL     1       9.539   3.017  23.731  0.00  0.00    +0.191 C 
ATOM      3  C   UNL     1       9.894   1.929  22.653  0.00  0.00    +0.244 C 
ATOM      4  O   UNL     1      10.192   1.856  21.484  0.00  0.00    -0.273 OA
ATOM      5  N   UNL     1       9.561   0.940  23.508  0.00  0.00    -0.249 N 
ATOM      6  CA  UNL     1       9.398  -0.422  23.510  0.00  0.00    +0.126 C 
ATOM      7  C   UNL     1       8.697  -1.014  24.515  0.00  0.00    -0.009 C 
ATOM      8  C   UNL     1       8.080  -0.272  25.693  0.00  0.00    +0.108 C 
ATOM      9  S   UNL     1       7.834   1.497  25.456  0.00  0.00    -0.131 S 
ENDROOT
BRANCH   7  10
ATOM     10  C   UNL     1       8.372  -2.449  24.638  0.00  0.00    +0.015 C 
ATOM     11  C   UNL     1       7.391  -3.102  24.002  0.00  0.00    +0.016 C 
ATOM     12  C   UNL     1       7.016  -4.535  24.281  0.00  0.00    +0.243 C 
ATOM     13  O   UNL     1       7.649  -5.317  24.964  0.00  0.00    -0.270 OA
ATOM     14  N   UNL     1       5.804  -4.753  23.629  0.00  0.00    -0.293 N 
ATOM     15  C   UNL     1       5.235  -3.498  23.190  0.00  0.00    +0.113 C 
ATOM     16  C   UNL     1       6.435  -2.600  22.970  0.00  0.00    +0.059 C 
BRANCH  14  17
ATOM     17  C   UNL     1       5.076  -6.035  23.664  0.00  0.00    +0.091 C 
ATOM     18  C   UNL     1       4.704  -6.531  25.071  0.00  0.00    +0.103 C 
ATOM     19  N   UNL     1       3.290  -6.163  25.323  0.00  0.00    -0.314 NA
ATOM     20  H   UNL     1       2.767  -7.017  25.522  0.00  0.00    +0.122 HD
ATOM     21  C   UNL     1       2.776  -5.561  24.090  0.00  0.00    +0.083 C 
ATOM     22  C   UNL     1       3.711  -6.017  22.984  0.00  0.00    +0.039 C 
ENDBRANCH  14  17
ENDBRANCH   7  10
BRANCH   2  23
ATOM     23  N   UNL     1       8.253   3.733  23.521  0.00  0.00    -0.296 N 
ATOM     24  H   UNL     1       7.658   3.427  22.747  0.00  0.00    +0.150 HD
ATOM     25  C   UNL     1       7.936   4.951  24.077  0.00  0.00    +0.270 C 
ATOM     26  O   UNL     1       8.674   5.481  24.905  0.00  0.00    -0.268 OA
BRANCH  25  27
ATOM     27  C   UNL     1       6.609   5.558  23.630  0.00  0.00    +0.211 C 
ATOM     28  C   UNL     1       5.404   5.057  24.025  0.00  0.00    +0.174 A 
ATOM     29  N   UNL     1       5.342   3.940  24.867  0.00  0.00    -0.204 NA
ATOM     30  C   UNL     1       4.097   3.631  25.059  0.00  0.00    +0.174 A 
ATOM     31  N   UNL     1       3.648   2.600  25.813  0.00  0.00    -0.336 N 
ATOM     32  H   UNL     1       4.323   2.257  26.486  0.00  0.00    +0.144 HD
ATOM     33  H   UNL     1       2.709   2.701  26.176  0.00  0.00    +0.144 HD
ATOM     34  S   UNL     1       2.933   4.694  24.279  0.00  0.00    +0.023 S 
ATOM     35  N   UNL     1       4.174   5.581  23.646  0.00  0.00    -0.306 N 
ATOM     36  H   UNL     1       4.111   6.400  23.048  0.00  0.00    +0.176 HD
BRANCH  27  37
ATOM     37  N   UNL     1       6.677   6.576  22.759  0.00  0.00    -0.022 NA
ATOM     38  O   UNL     1       7.354   6.349  21.748  0.00  0.00    -0.143 OA
ENDBRANCH  27  37
ENDBRANCH  25  27
ENDBRANCH   2  23
BRANCH   6  39
ATOM     39  C   UNL     1      10.013  -1.266  22.413  0.00  0.00    +0.352 C 
ATOM     40  OXT UNL     1      10.943  -2.036  22.609  0.00  0.00    -0.244 OA
BRANCH  39  41
ATOM     41  O   UNL     1       9.499  -1.141  21.177  0.00  0.00    -0.476 OA
ATOM     42  H   UNL     1       9.823  -1.744  20.469  0.00  0.00    +0.295 HD
ENDBRANCH  39  41
ENDBRANCH   6  39
TORSDOF 7
ENDMDL
MODEL 8
REMARK VINA RESULT:      -7.0      1.800      2.059
REMARK  Name = 
REMARK  7 active torsions:
REMARK  status: ('A' for Active; 'I' for Inactive)
REMARK    1  A    between atoms: C_5  and  C_6
REMARK    2  A    between atoms: N_10  and  C_11
REMARK    3  A    between atoms: CA_19  and  C_37
REMARK    4  A    between atoms: CA_23  and  N_25
REMARK    5  A    between atoms: C_26  and  C_28
REMARK    6  A    between atoms: C_28  and  N_29
REMARK    7  A    between atoms: C_37  and  O_38
REMARK                            x       y       z     vdW  Elec       q    Type
REMARK                         _______ _______ _______ _____ _____    ______ ____
ROOT
ATOM      1  C   UNL     1       6.748  -4.755  24.142  0.00  0.00    +0.169 C 
ATOM      2  CA  UNL     1       6.980  -5.595  25.448  0.00  0.00    +0.191 C 
ATOM      3  C   UNL     1       8.284  -4.723  25.561  0.00  0.00    +0.244 C 
ATOM      4  O   UNL     1       9.251  -4.605  26.274  0.00  0.00    -0.273 OA
ATOM      5  N   UNL     1       7.857  -3.917  24.566  0.00  0.00    -0.249 N 
ATOM      6  CA  UNL     1       8.216  -2.744  23.952  0.00  0.00    +0.126 C 
ATOM      7  C   UNL     1       7.303  -2.071  23.202  0.00  0.00    -0.009 C 
ATOM      8  C   UNL     1       5.874  -2.537  22.953  0.00  0.00    +0.108 C 
ATOM      9  S   UNL     1       5.238  -3.751  24.123  0.00  0.00    -0.131 S 
ENDROOT
BRANCH   7  10
ATOM     10  C   UNL     1       7.498  -0.771  22.529  0.00  0.00    +0.015 C 
ATOM     11  C   UNL     1       7.130   0.430  22.995  0.00  0.00    +0.016 C 
ATOM     12  C   UNL     1       7.224   1.706  22.197  0.00  0.00    +0.243 C 
ATOM     13  O   UNL     1       7.795   1.839  21.132  0.00  0.00    -0.270 OA
ATOM     14  N   UNL     1       6.507   2.664  22.910  0.00  0.00    -0.293 N 
ATOM     15  C   UNL     1       5.729   2.036  23.955  0.00  0.00    +0.113 C 
ATOM     16  C   UNL     1       6.512   0.789  24.307  0.00  0.00    +0.059 C 
BRANCH  14  17
ATOM     17  C   UNL     1       6.335   4.058  22.462  0.00  0.00    +0.091 C 
ATOM     18  C   UNL     1       5.288   4.866  23.246  0.00  0.00    +0.103 C 
ATOM     19  N   UNL     1       6.005   5.684  24.251  0.00  0.00    -0.314 NA
ATOM     20  H   UNL     1       5.781   6.667  24.085  0.00  0.00    +0.122 HD
ATOM     21  C   UNL     1       7.440   5.476  24.032  0.00  0.00    +0.083 C 
ATOM     22  C   UNL     1       7.569   4.940  22.618  0.00  0.00    +0.039 C 
ENDBRANCH  14  17
ENDBRANCH   7  10
BRANCH   2  23
ATOM     23  N   UNL     1       5.969  -5.380  26.518  0.00  0.00    -0.296 N 
ATOM     24  H   UNL     1       5.163  -4.790  26.299  0.00  0.00    +0.150 HD
ATOM     25  C   UNL     1       6.172  -5.650  27.851  0.00  0.00    +0.270 C 
ATOM     26  O   UNL     1       7.193  -6.217  28.235  0.00  0.00    -0.268 OA
BRANCH  25  27
ATOM     27  C   UNL     1       5.041  -5.239  28.790  0.00  0.00    +0.211 C 
ATOM     28  C   UNL     1       4.483  -3.995  28.763  0.00  0.00    +0.174 A 
ATOM     29  N   UNL     1       4.943  -3.029  27.860  0.00  0.00    -0.204 NA
ATOM     30  C   UNL     1       4.292  -1.926  28.061  0.00  0.00    +0.174 A 
ATOM     31  N   UNL     1       4.473  -0.770  27.381  0.00  0.00    -0.336 N 
ATOM     32  H   UNL     1       4.928  -0.887  26.483  0.00  0.00    +0.144 HD
ATOM     33  H   UNL     1       3.680  -0.141  27.369  0.00  0.00    +0.144 HD
ATOM     34  S   UNL     1       3.058  -2.001  29.311  0.00  0.00    +0.023 S 
ATOM     35  N   UNL     1       3.449  -3.582  29.595  0.00  0.00    -0.306 N 
ATOM     36  H   UNL     1       3.035  -4.211  30.275  0.00  0.00    +0.176 HD
BRANCH  27  37
ATOM     37  N   UNL     1       4.662  -6.143  29.706  0.00  0.00    -0.022 NA
ATOM     38  O   UNL     1       4.235  -7.206  29.238  0.00  0.00    -0.143 OA
ENDBRANCH  27  37
ENDBRANCH  25  27
ENDBRANCH   2  23
BRANCH   6  39
ATOM     39  C   UNL     1       9.628  -2.212  24.090  0.00  0.00    +0.352 C 
ATOM     40  OXT UNL     1      10.568  -2.642  23.435  0.00  0.00    -0.244 OA
BRANCH  39  41
ATOM     41  O   UNL     1       9.832  -1.226  24.981  0.00  0.00    -0.476 OA
ATOM     42  H   UNL     1      10.650  -0.684  24.905  0.00  0.00    +0.295 HD
ENDBRANCH  39  41
ENDBRANCH   6  39
TORSDOF 7
ENDMDL
MODEL 9
REMARK VINA RESULT:      -7.0      3.296      8.830
REMARK  Name = 
REMARK  7 active torsions:
REMARK  status: ('A' for Active; 'I' for Inactive)
REMARK    1  A    between atoms: C_5  and  C_6
REMARK    2  A    between atoms: N_10  and  C_11
REMARK    3  A    between atoms: CA_19  and  C_37
REMARK    4  A    between atoms: CA_23  and  N_25
REMARK    5  A    between atoms: C_26  and  C_28
REMARK    6  A    between atoms: C_28  and  N_29
REMARK    7  A    between atoms: C_37  and  O_38
REMARK                            x       y       z     vdW  Elec       q    Type
REMARK                         _______ _______ _______ _____ _____    ______ ____
ROOT
ATOM      1  C   UNL     1       9.277  -3.148  24.456  0.00  0.00    +0.169 C 
ATOM      2  CA  UNL     1       9.741  -1.787  23.823  0.00  0.00    +0.191 C 
ATOM      3  C   UNL     1       8.872  -2.266  22.603  0.00  0.00    +0.244 C 
ATOM      4  O   UNL     1       8.569  -1.903  21.492  0.00  0.00    -0.273 OA
ATOM      5  N   UNL     1       8.359  -3.276  23.337  0.00  0.00    -0.249 N 
ATOM      6  CA  UNL     1       7.391  -4.244  23.240  0.00  0.00    +0.126 C 
ATOM      7  C   UNL     1       6.940  -4.859  24.367  0.00  0.00    -0.009 C 
ATOM      8  C   UNL     1       7.454  -4.575  25.773  0.00  0.00    +0.108 C 
ATOM      9  S   UNL     1       8.312  -3.005  25.984  0.00  0.00    -0.131 S 
ENDROOT
BRANCH   7  10
ATOM     10  C   UNL     1       5.866  -5.868  24.452  0.00  0.00    +0.015 C 
ATOM     11  C   UNL     1       4.547  -5.631  24.444  0.00  0.00    +0.016 C 
ATOM     12  C   UNL     1       3.501  -6.690  24.682  0.00  0.00    +0.243 C 
ATOM     13  O   UNL     1       3.700  -7.889  24.730  0.00  0.00    -0.270 OA
ATOM     14  N   UNL     1       2.298  -6.013  24.862  0.00  0.00    -0.293 N 
ATOM     15  C   UNL     1       2.536  -4.598  25.036  0.00  0.00    +0.113 C 
ATOM     16  C   UNL     1       3.819  -4.338  24.274  0.00  0.00    +0.059 C 
BRANCH  14  17
ATOM     17  C   UNL     1       1.015  -6.686  25.141  0.00  0.00    +0.091 C 
ATOM     18  C   UNL     1       1.036  -8.214  24.977  0.00  0.00    +0.103 C 
ATOM     19  N   UNL     1       1.201  -8.814  26.322  0.00  0.00    -0.314 NA
ATOM     20  H   UNL     1       0.406  -9.431  26.498  0.00  0.00    +0.122 HD
ATOM     21  C   UNL     1       1.176  -7.712  27.289  0.00  0.00    +0.083 C 
ATOM     22  C   UNL     1       0.515  -6.548  26.575  0.00  0.00    +0.039 C 
ENDBRANCH  14  17
ENDBRANCH   7  10
BRANCH   2  23
ATOM     23  N   UNL     1       9.247  -0.572  24.525  0.00  0.00    -0.296 N 
ATOM     24  H   UNL     1       8.708  -0.704  25.384  0.00  0.00    +0.150 HD
ATOM     25  C   UNL     1       9.191   0.684  23.967  0.00  0.00    +0.270 C 
ATOM     26  O   UNL     1       9.673   0.908  22.859  0.00  0.00    -0.268 OA
BRANCH  25  27
ATOM     27  C   UNL     1       8.537   1.762  24.827  0.00  0.00    +0.211 C 
ATOM     28  C   UNL     1       7.388   1.541  25.529  0.00  0.00    +0.174 A 
ATOM     29  N   UNL     1       6.752   0.295  25.477  0.00  0.00    -0.204 NA
ATOM     30  C   UNL     1       5.666   0.351  26.184  0.00  0.00    +0.174 A 
ATOM     31  N   UNL     1       4.788  -0.663  26.359  0.00  0.00    -0.336 N 
ATOM     32  H   UNL     1       5.174  -1.580  26.167  0.00  0.00    +0.144 HD
ATOM     33  H   UNL     1       4.224  -0.613  27.198  0.00  0.00    +0.144 HD
ATOM     34  S   UNL     1       5.374   1.888  26.988  0.00  0.00    +0.023 S 
ATOM     35  N   UNL     1       6.763   2.492  26.327  0.00  0.00    -0.306 N 
ATOM     36  H   UNL     1       7.152   3.423  26.443  0.00  0.00    +0.176 HD
BRANCH  27  37
ATOM     37  N   UNL     1       9.107   2.976  24.806  0.00  0.00    -0.022 NA
ATOM     38  O   UNL     1       8.489   3.827  24.154  0.00  0.00    -0.143 OA
ENDBRANCH  27  37
ENDBRANCH  25  27
ENDBRANCH   2  23
BRANCH   6  39
ATOM     39  C   UNL     1       6.844  -4.643  21.885  0.00  0.00    +0.352 C 
ATOM     40  OXT UNL     1       7.196  -5.657  21.298  0.00  0.00    -0.244 OA
BRANCH  39  41
ATOM     41  O   UNL     1       5.935  -3.828  21.322  0.00  0.00    -0.476 OA
ATOM     42  H   UNL     1       5.894  -2.891  21.620  0.00  0.00    +0.295 HD
ENDBRANCH  39  41
ENDBRANCH   6  39
TORSDOF 7
ENDMDL
