MODEL 1
REMARK VINA RESULT:      -6.1      0.000      0.000
REMARK  Name = 
REMARK  4 active torsions:
REMARK  status: ('A' for Active; 'I' for Inactive)
REMARK    1  A    between atoms: C_2  and  C_3
REMARK    2  A    between atoms: C_2  and  N_4
REMARK    3  A    between atoms: C_2  and  C_20
REMARK    4  A    between atoms: C_20  and  O_21
REMARK                            x       y       z     vdW  Elec       q    Type
REMARK                         _______ _______ _______ _____ _____    ______ ____
ROOT
ATOM      1  N   UNL     1       9.422  -1.659  24.328  0.00  0.00    -0.228 N 
ATOM      2  C   UNL     1       9.629  -0.571  25.136  0.00  0.00    +0.227 C 
ATOM      3  O   UNL     1       9.214  -0.417  26.276  0.00  0.00    -0.275 OA
ATOM      4  C   UNL     1      10.370   0.483  24.359  0.00  0.00    +0.091 C 
ATOM      5  C   UNL     1      10.527  -0.116  22.956  0.00  0.00    +0.091 C 
ATOM      6  C   UNL     1       9.828   0.916  22.051  0.00  0.00    +0.002 C 
ATOM      7  C   UNL     1      10.207   2.224  22.755  0.00  0.00    +0.008 C 
ATOM      8  C   UNL     1       8.300   0.910  22.257  0.00  0.00    +0.004 C 
ATOM      9  C   UNL     1       8.137   1.511  23.660  0.00  0.00    +0.004 C 
ATOM     10  C   UNL     1       9.592   1.788  24.091  0.00  0.00    +0.002 C 
ATOM     11  C   UNL     1       9.839  -1.444  23.047  0.00  0.00    +0.227 C 
ATOM     12  O   UNL     1       9.628  -2.192  22.102  0.00  0.00    -0.275 OA
ENDROOT
BRANCH   1  13
ATOM     13  C   UNL     1       8.503  -2.731  24.708  0.00  0.00    +0.189 C 
ATOM     14  C   UNL     1       7.097  -2.502  24.152  0.00  0.00    +0.040 C 
BRANCH  13  15
ATOM     15  C   UNL     1       9.019  -4.130  24.361  0.00  0.00    +0.326 C 
ATOM     16  O   UNL     1       9.992  -4.634  24.906  0.00  0.00    -0.249 OA
BRANCH  15  17
ATOM     17  O   UNL     1       8.298  -4.814  23.444  0.00  0.00    -0.479 OA
ATOM     18  H   UNL     1       8.639  -5.717  23.231  0.00  0.00    +0.295 HD
ENDBRANCH  15  17
ENDBRANCH  13  15
ENDBRANCH   1  13
TORSDOF 3
ENDMDL
MODEL 2
REMARK VINA RESULT:      -5.9      2.253      5.129
REMARK  Name = 
REMARK  4 active torsions:
REMARK  status: ('A' for Active; 'I' for Inactive)
REMARK    1  A    between atoms: C_2  and  C_3
REMARK    2  A    between atoms: C_2  and  N_4
REMARK    3  A    between atoms: C_2  and  C_20
REMARK    4  A    between atoms: C_20  and  O_21
REMARK                            x       y       z     vdW  Elec       q    Type
REMARK                         _______ _______ _______ _____ _____    ______ ____
ROOT
ATOM      1  N   UNL     1       8.508  -2.724  23.088  0.00  0.00    -0.228 N 
ATOM      2  C   UNL     1       7.807  -3.900  23.027  0.00  0.00    +0.227 C 
ATOM      3  O   UNL     1       6.917  -4.182  22.236  0.00  0.00    -0.275 OA
ATOM      4  C   UNL     1       8.223  -4.780  24.174  0.00  0.00    +0.091 C 
ATOM      5  C   UNL     1       9.237  -3.935  24.955  0.00  0.00    +0.091 C 
ATOM      6  C   UNL     1       8.612  -3.846  26.361  0.00  0.00    +0.002 C 
ATOM      7  C   UNL     1       7.986  -5.238  26.489  0.00  0.00    +0.008 C 
ATOM      8  C   UNL     1       7.350  -2.959  26.367  0.00  0.00    +0.004 C 
ATOM      9  C   UNL     1       6.332  -3.803  25.587  0.00  0.00    +0.004 C 
ATOM     10  C   UNL     1       7.133  -5.070  25.226  0.00  0.00    +0.002 C 
ATOM     11  C   UNL     1       9.288  -2.640  24.203  0.00  0.00    +0.227 C 
ATOM     12  O   UNL     1       9.887  -1.638  24.570  0.00  0.00    -0.275 OA
ENDROOT
BRANCH   1  13
ATOM     13  C   UNL     1       8.136  -1.567  22.274  0.00  0.00    +0.189 C 
ATOM     14  C   UNL     1       7.250  -0.588  23.045  0.00  0.00    +0.040 C 
BRANCH  13  15
ATOM     15  C   UNL     1       9.334  -0.855  21.640  0.00  0.00    +0.326 C 
ATOM     16  O   UNL     1       9.310   0.325  21.314  0.00  0.00    -0.249 OA
BRANCH  15  17
ATOM     17  O   UNL     1      10.457  -1.595  21.507  0.00  0.00    -0.479 OA
ATOM     18  H   UNL     1      10.737  -1.769  20.575  0.00  0.00    +0.295 HD
ENDBRANCH  15  17
ENDBRANCH  13  15
ENDBRANCH   1  13
TORSDOF 3
ENDMDL
MODEL 3
REMARK VINA RESULT:      -5.8      1.777      2.399
REMARK  Name = 
REMARK  4 active torsions:
REMARK  status: ('A' for Active; 'I' for Inactive)
REMARK    1  A    between atoms: C_2  and  C_3
REMARK    2  A    between atoms: C_2  and  N_4
REMARK    3  A    between atoms: C_2  and  C_20
REMARK    4  A    between atoms: C_20  and  O_21
REMARK                            x       y       z     vdW  Elec       q    Type
REMARK                         _______ _______ _______ _____ _____    ______ ____
ROOT
ATOM      1  N   UNL     1       8.636  -2.737  25.535  0.00  0.00    -0.228 N 
ATOM      2  C   UNL     1       8.765  -1.378  25.658  0.00  0.00    +0.227 C 
ATOM      3  O   UNL     1       8.197  -0.659  26.470  0.00  0.00    -0.275 OA
ATOM      4  C   UNL     1       9.646  -0.865  24.552  0.00  0.00    +0.091 C 
ATOM      5  C   UNL     1       9.980  -2.111  23.722  0.00  0.00    +0.091 C 
ATOM      6  C   UNL     1       9.455  -1.752  22.319  0.00  0.00    +0.002 C 
ATOM      7  C   UNL     1       9.776  -0.255  22.263  0.00  0.00    +0.008 C 
ATOM      8  C   UNL     1       7.914  -1.718  22.280  0.00  0.00    +0.004 C 
ATOM      9  C   UNL     1       7.574  -0.471  23.109  0.00  0.00    +0.004 C 
ATOM     10  C   UNL     1       8.961   0.059  23.523  0.00  0.00    +0.002 C 
ATOM     11  C   UNL     1       9.239  -3.217  24.410  0.00  0.00    +0.227 C 
ATOM     12  O   UNL     1       9.138  -4.362  23.990  0.00  0.00    -0.275 OA
ENDROOT
BRANCH   1  13
ATOM     13  C   UNL     1       7.634  -3.484  26.295  0.00  0.00    +0.189 C 
ATOM     14  C   UNL     1       6.327  -3.641  25.516  0.00  0.00    +0.040 C 
BRANCH  13  15
ATOM     15  C   UNL     1       8.140  -4.831  26.814  0.00  0.00    +0.326 C 
ATOM     16  O   UNL     1       7.410  -5.801  26.969  0.00  0.00    -0.249 OA
BRANCH  15  17
ATOM     17  O   UNL     1       9.469  -4.914  27.043  0.00  0.00    -0.479 OA
ATOM     18  H   UNL     1       9.966  -5.507  26.428  0.00  0.00    +0.295 HD
ENDBRANCH  15  17
ENDBRANCH  13  15
ENDBRANCH   1  13
TORSDOF 3
ENDMDL
MODEL 4
REMARK VINA RESULT:      -5.7      1.523      1.881
REMARK  Name = 
REMARK  4 active torsions:
REMARK  status: ('A' for Active; 'I' for Inactive)
REMARK    1  A    between atoms: C_2  and  C_3
REMARK    2  A    between atoms: C_2  and  N_4
REMARK    3  A    between atoms: C_2  and  C_20
REMARK    4  A    between atoms: C_20  and  O_21
REMARK                            x       y       z     vdW  Elec       q    Type
REMARK                         _______ _______ _______ _____ _____    ______ ____
ROOT
ATOM      1  N   UNL     1       8.109  -2.131  24.306  0.00  0.00    -0.228 N 
ATOM      2  C   UNL     1       7.517  -0.921  24.557  0.00  0.00    +0.227 C 
ATOM      3  O   UNL     1       6.319  -0.673  24.533  0.00  0.00    -0.275 OA
ATOM      4  C   UNL     1       8.587   0.116  24.765  0.00  0.00    +0.091 C 
ATOM      5  C   UNL     1       9.902  -0.644  24.550  0.00  0.00    +0.091 C 
ATOM      6  C   UNL     1      10.570   0.126  23.395  0.00  0.00    +0.002 C 
ATOM      7  C   UNL     1      10.153   1.563  23.725  0.00  0.00    +0.008 C 
ATOM      8  C   UNL     1       9.827  -0.091  22.062  0.00  0.00    +0.004 C 
ATOM      9  C   UNL     1       8.510   0.670  22.272  0.00  0.00    +0.004 C 
ATOM     10  C   UNL     1       8.656   1.231  23.700  0.00  0.00    +0.002 C 
ATOM     11  C   UNL     1       9.466  -2.038  24.211  0.00  0.00    +0.227 C 
ATOM     12  O   UNL     1      10.211  -2.936  23.843  0.00  0.00    -0.275 OA
ENDROOT
BRANCH   1  13
ATOM     13  C   UNL     1       7.342  -3.270  23.803  0.00  0.00    +0.189 C 
ATOM     14  C   UNL     1       7.417  -3.380  22.280  0.00  0.00    +0.040 C 
BRANCH  13  15
ATOM     15  C   UNL     1       7.702  -4.596  24.477  0.00  0.00    +0.326 C 
ATOM     16  O   UNL     1       7.224  -4.949  25.547  0.00  0.00    -0.249 OA
BRANCH  15  17
ATOM     17  O   UNL     1       8.547  -5.396  23.791  0.00  0.00    -0.479 OA
ATOM     18  H   UNL     1       8.112  -6.053  23.193  0.00  0.00    +0.295 HD
ENDBRANCH  15  17
ENDBRANCH  13  15
ENDBRANCH   1  13
TORSDOF 3
ENDMDL
MODEL 5
REMARK VINA RESULT:      -5.7      1.582      2.617
REMARK  Name = 
REMARK  4 active torsions:
REMARK  status: ('A' for Active; 'I' for Inactive)
REMARK    1  A    between atoms: C_2  and  C_3
REMARK    2  A    between atoms: C_2  and  N_4
REMARK    3  A    between atoms: C_2  and  C_20
REMARK    4  A    between atoms: C_20  and  O_21
REMARK                            x       y       z     vdW  Elec       q    Type
REMARK                         _______ _______ _______ _____ _____    ______ ____
ROOT
ATOM      1  N   UNL     1       9.027  -0.272  24.575  0.00  0.00    -0.228 N 
ATOM      2  C   UNL     1       7.807   0.207  24.174  0.00  0.00    +0.227 C 
ATOM      3  O   UNL     1       6.854  -0.454  23.782  0.00  0.00    -0.275 OA
ATOM      4  C   UNL     1       7.843   1.711  24.181  0.00  0.00    +0.091 C 
ATOM      5  C   UNL     1       9.279   2.056  24.595  0.00  0.00    +0.091 C 
ATOM      6  C   UNL     1       9.795   2.895  23.410  0.00  0.00    +0.002 C 
ATOM      7  C   UNL     1       8.528   3.668  23.028  0.00  0.00    +0.008 C 
ATOM      8  C   UNL     1      10.000   2.034  22.149  0.00  0.00    +0.004 C 
ATOM      9  C   UNL     1       8.564   1.687  21.730  0.00  0.00    +0.004 C 
ATOM     10  C   UNL     1       7.709   2.391  22.802  0.00  0.00    +0.002 C 
ATOM     11  C   UNL     1       9.942   0.722  24.759  0.00  0.00    +0.227 C 
ATOM     12  O   UNL     1      11.136   0.552  24.963  0.00  0.00    -0.275 OA
ENDROOT
BRANCH   1  13
ATOM     13  C   UNL     1       9.387  -1.681  24.415  0.00  0.00    +0.189 C 
ATOM     14  C   UNL     1       8.517  -2.594  25.280  0.00  0.00    +0.040 C 
BRANCH  13  15
ATOM     15  C   UNL     1       9.407  -2.146  22.958  0.00  0.00    +0.326 C 
ATOM     16  O   UNL     1      10.334  -1.907  22.196  0.00  0.00    -0.249 OA
BRANCH  15  17
ATOM     17  O   UNL     1       8.353  -2.894  22.563  0.00  0.00    -0.479 OA
ATOM     18  H   UNL     1       8.035  -3.555  23.226  0.00  0.00    +0.295 HD
ENDBRANCH  15  17
ENDBRANCH  13  15
ENDBRANCH   1  13
TORSDOF 3
ENDMDL
MODEL 6
REMARK VINA RESULT:      -5.7      1.679      2.540
REMARK  Name = 
REMARK  4 active torsions:
REMARK  status: ('A' for Active; 'I' for Inactive)
REMARK    1  A    between atoms: C_2  and  C_3
REMARK    2  A    between atoms: C_2  and  N_4
REMARK    3  A    between atoms: C_2  and  C_20
REMARK    4  A    between atoms: C_20  and  O_21
REMARK                            x       y       z     vdW  Elec       q    Type
REMARK                         _______ _______ _______ _____ _____    ______ ____
ROOT
ATOM      1  N   UNL     1       8.574  -1.850  22.915  0.00  0.00    -0.228 N 
ATOM      2  C   UNL     1       9.694  -1.356  22.300  0.00  0.00    +0.227 C 
ATOM      3  O   UNL     1      10.794  -1.889  22.243  0.00  0.00    -0.275 OA
ATOM      4  C   UNL     1       9.401   0.026  21.782  0.00  0.00    +0.091 C 
ATOM      5  C   UNL     1       7.959   0.302  22.225  0.00  0.00    +0.091 C 
ATOM      6  C   UNL     1       8.091   1.573  23.085  0.00  0.00    +0.002 C 
ATOM      7  C   UNL     1       9.188   2.326  22.324  0.00  0.00    +0.008 C 
ATOM      8  C   UNL     1       8.810   1.286  24.418  0.00  0.00    +0.004 C 
ATOM      9  C   UNL     1      10.255   1.011  23.980  0.00  0.00    +0.004 C 
ATOM     10  C   UNL     1      10.191   1.173  22.448  0.00  0.00    +0.002 C 
ATOM     11  C   UNL     1       7.567  -0.932  22.979  0.00  0.00    +0.227 C 
ATOM     12  O   UNL     1       6.527  -1.069  23.610  0.00  0.00    -0.275 OA
ENDROOT
BRANCH   1  13
ATOM     13  C   UNL     1       8.623  -3.053  23.746  0.00  0.00    +0.189 C 
ATOM     14  C   UNL     1       8.689  -2.715  25.236  0.00  0.00    +0.040 C 
BRANCH  13  15
ATOM     15  C   UNL     1       7.499  -4.048  23.448  0.00  0.00    +0.326 C 
ATOM     16  O   UNL     1       7.521  -4.810  22.491  0.00  0.00    -0.249 OA
BRANCH  15  17
ATOM     17  O   UNL     1       6.488  -4.081  24.345  0.00  0.00    -0.479 OA
ATOM     18  H   UNL     1       5.931  -3.265  24.380  0.00  0.00    +0.295 HD
ENDBRANCH  15  17
ENDBRANCH  13  15
ENDBRANCH   1  13
TORSDOF 3
ENDMDL
MODEL 7
REMARK VINA RESULT:      -5.7      2.483      4.754
REMARK  Name = 
REMARK  4 active torsions:
REMARK  status: ('A' for Active; 'I' for Inactive)
REMARK    1  A    between atoms: C_2  and  C_3
REMARK    2  A    between atoms: C_2  and  N_4
REMARK    3  A    between atoms: C_2  and  C_20
REMARK    4  A    between atoms: C_20  and  O_21
REMARK                            x       y       z     vdW  Elec       q    Type
REMARK                         _______ _______ _______ _____ _____    ______ ____
ROOT
ATOM      1  N   UNL     1       8.606   0.858  24.192  0.00  0.00    -0.228 N 
ATOM      2  C   UNL     1       9.802   0.201  24.318  0.00  0.00    +0.227 C 
ATOM      3  O   UNL     1      10.909   0.634  24.027  0.00  0.00    -0.275 OA
ATOM      4  C   UNL     1       9.543  -1.209  24.775  0.00  0.00    +0.091 C 
ATOM      5  C   UNL     1       8.015  -1.310  24.853  0.00  0.00    +0.091 C 
ATOM      6  C   UNL     1       7.688  -2.466  23.888  0.00  0.00    +0.002 C 
ATOM      7  C   UNL     1       8.882  -3.395  24.134  0.00  0.00    +0.008 C 
ATOM      8  C   UNL     1       7.931  -2.066  22.419  0.00  0.00    +0.004 C 
ATOM      9  C   UNL     1       9.461  -1.965  22.336  0.00  0.00    +0.004 C 
ATOM     10  C   UNL     1       9.911  -2.318  23.768  0.00  0.00    +0.002 C 
ATOM     11  C   UNL     1       7.537   0.039  24.406  0.00  0.00    +0.227 C 
ATOM     12  O   UNL     1       6.368   0.338  24.204  0.00  0.00    -0.275 OA
ENDROOT
BRANCH   1  13
ATOM     13  C   UNL     1       8.509   2.150  23.513  0.00  0.00    +0.189 C 
ATOM     14  C   UNL     1       9.391   3.209  24.175  0.00  0.00    +0.040 C 
BRANCH  13  15
ATOM     15  C   UNL     1       8.766   2.071  22.007  0.00  0.00    +0.326 C 
ATOM     16  O   UNL     1       7.881   1.844  21.192  0.00  0.00    -0.249 OA
BRANCH  15  17
ATOM     17  O   UNL     1      10.033   2.323  21.611  0.00  0.00    -0.479 OA
ATOM     18  H   UNL     1      10.178   2.308  20.633  0.00  0.00    +0.295 HD
ENDBRANCH  15  17
ENDBRANCH  13  15
ENDBRANCH   1  13
TORSDOF 3
ENDMDL
MODEL 8
REMARK VINA RESULT:      -5.6      2.047      4.845
REMARK  Name = 
REMARK  4 active torsions:
REMARK  status: ('A' for Active; 'I' for Inactive)
REMARK    1  A    between atoms: C_2  and  C_3
REMARK    2  A    between atoms: C_2  and  N_4
REMARK    3  A    between atoms: C_2  and  C_20
REMARK    4  A    between atoms: C_20  and  O_21
REMARK                            x       y       z     vdW  Elec       q    Type
REMARK                         _______ _______ _______ _____ _____    ______ ____
ROOT
ATOM      1  N   UNL     1       9.199  -0.788  23.386  0.00  0.00    -0.228 N 
ATOM      2  C   UNL     1       9.552  -2.074  23.704  0.00  0.00    +0.227 C 
ATOM      3  O   UNL     1      10.525  -2.690  23.292  0.00  0.00    -0.275 OA
ATOM      4  C   UNL     1       8.482  -2.676  24.574  0.00  0.00    +0.091 C 
ATOM      5  C   UNL     1       7.416  -1.578  24.684  0.00  0.00    +0.091 C 
ATOM      6  C   UNL     1       6.152  -2.256  24.123  0.00  0.00    +0.002 C 
ATOM      7  C   UNL     1       6.336  -3.687  24.639  0.00  0.00    +0.008 C 
ATOM      8  C   UNL     1       6.255  -2.482  22.601  0.00  0.00    +0.004 C 
ATOM      9  C   UNL     1       7.320  -3.582  22.487  0.00  0.00    +0.004 C 
ATOM     10  C   UNL     1       7.699  -3.854  23.956  0.00  0.00    +0.002 C 
ATOM     11  C   UNL     1       7.958  -0.459  23.845  0.00  0.00    +0.227 C 
ATOM     12  O   UNL     1       7.350   0.565  23.564  0.00  0.00    -0.275 OA
ENDROOT
BRANCH   1  13
ATOM     13  C   UNL     1       9.898  -0.038  22.343  0.00  0.00    +0.189 C 
ATOM     14  C   UNL     1       9.150  -0.081  21.010  0.00  0.00    +0.040 C 
BRANCH  13  15
ATOM     15  C   UNL     1      10.237   1.399  22.747  0.00  0.00    +0.326 C 
ATOM     16  O   UNL     1      10.591   1.706  23.877  0.00  0.00    -0.249 OA
BRANCH  15  17
ATOM     17  O   UNL     1      10.177   2.319  21.759  0.00  0.00    -0.479 OA
ATOM     18  H   UNL     1      10.829   3.058  21.833  0.00  0.00    +0.295 HD
ENDBRANCH  15  17
ENDBRANCH  13  15
ENDBRANCH   1  13
TORSDOF 3
ENDMDL
MODEL 9
REMARK VINA RESULT:      -5.6      1.731      4.524
REMARK  Name = 
REMARK  4 active torsions:
REMARK  status: ('A' for Active; 'I' for Inactive)
REMARK    1  A    between atoms: C_2  and  C_3
REMARK    2  A    between atoms: C_2  and  N_4
REMARK    3  A    between atoms: C_2  and  C_20
REMARK    4  A    between atoms: C_20  and  O_21
REMARK                            x       y       z     vdW  Elec       q    Type
REMARK                         _______ _______ _______ _____ _____    ______ ____
ROOT
ATOM      1  N   UNL     1       9.112  -0.464  22.675  0.00  0.00    -0.228 N 
ATOM      2  C   UNL     1       7.773  -0.290  22.909  0.00  0.00    +0.227 C 
ATOM      3  O   UNL     1       7.211   0.756  23.204  0.00  0.00    -0.275 OA
ATOM      4  C   UNL     1       7.088  -1.629  22.859  0.00  0.00    +0.091 C 
ATOM      5  C   UNL     1       8.223  -2.630  22.611  0.00  0.00    +0.091 C 
ATOM      6  C   UNL     1       8.128  -3.578  23.822  0.00  0.00    +0.002 C 
ATOM      7  C   UNL     1       6.610  -3.640  24.023  0.00  0.00    +0.008 C 
ATOM      8  C   UNL     1       8.565  -2.881  25.126  0.00  0.00    +0.004 C 
ATOM      9  C   UNL     1       7.429  -1.878  25.379  0.00  0.00    +0.004 C 
ATOM     10  C   UNL     1       6.480  -2.121  24.189  0.00  0.00    +0.002 C 
ATOM     11  C   UNL     1       9.457  -1.779  22.571  0.00  0.00    +0.227 C 
ATOM     12  O   UNL     1      10.602  -2.206  22.518  0.00  0.00    -0.275 OA
ENDROOT
BRANCH   1  13
ATOM     13  C   UNL     1      10.079   0.606  22.921  0.00  0.00    +0.189 C 
ATOM     14  C   UNL     1       9.806   1.833  22.051  0.00  0.00    +0.040 C 
BRANCH  13  15
ATOM     15  C   UNL     1      10.206   0.986  24.398  0.00  0.00    +0.326 C 
ATOM     16  O   UNL     1      10.941   0.393  25.177  0.00  0.00    -0.249 OA
BRANCH  15  17
ATOM     17  O   UNL     1       9.494   2.065  24.793  0.00  0.00    -0.479 OA
ATOM     18  H   UNL     1       8.547   2.069  24.511  0.00  0.00    +0.295 HD
ENDBRANCH  15  17
ENDBRANCH  13  15
ENDBRANCH   1  13
TORSDOF 3
ENDMDL
