MODEL 1
REMARK VINA RESULT:      -5.6      0.000      0.000
REMARK  Name = 
REMARK  15 active torsions:
REMARK  status: ('A' for Active; 'I' for Inactive)
REMARK    1  A    between atoms: C_1  and  C_2
REMARK    2  A    between atoms: C_2  and  C_3
REMARK    3  A    between atoms: C_3  and  C_5
REMARK    4  A    between atoms: C_3  and  N_9
REMARK    5  A    between atoms: C_5  and  C_7
REMARK    6  A    between atoms: C_5  and  O_8
REMARK    7  A    between atoms: N_12  and  C_15
REMARK    8  A    between atoms: C_18  and  N_21
REMARK    9  A    between atoms: N_24  and  C_27
REMARK   10  A    between atoms: C_30  and  O_31
REMARK   11  A    between atoms: O_31  and  C_32
REMARK   12  A    between atoms: C_32  and  C_33
REMARK   13  A    between atoms: C_36  and  C_37
REMARK   14  A    between atoms: C_36  and  C_44
REMARK   15  A    between atoms: C_37  and  N_38
REMARK                            x       y       z     vdW  Elec       q    Type
REMARK                         _______ _______ _______ _____ _____    ______ ____
ROOT
ATOM      1  C   UNL     1       5.301  -4.684  23.989  0.00  0.00    +0.030 A 
ATOM      2  C   UNL     1       5.717  -5.747  24.810  0.00  0.00    +0.027 A 
ATOM      3  C   UNL     1       4.958  -6.922  24.921  0.00  0.00    +0.047 A 
ATOM      4  C   UNL     1       3.772  -7.060  24.204  0.00  0.00    +0.121 A 
ATOM      5  C   UNL     1       3.379  -6.031  23.358  0.00  0.00    +0.047 A 
ATOM      6  C   UNL     1       4.134  -4.868  23.253  0.00  0.00    +0.027 A 
ENDROOT
BRANCH   1  10
ATOM      7  N   UNL     1       6.589  -0.728  23.666  0.00  0.00    -0.327 N 
ATOM      8  C   UNL     1       5.928  -1.212  24.898  0.00  0.00    +0.124 C 
ATOM      9  C   UNL     1       6.264  -2.699  25.147  0.00  0.00    +0.124 C 
ATOM     10  N   UNL     1       5.970  -3.486  23.943  0.00  0.00    -0.327 N 
ATOM     11  C   UNL     1       6.679  -3.029  22.734  0.00  0.00    +0.124 C 
ATOM     12  C   UNL     1       6.343  -1.547  22.468  0.00  0.00    +0.124 C 
BRANCH   7  16
ATOM     13  C   UNL     1       8.876   2.842  23.598  0.00  0.00    +0.053 A 
ATOM     14  C   UNL     1       8.381   2.313  24.799  0.00  0.00    +0.028 A 
ATOM     15  C   UNL     1       7.645   1.120  24.824  0.00  0.00    +0.025 A 
ATOM     16  C   UNL     1       7.368   0.404  23.660  0.00  0.00    +0.030 A 
ATOM     17  C   UNL     1       7.903   0.916  22.473  0.00  0.00    +0.025 A 
ATOM     18  C   UNL     1       8.639   2.110  22.437  0.00  0.00    +0.028 A 
BRANCH  13  22
ATOM     19  N   UNL     1      11.080   5.700  23.557  0.00  0.00    -0.207 N 
ATOM     20  C   UNL     1      10.927   4.308  23.721  0.00  0.00    +0.351 A 
ATOM     21  O   UNL     1      11.831   3.515  23.938  0.00  0.00    -0.244 OA
ATOM     22  N   UNL     1       9.566   4.075  23.572  0.00  0.00    -0.250 N 
ATOM     23  C   UNL     1       9.028   5.291  23.360  0.00  0.00    +0.230 A 
ATOM     24  N   UNL     1       9.856   6.283  23.349  0.00  0.00    -0.157 NA
BRANCH  19  25
ATOM     25  C   UNL     1      12.330   6.477  23.608  0.00  0.00    +0.140 C 
BRANCH  25  27
ATOM     26  C   UNL     1      11.675   7.108  26.047  0.00  0.00    +0.006 C 
ATOM     27  C   UNL     1      12.775   6.695  25.077  0.00  0.00    +0.026 C 
ENDBRANCH  25  27
BRANCH  25  28
ATOM     28  C   UNL     1      13.424   5.872  22.675  0.00  0.00    +0.136 C 
ATOM     29  C   UNL     1      12.890   5.206  21.404  0.00  0.00    +0.040 C 
BRANCH  28  30
ATOM     30  O   UNL     1      14.227   4.923  23.387  0.00  0.00    -0.390 OA
ATOM     31  H   UNL     1      15.158   5.119  23.188  0.00  0.00    +0.210 HD
ENDBRANCH  28  30
ENDBRANCH  25  28
ENDBRANCH  19  25
ENDBRANCH  13  22
ENDBRANCH   7  16
ENDBRANCH   1  10
BRANCH   4  32
ATOM     32  O   UNL     1       3.073  -8.225  24.382  0.00  0.00    -0.492 OA
BRANCH  32  33
ATOM     33  C   UNL     1       1.662  -8.078  24.199  0.00  0.00    +0.235 C 
BRANCH  33  34
ATOM     34  C   UNL     1       0.983  -7.819  25.524  0.00  0.00    +0.055 C 
ATOM     35  C   UNL     1       1.314  -6.449  26.092  0.00  0.00    +0.051 C 
ATOM     36  C   UNL     1       1.504  -6.670  27.610  0.00  0.00    +0.117 C 
ATOM     37  O   UNL     1       1.216  -8.082  27.817  0.00  0.00    -0.366 OA
ATOM     38  C   UNL     1       1.469  -8.769  26.590  0.00  0.00    +0.168 C 
BRANCH  36  39
ATOM     39  C   UNL     1       2.946  -6.368  28.033  0.00  0.00    +0.021 A 
ATOM     40  C   UNL     1       3.702  -5.337  27.441  0.00  0.00    +0.012 A 
ATOM     41  C   UNL     1       4.984  -5.029  27.904  0.00  0.00    +0.039 A 
ATOM     42  C   UNL     1       5.538  -5.774  28.937  0.00  0.00    +0.126 A 
ATOM     43  F   UNL     1       6.759  -5.464  29.390  0.00  0.00    -0.205 F 
ATOM     44  C   UNL     1       4.840  -6.824  29.511  0.00  0.00    +0.077 A 
ATOM     45  C   UNL     1       3.553  -7.106  29.061  0.00  0.00    +0.132 A 
ATOM     46  F   UNL     1       2.874  -8.094  29.661  0.00  0.00    -0.205 F 
ENDBRANCH  36  39
BRANCH  36  47
ATOM     47  C   UNL     1       0.443  -5.848  28.367  0.00  0.00    +0.185 C 
BRANCH  47  48
ATOM     48  N   UNL     1       0.759  -4.444  28.476  0.00  0.00    -0.249 N 
ATOM     49  N   UNL     1       1.170  -3.919  29.645  0.00  0.00    -0.158 NA
ATOM     50  C   UNL     1       1.408  -2.655  29.291  0.00  0.00    +0.244 A 
ATOM     51  N   UNL     1       1.189  -2.365  27.973  0.00  0.00    -0.223 NA
ATOM     52  C   UNL     1       0.788  -3.516  27.484  0.00  0.00    +0.219 A 
ENDBRANCH  47  48
ENDBRANCH  36  47
ENDBRANCH  33  34
ENDBRANCH  32  33
ENDBRANCH   4  32
TORSDOF 13
ENDMDL
MODEL 2
REMARK VINA RESULT:      -5.1      3.628     12.742
REMARK  Name = 
REMARK  15 active torsions:
REMARK  status: ('A' for Active; 'I' for Inactive)
REMARK    1  A    between atoms: C_1  and  C_2
REMARK    2  A    between atoms: C_2  and  C_3
REMARK    3  A    between atoms: C_3  and  C_5
REMARK    4  A    between atoms: C_3  and  N_9
REMARK    5  A    between atoms: C_5  and  C_7
REMARK    6  A    between atoms: C_5  and  O_8
REMARK    7  A    between atoms: N_12  and  C_15
REMARK    8  A    between atoms: C_18  and  N_21
REMARK    9  A    between atoms: N_24  and  C_27
REMARK   10  A    between atoms: C_30  and  O_31
REMARK   11  A    between atoms: O_31  and  C_32
REMARK   12  A    between atoms: C_32  and  C_33
REMARK   13  A    between atoms: C_36  and  C_37
REMARK   14  A    between atoms: C_36  and  C_44
REMARK   15  A    between atoms: C_37  and  N_38
REMARK                            x       y       z     vdW  Elec       q    Type
REMARK                         _______ _______ _______ _____ _____    ______ ____
ROOT
ATOM      1  C   UNL     1       9.069   0.231  23.902  0.00  0.00    +0.030 A 
ATOM      2  C   UNL     1       9.045   1.023  22.740  0.00  0.00    +0.027 A 
ATOM      3  C   UNL     1       9.957   2.073  22.556  0.00  0.00    +0.047 A 
ATOM      4  C   UNL     1      10.918   2.345  23.526  0.00  0.00    +0.121 A 
ATOM      5  C   UNL     1      10.974   1.538  24.656  0.00  0.00    +0.047 A 
ATOM      6  C   UNL     1      10.067   0.499  24.835  0.00  0.00    +0.027 A 
ENDROOT
BRANCH   1  10
ATOM      7  N   UNL     1       6.237  -2.417  25.445  0.00  0.00    -0.327 N 
ATOM      8  C   UNL     1       5.868  -1.025  25.107  0.00  0.00    +0.124 C 
ATOM      9  C   UNL     1       6.693  -0.522  23.902  0.00  0.00    +0.124 C 
ATOM     10  N   UNL     1       8.124  -0.734  24.153  0.00  0.00    -0.327 N 
ATOM     11  C   UNL     1       8.489  -2.134  24.433  0.00  0.00    +0.124 C 
ATOM     12  C   UNL     1       7.678  -2.647  25.641  0.00  0.00    +0.124 C 
BRANCH   7  16
ATOM     13  C   UNL     1       3.282  -5.450  25.675  0.00  0.00    +0.053 A 
ATOM     14  C   UNL     1       4.639  -5.762  25.506  0.00  0.00    +0.028 A 
ATOM     15  C   UNL     1       5.618  -4.760  25.454  0.00  0.00    +0.025 A 
ATOM     16  C   UNL     1       5.292  -3.408  25.565  0.00  0.00    +0.030 A 
ATOM     17  C   UNL     1       3.942  -3.110  25.777  0.00  0.00    +0.025 A 
ATOM     18  C   UNL     1       2.954  -4.104  25.830  0.00  0.00    +0.028 A 
BRANCH  13  22
ATOM     19  N   UNL     1       1.079  -8.288  25.328  0.00  0.00    -0.207 N 
ATOM     20  C   UNL     1       2.241  -7.615  24.899  0.00  0.00    +0.351 A 
ATOM     21  O   UNL     1       3.012  -8.008  24.036  0.00  0.00    -0.244 OA
ATOM     22  N   UNL     1       2.294  -6.460  25.668  0.00  0.00    -0.250 N 
ATOM     23  C   UNL     1       1.198  -6.516  26.451  0.00  0.00    +0.230 A 
ATOM     24  N   UNL     1       0.443  -7.551  26.294  0.00  0.00    -0.157 NA
BRANCH  19  25
ATOM     25  C   UNL     1       0.559  -9.577  24.843  0.00  0.00    +0.140 C 
BRANCH  25  27
ATOM     26  C   UNL     1       0.443  -8.362  22.544  0.00  0.00    +0.006 C 
ATOM     27  C   UNL     1       0.675  -9.665  23.300  0.00  0.00    +0.026 C 
ENDBRANCH  25  27
BRANCH  25  28
ATOM     28  C   UNL     1       1.184 -10.779  25.616  0.00  0.00    +0.136 C 
ATOM     29  C   UNL     1       0.858 -10.823  27.112  0.00  0.00    +0.040 C 
BRANCH  28  30
ATOM     30  O   UNL     1       2.608 -10.796  25.458  0.00  0.00    -0.390 OA
ATOM     31  H   UNL     1       2.803 -10.563  24.534  0.00  0.00    +0.210 HD
ENDBRANCH  28  30
ENDBRANCH  25  28
ENDBRANCH  19  25
ENDBRANCH  13  22
ENDBRANCH   7  16
ENDBRANCH   1  10
BRANCH   4  32
ATOM     32  O   UNL     1      11.757   3.401  23.287  0.00  0.00    -0.492 OA
BRANCH  32  33
ATOM     33  C   UNL     1      11.086   4.564  22.793  0.00  0.00    +0.235 C 
BRANCH  33  34
ATOM     34  C   UNL     1      10.322   5.243  23.907  0.00  0.00    +0.055 C 
ATOM     35  C   UNL     1       9.317   4.319  24.574  0.00  0.00    +0.051 C 
ATOM     36  C   UNL     1       8.064   5.189  24.823  0.00  0.00    +0.117 C 
ATOM     37  O   UNL     1       8.439   6.519  24.363  0.00  0.00    -0.366 OA
ATOM     38  C   UNL     1       9.471   6.372  23.384  0.00  0.00    +0.168 C 
BRANCH  36  39
ATOM     39  C   UNL     1       6.870   4.678  24.010  0.00  0.00    +0.021 A 
ATOM     40  C   UNL     1       6.946   3.518  23.213  0.00  0.00    +0.012 A 
ATOM     41  C   UNL     1       5.818   3.027  22.550  0.00  0.00    +0.039 A 
ATOM     42  C   UNL     1       4.613   3.711  22.646  0.00  0.00    +0.126 A 
ATOM     43  F   UNL     1       3.531   3.228  22.023  0.00  0.00    -0.205 F 
ATOM     44  C   UNL     1       4.515   4.880  23.384  0.00  0.00    +0.077 A 
ATOM     45  C   UNL     1       5.637   5.346  24.062  0.00  0.00    +0.132 A 
ATOM     46  F   UNL     1       5.512   6.451  24.811  0.00  0.00    -0.205 F 
ENDBRANCH  36  39
BRANCH  36  47
ATOM     47  C   UNL     1       7.806   5.262  26.340  0.00  0.00    +0.185 C 
BRANCH  47  48
ATOM     48  N   UNL     1       7.086   4.127  26.867  0.00  0.00    -0.249 N 
ATOM     49  N   UNL     1       7.495   2.871  26.607  0.00  0.00    -0.158 NA
ATOM     50  C   UNL     1       6.617   2.163  27.318  0.00  0.00    +0.244 A 
ATOM     51  N   UNL     1       5.700   2.896  28.017  0.00  0.00    -0.223 NA
ATOM     52  C   UNL     1       6.028   4.133  27.719  0.00  0.00    +0.219 A 
ENDBRANCH  47  48
ENDBRANCH  36  47
ENDBRANCH  33  34
ENDBRANCH  32  33
ENDBRANCH   4  32
TORSDOF 13
ENDMDL
MODEL 3
REMARK VINA RESULT:      -4.0      2.433      3.920
REMARK  Name = 
REMARK  15 active torsions:
REMARK  status: ('A' for Active; 'I' for Inactive)
REMARK    1  A    between atoms: C_1  and  C_2
REMARK    2  A    between atoms: C_2  and  C_3
REMARK    3  A    between atoms: C_3  and  C_5
REMARK    4  A    between atoms: C_3  and  N_9
REMARK    5  A    between atoms: C_5  and  C_7
REMARK    6  A    between atoms: C_5  and  O_8
REMARK    7  A    between atoms: N_12  and  C_15
REMARK    8  A    between atoms: C_18  and  N_21
REMARK    9  A    between atoms: N_24  and  C_27
REMARK   10  A    between atoms: C_30  and  O_31
REMARK   11  A    between atoms: O_31  and  C_32
REMARK   12  A    between atoms: C_32  and  C_33
REMARK   13  A    between atoms: C_36  and  C_37
REMARK   14  A    between atoms: C_36  and  C_44
REMARK   15  A    between atoms: C_37  and  N_38
REMARK                            x       y       z     vdW  Elec       q    Type
REMARK                         _______ _______ _______ _____ _____    ______ ____
ROOT
ATOM      1  C   UNL     1       4.867  -3.613  27.193  0.00  0.00    +0.030 A 
ATOM      2  C   UNL     1       5.495  -4.871  27.195  0.00  0.00    +0.027 A 
ATOM      3  C   UNL     1       4.886  -5.987  27.788  0.00  0.00    +0.047 A 
ATOM      4  C   UNL     1       3.632  -5.869  28.381  0.00  0.00    +0.121 A 
ATOM      5  C   UNL     1       2.989  -4.638  28.344  0.00  0.00    +0.047 A 
ATOM      6  C   UNL     1       3.597  -3.534  27.756  0.00  0.00    +0.027 A 
ENDROOT
BRANCH   1  10
ATOM      7  N   UNL     1       6.067  -0.117  25.255  0.00  0.00    -0.327 N 
ATOM      8  C   UNL     1       5.110  -0.069  26.382  0.00  0.00    +0.124 C 
ATOM      9  C   UNL     1       5.414  -1.190  27.401  0.00  0.00    +0.124 C 
ATOM     10  N   UNL     1       5.485  -2.484  26.712  0.00  0.00    -0.327 N 
ATOM     11  C   UNL     1       6.482  -2.538  25.628  0.00  0.00    +0.124 C 
ATOM     12  C   UNL     1       6.185  -1.429  24.597  0.00  0.00    +0.124 C 
BRANCH   7  16
ATOM     13  C   UNL     1       8.336   3.301  24.181  0.00  0.00    +0.053 A 
ATOM     14  C   UNL     1       8.700   2.017  23.751  0.00  0.00    +0.028 A 
ATOM     15  C   UNL     1       7.936   0.890  24.087  0.00  0.00    +0.025 A 
ATOM     16  C   UNL     1       6.782   0.990  24.863  0.00  0.00    +0.030 A 
ATOM     17  C   UNL     1       6.403   2.280  25.250  0.00  0.00    +0.025 A 
ATOM     18  C   UNL     1       7.160   3.413  24.921  0.00  0.00    +0.028 A 
BRANCH  13  22
ATOM     19  N   UNL     1      10.803   5.853  23.529  0.00  0.00    -0.207 N 
ATOM     20  C   UNL     1      10.520   4.554  23.995  0.00  0.00    +0.351 A 
ATOM     21  O   UNL     1      11.346   3.745  24.390  0.00  0.00    -0.244 OA
ATOM     22  N   UNL     1       9.141   4.425  23.889  0.00  0.00    -0.250 N 
ATOM     23  C   UNL     1       8.719   5.611  23.408  0.00  0.00    +0.230 A 
ATOM     24  N   UNL     1       9.638   6.490  23.186  0.00  0.00    -0.157 NA
BRANCH  19  25
ATOM     25  C   UNL     1      12.122   6.498  23.418  0.00  0.00    +0.140 C 
BRANCH  25  27
ATOM     26  C   UNL     1      11.606   6.926  25.933  0.00  0.00    +0.006 C 
ATOM     27  C   UNL     1      12.644   6.913  24.817  0.00  0.00    +0.026 C 
ENDBRANCH  25  27
BRANCH  25  28
ATOM     28  C   UNL     1      13.115   5.640  22.576  0.00  0.00    +0.136 C 
ATOM     29  C   UNL     1      12.457   4.711  21.552  0.00  0.00    +0.040 C 
BRANCH  28  30
ATOM     30  O   UNL     1      13.956   4.856  23.432  0.00  0.00    -0.390 OA
ATOM     31  H   UNL     1      14.633   4.437  22.874  0.00  0.00    +0.210 HD
ENDBRANCH  28  30
ENDBRANCH  25  28
ENDBRANCH  19  25
ENDBRANCH  13  22
ENDBRANCH   7  16
ENDBRANCH   1  10
BRANCH   4  32
ATOM     32  O   UNL     1       3.113  -6.996  28.962  0.00  0.00    -0.492 OA
BRANCH  32  33
ATOM     33  C   UNL     1       1.695  -6.945  29.142  0.00  0.00    +0.235 C 
BRANCH  33  34
ATOM     34  C   UNL     1       0.987  -7.307  27.856  0.00  0.00    +0.055 C 
ATOM     35  C   UNL     1       1.894  -8.028  26.873  0.00  0.00    +0.051 C 
ATOM     36  C   UNL     1       1.538  -7.447  25.485  0.00  0.00    +0.117 C 
ATOM     37  O   UNL     1       0.447  -6.517  25.743  0.00  0.00    -0.366 OA
ATOM     38  C   UNL     1       0.553  -6.078  27.099  0.00  0.00    +0.168 C 
BRANCH  36  39
ATOM     39  C   UNL     1       2.729  -6.694  24.883  0.00  0.00    +0.021 A 
ATOM     40  C   UNL     1       3.869  -7.362  24.393  0.00  0.00    +0.012 A 
ATOM     41  C   UNL     1       4.903  -6.656  23.772  0.00  0.00    +0.039 A 
ATOM     42  C   UNL     1       4.825  -5.273  23.669  0.00  0.00    +0.126 A 
ATOM     43  F   UNL     1       5.810  -4.603  23.057  0.00  0.00    -0.205 F 
ATOM     44  C   UNL     1       3.740  -4.581  24.180  0.00  0.00    +0.077 A 
ATOM     45  C   UNL     1       2.702  -5.295  24.774  0.00  0.00    +0.132 A 
ATOM     46  F   UNL     1       1.637  -4.614  25.220  0.00  0.00    -0.205 F 
ENDBRANCH  36  39
BRANCH  36  47
ATOM     47  C   UNL     1       0.999  -8.584  24.597  0.00  0.00    +0.185 C 
BRANCH  47  48
ATOM     48  N   UNL     1       0.777  -8.198  23.223  0.00  0.00    -0.249 N 
ATOM     49  N   UNL     1       0.562  -6.911  22.896  0.00  0.00    -0.158 NA
ATOM     50  C   UNL     1       0.477  -6.994  21.567  0.00  0.00    +0.244 A 
ATOM     51  N   UNL     1       0.645  -8.246  21.046  0.00  0.00    -0.223 NA
ATOM     52  C   UNL     1       0.841  -8.983  22.117  0.00  0.00    +0.219 A 
ENDBRANCH  47  48
ENDBRANCH  36  47
ENDBRANCH  33  34
ENDBRANCH  32  33
ENDBRANCH   4  32
TORSDOF 13
ENDMDL
MODEL 4
REMARK VINA RESULT:      -2.8      2.534      4.242
REMARK  Name = 
REMARK  15 active torsions:
REMARK  status: ('A' for Active; 'I' for Inactive)
REMARK    1  A    between atoms: C_1  and  C_2
REMARK    2  A    between atoms: C_2  and  C_3
REMARK    3  A    between atoms: C_3  and  C_5
REMARK    4  A    between atoms: C_3  and  N_9
REMARK    5  A    between atoms: C_5  and  C_7
REMARK    6  A    between atoms: C_5  and  O_8
REMARK    7  A    between atoms: N_12  and  C_15
REMARK    8  A    between atoms: C_18  and  N_21
REMARK    9  A    between atoms: N_24  and  C_27
REMARK   10  A    between atoms: C_30  and  O_31
REMARK   11  A    between atoms: O_31  and  C_32
REMARK   12  A    between atoms: C_32  and  C_33
REMARK   13  A    between atoms: C_36  and  C_37
REMARK   14  A    between atoms: C_36  and  C_44
REMARK   15  A    between atoms: C_37  and  N_38
REMARK                            x       y       z     vdW  Elec       q    Type
REMARK                         _______ _______ _______ _____ _____    ______ ____
ROOT
ATOM      1  C   UNL     1       3.136  -2.341  28.454  0.00  0.00    +0.030 A 
ATOM      2  C   UNL     1       1.737  -2.319  28.315  0.00  0.00    +0.027 A 
ATOM      3  C   UNL     1       0.949  -3.413  28.704  0.00  0.00    +0.047 A 
ATOM      4  C   UNL     1       1.546  -4.546  29.251  0.00  0.00    +0.121 A 
ATOM      5  C   UNL     1       2.923  -4.556  29.431  0.00  0.00    +0.047 A 
ATOM      6  C   UNL     1       3.700  -3.470  29.042  0.00  0.00    +0.027 A 
ENDROOT
BRANCH   1  10
ATOM      7  N   UNL     1       5.200   0.580  26.305  0.00  0.00    -0.327 N 
ATOM      8  C   UNL     1       3.823   0.825  26.788  0.00  0.00    +0.124 C 
ATOM      9  C   UNL     1       3.577   0.090  28.124  0.00  0.00    +0.124 C 
ATOM     10  N   UNL     1       3.936  -1.327  27.987  0.00  0.00    -0.327 N 
ATOM     11  C   UNL     1       5.327  -1.561  27.559  0.00  0.00    +0.124 C 
ATOM     12  C   UNL     1       5.584  -0.839  26.220  0.00  0.00    +0.124 C 
BRANCH   7  16
ATOM     13  C   UNL     1       7.815   3.699  25.116  0.00  0.00    +0.053 A 
ATOM     14  C   UNL     1       6.425   3.882  25.145  0.00  0.00    +0.028 A 
ATOM     15  C   UNL     1       5.562   2.857  25.561  0.00  0.00    +0.025 A 
ATOM     16  C   UNL     1       6.042   1.611  25.962  0.00  0.00    +0.030 A 
ATOM     17  C   UNL     1       7.432   1.454  25.972  0.00  0.00    +0.025 A 
ATOM     18  C   UNL     1       8.304   2.471  25.556  0.00  0.00    +0.028 A 
BRANCH  13  22
ATOM     19  N   UNL     1      10.388   5.920  23.899  0.00  0.00    -0.207 N 
ATOM     20  C   UNL     1      10.047   4.657  24.425  0.00  0.00    +0.351 A 
ATOM     21  O   UNL     1      10.825   3.736  24.624  0.00  0.00    -0.244 OA
ATOM     22  N   UNL     1       8.676   4.714  24.641  0.00  0.00    -0.250 N 
ATOM     23  C   UNL     1       8.319   5.957  24.263  0.00  0.00    +0.230 A 
ATOM     24  N   UNL     1       9.272   6.714  23.831  0.00  0.00    -0.157 NA
BRANCH  19  25
ATOM     25  C   UNL     1      11.721   6.388  23.485  0.00  0.00    +0.140 C 
BRANCH  25  27
ATOM     26  C   UNL     1      11.703   7.077  25.994  0.00  0.00    +0.006 C 
ATOM     27  C   UNL     1      12.434   7.108  24.658  0.00  0.00    +0.026 C 
ENDBRANCH  25  27
BRANCH  25  28
ATOM     28  C   UNL     1      12.549   5.249  22.814  0.00  0.00    +0.136 C 
ATOM     29  C   UNL     1      13.627   5.726  21.837  0.00  0.00    +0.040 C 
BRANCH  28  30
ATOM     30  O   UNL     1      11.686   4.331  22.132  0.00  0.00    -0.390 OA
ATOM     31  H   UNL     1      12.250   3.699  21.655  0.00  0.00    +0.210 HD
ENDBRANCH  28  30
ENDBRANCH  25  28
ENDBRANCH  19  25
ENDBRANCH  13  22
ENDBRANCH   7  16
ENDBRANCH   1  10
BRANCH   4  32
ATOM     32  O   UNL     1       0.714  -5.584  29.584  0.00  0.00    -0.492 OA
BRANCH  32  33
ATOM     33  C   UNL     1       1.227  -6.867  29.215  0.00  0.00    +0.235 C 
BRANCH  33  34
ATOM     34  C   UNL     1       0.916  -7.162  27.766  0.00  0.00    +0.055 C 
ATOM     35  C   UNL     1       2.122  -7.684  27.004  0.00  0.00    +0.051 C 
ATOM     36  C   UNL     1       2.059  -7.000  25.619  0.00  0.00    +0.117 C 
ATOM     37  O   UNL     1       0.834  -6.213  25.650  0.00  0.00    -0.366 OA
ATOM     38  C   UNL     1       0.540  -5.909  27.015  0.00  0.00    +0.168 C 
BRANCH  36  39
ATOM     39  C   UNL     1       3.263  -6.076  25.408  0.00  0.00    +0.021 A 
ATOM     40  C   UNL     1       3.121  -4.685  25.234  0.00  0.00    +0.012 A 
ATOM     41  C   UNL     1       4.241  -3.856  25.130  0.00  0.00    +0.039 A 
ATOM     42  C   UNL     1       5.513  -4.412  25.159  0.00  0.00    +0.126 A 
ATOM     43  F   UNL     1       6.583  -3.612  25.076  0.00  0.00    -0.205 F 
ATOM     44  C   UNL     1       5.688  -5.781  25.283  0.00  0.00    +0.077 A 
ATOM     45  C   UNL     1       4.567  -6.596  25.414  0.00  0.00    +0.132 A 
ATOM     46  F   UNL     1       4.756  -7.913  25.582  0.00  0.00    -0.205 F 
ENDBRANCH  36  39
BRANCH  36  47
ATOM     47  C   UNL     1       1.904  -8.086  24.537  0.00  0.00    +0.185 C 
BRANCH  47  48
ATOM     48  N   UNL     1       1.305  -7.611  23.313  0.00  0.00    -0.249 N 
ATOM     49  N   UNL     1       0.831  -6.355  23.220  0.00  0.00    -0.158 NA
ATOM     50  C   UNL     1       0.444  -6.320  21.944  0.00  0.00    +0.244 A 
ATOM     51  N   UNL     1       0.664  -7.466  21.232  0.00  0.00    -0.223 NA
ATOM     52  C   UNL     1       1.217  -8.259  22.122  0.00  0.00    +0.219 A 
ENDBRANCH  47  48
ENDBRANCH  36  47
ENDBRANCH  33  34
ENDBRANCH  32  33
ENDBRANCH   4  32
TORSDOF 13
ENDMDL
