MODEL 1
REMARK VINA RESULT:      -6.4      0.000      0.000
REMARK  Name = 
REMARK  9 active torsions:
REMARK  status: ('A' for Active; 'I' for Inactive)
REMARK    1  A    between atoms: C_2  and  C_3
REMARK    2  A    between atoms: C_6  and  C_10
REMARK    3  A    between atoms: N_12  and  C_13
REMARK    4  A    between atoms: N_12  and  C_16
REMARK    5  A    between atoms: C_13  and  C_14
REMARK    6  A    between atoms: C_13  and  C_15
REMARK    7  A    between atoms: C_17  and  C_27
REMARK    8  A    between atoms: C_19  and  C_21
REMARK    9  A    between atoms: C_27  and  O_28
REMARK                            x       y       z     vdW  Elec       q    Type
REMARK                         _______ _______ _______ _____ _____    ______ ____
ROOT
ATOM      1  C   UNL     1       7.347  -3.778  24.413  0.00  0.00    +0.058 A 
ATOM      2  C   UNL     1       6.123  -3.283  24.986  0.00  0.00    +0.040 A 
ATOM      3  C   UNL     1       5.986  -3.570  26.331  0.00  0.00    +0.022 A 
ATOM      4  S   UNL     1       7.299  -4.539  26.853  0.00  0.00    -0.080 S 
ATOM      5  C   UNL     1       8.097  -4.481  25.342  0.00  0.00    +0.118 A 
ENDROOT
BRANCH   3   6
ATOM      6  C   UNL     1       4.901  -3.218  27.270  0.00  0.00    -0.011 A 
ATOM      7  C   UNL     1       4.720  -3.945  28.457  0.00  0.00    +0.009 A 
ATOM      8  C   UNL     1       3.743  -3.572  29.389  0.00  0.00    +0.001 A 
ATOM      9  C   UNL     1       2.927  -2.471  29.145  0.00  0.00    +0.000 A 
ATOM     10  C   UNL     1       3.065  -1.759  27.960  0.00  0.00    +0.001 A 
ATOM     11  C   UNL     1       4.034  -2.138  27.027  0.00  0.00    +0.009 A 
ENDBRANCH   3   6
BRANCH   1  13
ATOM     12  C   UNL     1       8.273  -2.315  22.685  0.00  0.00    +0.223 C 
ATOM     13  N   UNL     1       7.725  -3.564  23.068  0.00  0.00    -0.267 N 
ATOM     14  O   UNL     1       8.390  -1.972  21.505  0.00  0.00    -0.275 OA
BRANCH  12  19
ATOM     15  C   UNL     1       9.400   1.230  25.097  0.00  0.00    -0.014 C 
ATOM     16  C   UNL     1       9.589   2.361  24.082  0.00  0.00    +0.007 C 
ATOM     17  C   UNL     1      10.429   0.103  24.878  0.00  0.00    +0.004 C 
ATOM     18  C   UNL     1      10.115  -0.783  23.660  0.00  0.00    +0.013 C 
ATOM     19  C   UNL     1       8.693  -1.339  23.795  0.00  0.00    +0.076 C 
ATOM     20  C   UNL     1       7.691  -0.177  23.844  0.00  0.00    +0.013 C 
ATOM     21  C   UNL     1       7.961   0.692  25.069  0.00  0.00    +0.004 C 
ENDBRANCH  12  19
BRANCH  13  22
ATOM     22  C   UNL     1       7.157  -4.429  21.989  0.00  0.00    +0.075 C 
ATOM     23  C   UNL     1       5.699  -4.116  21.600  0.00  0.00    +0.028 C 
ATOM     24  C   UNL     1       7.249  -5.933  22.291  0.00  0.00    +0.028 C 
ENDBRANCH  13  22
ENDBRANCH   1  13
BRANCH   5  25
ATOM     25  C   UNL     1       9.408  -5.102  25.187  0.00  0.00    +0.345 C 
ATOM     26  O   UNL     1      10.410  -4.572  24.732  0.00  0.00    -0.244 OA
BRANCH  25  27
ATOM     27  O   UNL     1       9.440  -6.393  25.618  0.00  0.00    -0.477 OA
ATOM     28  H   UNL     1       9.021  -6.999  24.977  0.00  0.00    +0.295 HD
ENDBRANCH  25  27
ENDBRANCH   5  25
TORSDOF 6
ENDMDL
MODEL 2
REMARK VINA RESULT:      -6.3      1.779      5.872
REMARK  Name = 
REMARK  9 active torsions:
REMARK  status: ('A' for Active; 'I' for Inactive)
REMARK    1  A    between atoms: C_2  and  C_3
REMARK    2  A    between atoms: C_6  and  C_10
REMARK    3  A    between atoms: N_12  and  C_13
REMARK    4  A    between atoms: N_12  and  C_16
REMARK    5  A    between atoms: C_13  and  C_14
REMARK    6  A    between atoms: C_13  and  C_15
REMARK    7  A    between atoms: C_17  and  C_27
REMARK    8  A    between atoms: C_19  and  C_21
REMARK    9  A    between atoms: C_27  and  O_28
REMARK                            x       y       z     vdW  Elec       q    Type
REMARK                         _______ _______ _______ _____ _____    ______ ____
ROOT
ATOM      1  C   UNL     1       7.388  -3.877  23.778  0.00  0.00    +0.058 A 
ATOM      2  C   UNL     1       7.555  -2.582  23.174  0.00  0.00    +0.040 A 
ATOM      3  C   UNL     1       8.708  -1.931  23.571  0.00  0.00    +0.022 A 
ATOM      4  S   UNL     1       9.516  -2.858  24.762  0.00  0.00    -0.080 S 
ATOM      5  C   UNL     1       8.411  -4.160  24.669  0.00  0.00    +0.118 A 
ENDROOT
BRANCH   3   6
ATOM      6  C   UNL     1       9.241  -0.614  23.163  0.00  0.00    -0.011 A 
ATOM      7  C   UNL     1       8.963  -0.095  21.889  0.00  0.00    +0.009 A 
ATOM      8  C   UNL     1       9.400   1.184  21.522  0.00  0.00    +0.001 A 
ATOM      9  C   UNL     1      10.128   1.960  22.418  0.00  0.00    +0.000 A 
ATOM     10  C   UNL     1      10.446   1.451  23.672  0.00  0.00    +0.001 A 
ATOM     11  C   UNL     1      10.017   0.171  24.034  0.00  0.00    +0.009 A 
ENDBRANCH   3   6
BRANCH   1  13
ATOM     12  C   UNL     1       5.258  -4.891  24.427  0.00  0.00    +0.223 C 
ATOM     13  N   UNL     1       6.309  -4.743  23.488  0.00  0.00    -0.267 N 
ATOM     14  O   UNL     1       4.426  -5.800  24.359  0.00  0.00    -0.275 OA
BRANCH  12  19
ATOM     15  C   UNL     1       4.055  -2.405  27.895  0.00  0.00    -0.014 C 
ATOM     16  C   UNL     1       2.545  -2.611  28.030  0.00  0.00    +0.007 C 
ATOM     17  C   UNL     1       4.410  -1.722  26.559  0.00  0.00    +0.004 C 
ATOM     18  C   UNL     1       4.315  -2.665  25.347  0.00  0.00    +0.013 C 
ATOM     19  C   UNL     1       5.190  -3.897  25.598  0.00  0.00    +0.076 C 
ATOM     20  C   UNL     1       4.691  -4.634  26.849  0.00  0.00    +0.013 C 
ATOM     21  C   UNL     1       4.816  -3.728  28.070  0.00  0.00    +0.004 C 
ENDBRANCH  12  19
BRANCH  13  22
ATOM     22  C   UNL     1       6.471  -5.816  22.459  0.00  0.00    +0.075 C 
ATOM     23  C   UNL     1       7.891  -6.404  22.346  0.00  0.00    +0.028 C 
ATOM     24  C   UNL     1       6.025  -5.392  21.051  0.00  0.00    +0.028 C 
ENDBRANCH  13  22
ENDBRANCH   1  13
BRANCH   5  25
ATOM     25  C   UNL     1       8.643  -5.369  25.451  0.00  0.00    +0.345 C 
ATOM     26  O   UNL     1       7.894  -5.841  26.293  0.00  0.00    -0.244 OA
BRANCH  25  27
ATOM     27  O   UNL     1       9.824  -5.977  25.153  0.00  0.00    -0.477 OA
ATOM     28  H   UNL     1       9.699  -6.920  24.929  0.00  0.00    +0.295 HD
ENDBRANCH  25  27
ENDBRANCH   5  25
TORSDOF 6
ENDMDL
MODEL 3
REMARK VINA RESULT:      -6.3      1.249      1.457
REMARK  Name = 
REMARK  9 active torsions:
REMARK  status: ('A' for Active; 'I' for Inactive)
REMARK    1  A    between atoms: C_2  and  C_3
REMARK    2  A    between atoms: C_6  and  C_10
REMARK    3  A    between atoms: N_12  and  C_13
REMARK    4  A    between atoms: N_12  and  C_16
REMARK    5  A    between atoms: C_13  and  C_14
REMARK    6  A    between atoms: C_13  and  C_15
REMARK    7  A    between atoms: C_17  and  C_27
REMARK    8  A    between atoms: C_19  and  C_21
REMARK    9  A    between atoms: C_27  and  O_28
REMARK                            x       y       z     vdW  Elec       q    Type
REMARK                         _______ _______ _______ _____ _____    ______ ____
ROOT
ATOM      1  C   UNL     1       7.152  -3.122  24.297  0.00  0.00    +0.058 A 
ATOM      2  C   UNL     1       5.916  -2.428  24.546  0.00  0.00    +0.040 A 
ATOM      3  C   UNL     1       5.518  -2.465  25.869  0.00  0.00    +0.022 A 
ATOM      4  S   UNL     1       6.597  -3.443  26.772  0.00  0.00    -0.080 S 
ATOM      5  C   UNL     1       7.643  -3.719  25.447  0.00  0.00    +0.118 A 
ENDROOT
BRANCH   3   6
ATOM      6  C   UNL     1       4.338  -1.861  26.522  0.00  0.00    -0.011 A 
ATOM      7  C   UNL     1       4.405  -0.566  27.060  0.00  0.00    +0.009 A 
ATOM      8  C   UNL     1       3.272   0.044  27.611  0.00  0.00    +0.001 A 
ATOM      9  C   UNL     1       2.056  -0.632  27.641  0.00  0.00    +0.000 A 
ATOM     10  C   UNL     1       1.976  -1.929  27.146  0.00  0.00    +0.001 A 
ATOM     11  C   UNL     1       3.110  -2.540  26.604  0.00  0.00    +0.009 A 
ENDBRANCH   3   6
BRANCH   1  13
ATOM     12  C   UNL     1       8.524  -2.067  22.568  0.00  0.00    +0.223 C 
ATOM     13  N   UNL     1       7.777  -3.179  23.030  0.00  0.00    -0.267 N 
ATOM     14  O   UNL     1       8.880  -1.946  21.392  0.00  0.00    -0.275 OA
BRANCH  12  19
ATOM     15  C   UNL     1       9.759   1.690  24.571  0.00  0.00    -0.014 C 
ATOM     16  C   UNL     1      10.433   2.523  23.478  0.00  0.00    +0.007 C 
ATOM     17  C   UNL     1      10.541   0.391  24.848  0.00  0.00    +0.004 C 
ATOM     18  C   UNL     1      10.353  -0.679  23.757  0.00  0.00    +0.013 C 
ATOM     19  C   UNL     1       8.857  -0.952  23.572  0.00  0.00    +0.076 C 
ATOM     20  C   UNL     1       8.150   0.340  23.137  0.00  0.00    +0.013 C 
ATOM     21  C   UNL     1       8.290   1.400  24.225  0.00  0.00    +0.004 C 
ENDBRANCH  12  19
BRANCH  13  22
ATOM     22  C   UNL     1       7.306  -4.166  22.011  0.00  0.00    +0.075 C 
ATOM     23  C   UNL     1       5.913  -3.880  21.419  0.00  0.00    +0.028 C 
ATOM     24  C   UNL     1       7.315  -5.619  22.511  0.00  0.00    +0.028 C 
ENDBRANCH  13  22
ENDBRANCH   1  13
BRANCH   5  25
ATOM     25  C   UNL     1       8.877  -4.472  25.639  0.00  0.00    +0.345 C 
ATOM     26  O   UNL     1       9.853  -4.461  24.904  0.00  0.00    -0.244 OA
BRANCH  25  27
ATOM     27  O   UNL     1       8.868  -5.231  26.769  0.00  0.00    -0.477 OA
ATOM     28  H   UNL     1       8.989  -4.687  27.572  0.00  0.00    +0.295 HD
ENDBRANCH  25  27
ENDBRANCH   5  25
TORSDOF 6
ENDMDL
MODEL 4
REMARK VINA RESULT:      -5.9      3.101      5.688
REMARK  Name = 
REMARK  9 active torsions:
REMARK  status: ('A' for Active; 'I' for Inactive)
REMARK    1  A    between atoms: C_2  and  C_3
REMARK    2  A    between atoms: C_6  and  C_10
REMARK    3  A    between atoms: N_12  and  C_13
REMARK    4  A    between atoms: N_12  and  C_16
REMARK    5  A    between atoms: C_13  and  C_14
REMARK    6  A    between atoms: C_13  and  C_15
REMARK    7  A    between atoms: C_17  and  C_27
REMARK    8  A    between atoms: C_19  and  C_21
REMARK    9  A    between atoms: C_27  and  O_28
REMARK                            x       y       z     vdW  Elec       q    Type
REMARK                         _______ _______ _______ _____ _____    ______ ____
ROOT
ATOM      1  C   UNL     1       7.863  -0.117  24.353  0.00  0.00    +0.058 A 
ATOM      2  C   UNL     1       6.821   0.763  23.893  0.00  0.00    +0.040 A 
ATOM      3  C   UNL     1       5.961   1.174  24.894  0.00  0.00    +0.022 A 
ATOM      4  S   UNL     1       6.366   0.391  26.362  0.00  0.00    -0.080 S 
ATOM      5  C   UNL     1       7.735  -0.394  25.705  0.00  0.00    +0.118 A 
ENDROOT
BRANCH   3   6
ATOM      6  C   UNL     1       4.798   2.084  24.830  0.00  0.00    -0.011 A 
ATOM      7  C   UNL     1       3.953   2.239  25.940  0.00  0.00    +0.009 A 
ATOM      8  C   UNL     1       2.895   3.156  25.915  0.00  0.00    +0.001 A 
ATOM      9  C   UNL     1       2.659   3.925  24.779  0.00  0.00    +0.000 A 
ATOM     10  C   UNL     1       3.462   3.760  23.657  0.00  0.00    +0.001 A 
ATOM     11  C   UNL     1       4.513   2.839  23.679  0.00  0.00    +0.009 A 
ENDBRANCH   3   6
BRANCH   1  13
ATOM     12  C   UNL     1       8.867  -1.995  23.149  0.00  0.00    +0.223 C 
ATOM     13  N   UNL     1       8.884  -0.627  23.519  0.00  0.00    -0.267 N 
ATOM     14  O   UNL     1       9.840  -2.560  22.641  0.00  0.00    -0.275 OA
BRANCH  12  19
ATOM     15  C   UNL     1       5.595  -4.986  23.221  0.00  0.00    -0.014 C 
ATOM     16  C   UNL     1       5.847  -5.883  22.007  0.00  0.00    +0.007 C 
ATOM     17  C   UNL     1       5.289  -3.537  22.794  0.00  0.00    +0.004 C 
ATOM     18  C   UNL     1       6.534  -2.759  22.334  0.00  0.00    +0.013 C 
ATOM     19  C   UNL     1       7.594  -2.807  23.439  0.00  0.00    +0.076 C 
ATOM     20  C   UNL     1       7.985  -4.266  23.713  0.00  0.00    +0.013 C 
ATOM     21  C   UNL     1       6.771  -5.045  24.210  0.00  0.00    +0.004 C 
ENDBRANCH  12  19
BRANCH  13  22
ATOM     22  C   UNL     1      10.181   0.105  23.397  0.00  0.00    +0.075 C 
ATOM     23  C   UNL     1      10.727   0.692  24.714  0.00  0.00    +0.028 C 
ATOM     24  C   UNL     1      10.157   1.234  22.355  0.00  0.00    +0.028 C 
ENDBRANCH  13  22
ENDBRANCH   1  13
BRANCH   5  25
ATOM     25  C   UNL     1       8.597  -1.197  26.566  0.00  0.00    +0.345 C 
ATOM     26  O   UNL     1       8.768  -2.404  26.494  0.00  0.00    -0.244 OA
BRANCH  25  27
ATOM     27  O   UNL     1       9.243  -0.458  27.510  0.00  0.00    -0.477 OA
ATOM     28  H   UNL     1       8.616   0.030  28.079  0.00  0.00    +0.295 HD
ENDBRANCH  25  27
ENDBRANCH   5  25
TORSDOF 6
ENDMDL
MODEL 5
REMARK VINA RESULT:      -5.9      3.038      6.462
REMARK  Name = 
REMARK  9 active torsions:
REMARK  status: ('A' for Active; 'I' for Inactive)
REMARK    1  A    between atoms: C_2  and  C_3
REMARK    2  A    between atoms: C_6  and  C_10
REMARK    3  A    between atoms: N_12  and  C_13
REMARK    4  A    between atoms: N_12  and  C_16
REMARK    5  A    between atoms: C_13  and  C_14
REMARK    6  A    between atoms: C_13  and  C_15
REMARK    7  A    between atoms: C_17  and  C_27
REMARK    8  A    between atoms: C_19  and  C_21
REMARK    9  A    between atoms: C_27  and  O_28
REMARK                            x       y       z     vdW  Elec       q    Type
REMARK                         _______ _______ _______ _____ _____    ______ ____
ROOT
ATOM      1  C   UNL     1       6.750  -4.049  24.192  0.00  0.00    +0.058 A 
ATOM      2  C   UNL     1       6.670  -2.697  24.680  0.00  0.00    +0.040 A 
ATOM      3  C   UNL     1       6.578  -1.751  23.676  0.00  0.00    +0.022 A 
ATOM      4  S   UNL     1       6.706  -2.514  22.148  0.00  0.00    -0.080 S 
ATOM      5  C   UNL     1       6.766  -4.090  22.807  0.00  0.00    +0.118 A 
ENDROOT
BRANCH   3   6
ATOM      6  C   UNL     1       6.455  -0.281  23.767  0.00  0.00    -0.011 A 
ATOM      7  C   UNL     1       7.017   0.544  22.780  0.00  0.00    +0.009 A 
ATOM      8  C   UNL     1       6.841   1.933  22.817  0.00  0.00    +0.001 A 
ATOM      9  C   UNL     1       6.107   2.519  23.844  0.00  0.00    +0.000 A 
ATOM     10  C   UNL     1       5.572   1.724  24.851  0.00  0.00    +0.001 A 
ATOM     11  C   UNL     1       5.756   0.339  24.817  0.00  0.00    +0.009 A 
ENDBRANCH   3   6
BRANCH   1  13
ATOM     12  C   UNL     1       5.599  -5.807  25.445  0.00  0.00    +0.223 C 
ATOM     13  N   UNL     1       6.803  -5.183  25.033  0.00  0.00    -0.267 N 
ATOM     14  O   UNL     1       5.556  -6.631  26.364  0.00  0.00    -0.275 OA
BRANCH  12  19
ATOM     15  C   UNL     1       1.401  -5.333  24.103  0.00  0.00    -0.014 C 
ATOM     16  C   UNL     1       0.629  -6.458  24.797  0.00  0.00    +0.007 C 
ATOM     17  C   UNL     1       2.451  -5.894  23.125  0.00  0.00    +0.004 C 
ATOM     18  C   UNL     1       3.694  -6.468  23.826  0.00  0.00    +0.013 C 
ATOM     19  C   UNL     1       4.295  -5.397  24.742  0.00  0.00    +0.076 C 
ATOM     20  C   UNL     1       3.262  -4.990  25.802  0.00  0.00    +0.013 C 
ATOM     21  C   UNL     1       2.038  -4.380  25.127  0.00  0.00    +0.004 C 
ENDBRANCH  12  19
BRANCH  13  22
ATOM     22  C   UNL     1       8.032  -5.455  25.840  0.00  0.00    +0.075 C 
ATOM     23  C   UNL     1       8.271  -4.484  27.013  0.00  0.00    +0.028 C 
ATOM     24  C   UNL     1       9.320  -5.506  25.004  0.00  0.00    +0.028 C 
ENDBRANCH  13  22
ENDBRANCH   1  13
BRANCH   5  25
ATOM     25  C   UNL     1       6.795  -5.249  21.921  0.00  0.00    +0.345 C 
ATOM     26  O   UNL     1       7.514  -6.230  22.036  0.00  0.00    -0.244 OA
BRANCH  25  27
ATOM     27  O   UNL     1       5.902  -5.159  20.897  0.00  0.00    -0.477 OA
ATOM     28  H   UNL     1       5.461  -6.013  20.724  0.00  0.00    +0.295 HD
ENDBRANCH  25  27
ENDBRANCH   5  25
TORSDOF 6
ENDMDL
MODEL 6
REMARK VINA RESULT:      -5.7      2.592      6.452
REMARK  Name = 
REMARK  9 active torsions:
REMARK  status: ('A' for Active; 'I' for Inactive)
REMARK    1  A    between atoms: C_2  and  C_3
REMARK    2  A    between atoms: C_6  and  C_10
REMARK    3  A    between atoms: N_12  and  C_13
REMARK    4  A    between atoms: N_12  and  C_16
REMARK    5  A    between atoms: C_13  and  C_14
REMARK    6  A    between atoms: C_13  and  C_15
REMARK    7  A    between atoms: C_17  and  C_27
REMARK    8  A    between atoms: C_19  and  C_21
REMARK    9  A    between atoms: C_27  and  O_28
REMARK                            x       y       z     vdW  Elec       q    Type
REMARK                         _______ _______ _______ _____ _____    ______ ____
ROOT
ATOM      1  C   UNL     1       6.829  -3.701  24.426  0.00  0.00    +0.058 A 
ATOM      2  C   UNL     1       7.501  -2.434  24.313  0.00  0.00    +0.040 A 
ATOM      3  C   UNL     1       7.245  -1.775  23.126  0.00  0.00    +0.022 A 
ATOM      4  S   UNL     1       6.279  -2.761  22.113  0.00  0.00    -0.080 S 
ATOM      5  C   UNL     1       6.108  -3.998  23.280  0.00  0.00    +0.118 A 
ENDROOT
BRANCH   3   6
ATOM      6  C   UNL     1       7.720  -0.458  22.651  0.00  0.00    -0.011 A 
ATOM      7  C   UNL     1       6.955   0.698  22.871  0.00  0.00    +0.009 A 
ATOM      8  C   UNL     1       7.431   1.959  22.492  0.00  0.00    +0.001 A 
ATOM      9  C   UNL     1       8.675   2.084  21.881  0.00  0.00    +0.000 A 
ATOM     10  C   UNL     1       9.433   0.948  21.621  0.00  0.00    +0.001 A 
ATOM     11  C   UNL     1       8.952  -0.311  21.991  0.00  0.00    +0.009 A 
ENDBRANCH   3   6
BRANCH   1  13
ATOM     12  C   UNL     1       5.971  -4.357  26.620  0.00  0.00    +0.223 C 
ATOM     13  N   UNL     1       6.905  -4.530  25.568  0.00  0.00    -0.267 N 
ATOM     14  O   UNL     1       6.125  -4.861  27.737  0.00  0.00    -0.275 OA
BRANCH  12  19
ATOM     15  C   UNL     1       2.181  -2.073  26.881  0.00  0.00    -0.014 C 
ATOM     16  C   UNL     1       1.515  -2.550  28.175  0.00  0.00    +0.007 C 
ATOM     17  C   UNL     1       2.306  -3.221  25.860  0.00  0.00    +0.004 C 
ATOM     18  C   UNL     1       3.423  -4.223  26.201  0.00  0.00    +0.013 C 
ATOM     19  C   UNL     1       4.745  -3.467  26.361  0.00  0.00    +0.076 C 
ATOM     20  C   UNL     1       4.619  -2.447  27.502  0.00  0.00    +0.013 C 
ATOM     21  C   UNL     1       3.543  -1.420  27.164  0.00  0.00    +0.004 C 
ENDBRANCH  12  19
BRANCH  13  22
ATOM     22  C   UNL     1       8.177  -5.247  25.885  0.00  0.00    +0.075 C 
ATOM     23  C   UNL     1       9.221  -4.417  26.658  0.00  0.00    +0.028 C 
ATOM     24  C   UNL     1       8.872  -5.844  24.651  0.00  0.00    +0.028 C 
ENDBRANCH  13  22
ENDBRANCH   1  13
BRANCH   5  25
ATOM     25  C   UNL     1       5.257  -5.150  23.001  0.00  0.00    +0.345 C 
ATOM     26  O   UNL     1       5.604  -6.322  23.001  0.00  0.00    -0.244 OA
BRANCH  25  27
ATOM     27  O   UNL     1       3.968  -4.807  22.729  0.00  0.00    -0.477 OA
ATOM     28  H   UNL     1       3.378  -5.585  22.735  0.00  0.00    +0.295 HD
ENDBRANCH  25  27
ENDBRANCH   5  25
TORSDOF 6
ENDMDL
MODEL 7
REMARK VINA RESULT:      -5.6      3.244      5.072
REMARK  Name = 
REMARK  9 active torsions:
REMARK  status: ('A' for Active; 'I' for Inactive)
REMARK    1  A    between atoms: C_2  and  C_3
REMARK    2  A    between atoms: C_6  and  C_10
REMARK    3  A    between atoms: N_12  and  C_13
REMARK    4  A    between atoms: N_12  and  C_16
REMARK    5  A    between atoms: C_13  and  C_14
REMARK    6  A    between atoms: C_13  and  C_15
REMARK    7  A    between atoms: C_17  and  C_27
REMARK    8  A    between atoms: C_19  and  C_21
REMARK    9  A    between atoms: C_27  and  O_28
REMARK                            x       y       z     vdW  Elec       q    Type
REMARK                         _______ _______ _______ _____ _____    ______ ____
ROOT
ATOM      1  C   UNL     1       7.793  -0.319  23.645  0.00  0.00    +0.058 A 
ATOM      2  C   UNL     1       6.769  -1.194  23.139  0.00  0.00    +0.040 A 
ATOM      3  C   UNL     1       6.639  -2.367  23.858  0.00  0.00    +0.022 A 
ATOM      4  S   UNL     1       7.844  -2.438  25.073  0.00  0.00    -0.080 S 
ATOM      5  C   UNL     1       8.458  -0.881  24.723  0.00  0.00    +0.118 A 
ENDROOT
BRANCH   3   6
ATOM      6  C   UNL     1       5.699  -3.493  23.674  0.00  0.00    -0.011 A 
ATOM      7  C   UNL     1       4.443  -3.484  24.300  0.00  0.00    +0.009 A 
ATOM      8  C   UNL     1       3.517  -4.509  24.070  0.00  0.00    +0.001 A 
ATOM      9  C   UNL     1       3.835  -5.563  23.218  0.00  0.00    +0.000 A 
ATOM     10  C   UNL     1       5.087  -5.610  22.617  0.00  0.00    +0.001 A 
ATOM     11  C   UNL     1       6.013  -4.591  22.854  0.00  0.00    +0.009 A 
ENDBRANCH   3   6
BRANCH   1  13
ATOM     12  C   UNL     1       7.235   2.052  23.414  0.00  0.00    +0.223 C 
ATOM     13  N   UNL     1       8.075   0.954  23.099  0.00  0.00    -0.267 N 
ATOM     14  O   UNL     1       7.268   3.116  22.789  0.00  0.00    -0.275 OA
BRANCH  12  19
ATOM     15  C   UNL     1       4.337   2.634  26.718  0.00  0.00    -0.014 C 
ATOM     16  C   UNL     1       4.442   4.116  27.086  0.00  0.00    +0.007 C 
ATOM     17  C   UNL     1       5.661   1.893  26.992  0.00  0.00    +0.004 C 
ATOM     18  C   UNL     1       6.755   2.191  25.951  0.00  0.00    +0.013 C 
ATOM     19  C   UNL     1       6.216   1.880  24.552  0.00  0.00    +0.076 C 
ATOM     20  C   UNL     1       4.993   2.763  24.264  0.00  0.00    +0.013 C 
ATOM     21  C   UNL     1       3.882   2.452  25.261  0.00  0.00    +0.004 C 
ENDBRANCH  12  19
BRANCH  13  22
ATOM     22  C   UNL     1       8.934   1.070  21.881  0.00  0.00    +0.075 C 
ATOM     23  C   UNL     1       9.367  -0.271  21.258  0.00  0.00    +0.028 C 
ATOM     24  C   UNL     1      10.198   1.917  22.096  0.00  0.00    +0.028 C 
ENDBRANCH  13  22
ENDBRANCH   1  13
BRANCH   5  25
ATOM     25  C   UNL     1       9.520  -0.315  25.546  0.00  0.00    +0.345 C 
ATOM     26  O   UNL     1      10.574   0.154  25.145  0.00  0.00    -0.244 OA
BRANCH  25  27
ATOM     27  O   UNL     1       9.234  -0.343  26.877  0.00  0.00    -0.477 OA
ATOM     28  H   UNL     1       8.284  -0.191  27.046  0.00  0.00    +0.295 HD
ENDBRANCH  25  27
ENDBRANCH   5  25
TORSDOF 6
ENDMDL
MODEL 8
REMARK VINA RESULT:      -5.6      3.271      5.555
REMARK  Name = 
REMARK  9 active torsions:
REMARK  status: ('A' for Active; 'I' for Inactive)
REMARK    1  A    between atoms: C_2  and  C_3
REMARK    2  A    between atoms: C_6  and  C_10
REMARK    3  A    between atoms: N_12  and  C_13
REMARK    4  A    between atoms: N_12  and  C_16
REMARK    5  A    between atoms: C_13  and  C_14
REMARK    6  A    between atoms: C_13  and  C_15
REMARK    7  A    between atoms: C_17  and  C_27
REMARK    8  A    between atoms: C_19  and  C_21
REMARK    9  A    between atoms: C_27  and  O_28
REMARK                            x       y       z     vdW  Elec       q    Type
REMARK                         _______ _______ _______ _____ _____    ______ ____
ROOT
ATOM      1  C   UNL     1       7.942   0.078  23.847  0.00  0.00    +0.058 A 
ATOM      2  C   UNL     1       7.032  -0.809  23.172  0.00  0.00    +0.040 A 
ATOM      3  C   UNL     1       7.213  -2.140  23.498  0.00  0.00    +0.022 A 
ATOM      4  S   UNL     1       8.566  -2.303  24.536  0.00  0.00    -0.080 S 
ATOM      5  C   UNL     1       8.837  -0.619  24.643  0.00  0.00    +0.118 A 
ENDROOT
BRANCH   3   6
ATOM      6  C   UNL     1       6.475  -3.337  23.043  0.00  0.00    -0.011 A 
ATOM      7  C   UNL     1       7.097  -4.290  22.221  0.00  0.00    +0.009 A 
ATOM      8  C   UNL     1       6.431  -5.463  21.848  0.00  0.00    +0.001 A 
ATOM      9  C   UNL     1       5.130  -5.699  22.283  0.00  0.00    +0.000 A 
ATOM     10  C   UNL     1       4.482  -4.752  23.067  0.00  0.00    +0.001 A 
ATOM     11  C   UNL     1       5.145  -3.577  23.432  0.00  0.00    +0.009 A 
ENDBRANCH   3   6
BRANCH   1  13
ATOM     12  C   UNL     1       7.018   2.249  24.493  0.00  0.00    +0.223 C 
ATOM     13  N   UNL     1       7.915   1.484  23.706  0.00  0.00    -0.267 N 
ATOM     14  O   UNL     1       6.762   3.432  24.252  0.00  0.00    -0.275 OA
BRANCH  12  19
ATOM     15  C   UNL     1       4.612   1.233  28.076  0.00  0.00    -0.014 C 
ATOM     16  C   UNL     1       4.212   2.580  28.684  0.00  0.00    +0.007 C 
ATOM     17  C   UNL     1       6.141   1.037  28.108  0.00  0.00    +0.004 C 
ATOM     18  C   UNL     1       6.886   1.866  27.048  0.00  0.00    +0.013 C 
ATOM     19  C   UNL     1       6.308   1.551  25.664  0.00  0.00    +0.076 C 
ATOM     20  C   UNL     1       4.817   1.919  25.635  0.00  0.00    +0.013 C 
ATOM     21  C   UNL     1       4.054   1.077  26.652  0.00  0.00    +0.004 C 
ENDBRANCH  12  19
BRANCH  13  22
ATOM     22  C   UNL     1       8.461   2.120  22.468  0.00  0.00    +0.075 C 
ATOM     23  C   UNL     1       7.475   2.201  21.286  0.00  0.00    +0.028 C 
ATOM     24  C   UNL     1       9.753   1.464  21.957  0.00  0.00    +0.028 C 
ENDBRANCH  13  22
ENDBRANCH   1  13
BRANCH   5  25
ATOM     25  C   UNL     1       9.883  -0.104  25.520  0.00  0.00    +0.345 C 
ATOM     26  O   UNL     1      10.926   0.425  25.168  0.00  0.00    -0.244 OA
BRANCH  25  27
ATOM     27  O   UNL     1       9.595  -0.260  26.841  0.00  0.00    -0.477 OA
ATOM     28  H   UNL     1      10.255   0.181  27.410  0.00  0.00    +0.295 HD
ENDBRANCH  25  27
ENDBRANCH   5  25
TORSDOF 6
ENDMDL
MODEL 9
REMARK VINA RESULT:      -5.6      2.409      2.730
REMARK  Name = 
REMARK  9 active torsions:
REMARK  status: ('A' for Active; 'I' for Inactive)
REMARK    1  A    between atoms: C_2  and  C_3
REMARK    2  A    between atoms: C_6  and  C_10
REMARK    3  A    between atoms: N_12  and  C_13
REMARK    4  A    between atoms: N_12  and  C_16
REMARK    5  A    between atoms: C_13  and  C_14
REMARK    6  A    between atoms: C_13  and  C_15
REMARK    7  A    between atoms: C_17  and  C_27
REMARK    8  A    between atoms: C_19  and  C_21
REMARK    9  A    between atoms: C_27  and  O_28
REMARK                            x       y       z     vdW  Elec       q    Type
REMARK                         _______ _______ _______ _____ _____    ______ ____
ROOT
ATOM      1  C   UNL     1       6.558  -4.521  24.663  0.00  0.00    +0.058 A 
ATOM      2  C   UNL     1       5.133  -4.717  24.728  0.00  0.00    +0.040 A 
ATOM      3  C   UNL     1       4.716  -5.372  25.870  0.00  0.00    +0.022 A 
ATOM      4  S   UNL     1       6.077  -5.843  26.798  0.00  0.00    -0.080 S 
ATOM      5  C   UNL     1       7.199  -5.086  25.754  0.00  0.00    +0.118 A 
ENDROOT
BRANCH   3   6
ATOM      6  C   UNL     1       3.352  -5.734  26.311  0.00  0.00    -0.011 A 
ATOM      7  C   UNL     1       2.513  -4.773  26.896  0.00  0.00    +0.009 A 
ATOM      8  C   UNL     1       1.194  -5.087  27.247  0.00  0.00    +0.001 A 
ATOM      9  C   UNL     1       0.696  -6.368  27.026  0.00  0.00    +0.000 A 
ATOM     10  C   UNL     1       1.522  -7.344  26.482  0.00  0.00    +0.001 A 
ATOM     11  C   UNL     1       2.840  -7.032  26.140  0.00  0.00    +0.009 A 
ENDBRANCH   3   6
BRANCH   1  13
ATOM     12  C   UNL     1       7.438  -2.441  23.724  0.00  0.00    +0.223 C 
ATOM     13  N   UNL     1       7.208  -3.835  23.612  0.00  0.00    -0.267 N 
ATOM     14  O   UNL     1       7.766  -1.741  22.761  0.00  0.00    -0.275 OA
BRANCH  12  19
ATOM     15  C   UNL     1       6.865   0.376  27.098  0.00  0.00    -0.014 C 
ATOM     16  C   UNL     1       7.154   1.762  26.516  0.00  0.00    +0.007 C 
ATOM     17  C   UNL     1       8.120  -0.519  27.062  0.00  0.00    +0.004 C 
ATOM     18  C   UNL     1       8.449  -1.053  25.657  0.00  0.00    +0.013 C 
ATOM     19  C   UNL     1       7.224  -1.780  25.094  0.00  0.00    +0.076 C 
ATOM     20  C   UNL     1       6.046  -0.800  24.997  0.00  0.00    +0.013 C 
ATOM     21  C   UNL     1       5.677  -0.291  26.387  0.00  0.00    +0.004 C 
ENDBRANCH  12  19
BRANCH  13  22
ATOM     22  C   UNL     1       7.245  -4.434  22.243  0.00  0.00    +0.075 C 
ATOM     23  C   UNL     1       6.007  -4.148  21.371  0.00  0.00    +0.028 C 
ATOM     24  C   UNL     1       7.480  -5.952  22.240  0.00  0.00    +0.028 C 
ENDBRANCH  13  22
ENDBRANCH   1  13
BRANCH   5  25
ATOM     25  C   UNL     1       8.618  -5.075  26.095  0.00  0.00    +0.345 C 
ATOM     26  O   UNL     1       9.167  -4.317  26.880  0.00  0.00    -0.244 OA
BRANCH  25  27
ATOM     27  O   UNL     1       9.330  -6.032  25.440  0.00  0.00    -0.477 OA
ATOM     28  H   UNL     1       8.746  -6.672  24.988  0.00  0.00    +0.295 HD
ENDBRANCH  25  27
ENDBRANCH   5  25
TORSDOF 6
ENDMDL
