MODEL 1
REMARK VINA RESULT:      -3.1      0.000      0.000
REMARK  Name = 
REMARK  4 active torsions:
REMARK  status: ('A' for Active; 'I' for Inactive)
REMARK    1  A    between atoms: C_1  and  C_2
REMARK    2  A    between atoms: C_2  and  O_4
REMARK    3  A    between atoms: C_2  and  C_5
REMARK    4  A    between atoms: C_5  and  C_6
REMARK                            x       y       z     vdW  Elec       q    Type
REMARK                         _______ _______ _______ _____ _____    ______ ____
ROOT
ATOM      1  C   UNL     1       9.849   0.077  21.902  0.00  0.00    +0.046 C 
ATOM      2  C   UNL     1       9.577   1.488  22.393  0.00  0.00    +0.177 C 
ENDROOT
BRANCH   2   3
ATOM      3  C   UNL     1       9.927   1.666  23.875  0.00  0.00    +0.158 C 
ATOM      4  O   UNL     1       9.395   2.554  24.547  0.00  0.00    -0.295 OA
ATOM      5  C   UNL     1      10.884   0.686  24.501  0.00  0.00    +0.089 C 
ENDBRANCH   2   3
BRANCH   2   6
ATOM      6  O   UNL     1      10.337   2.386  21.587  0.00  0.00    -0.385 OA
ATOM      7  H   UNL     1       9.976   2.312  20.679  0.00  0.00    +0.210 HD
ENDBRANCH   2   6
TORSDOF 2
ENDMDL
MODEL 2
REMARK VINA RESULT:      -3.1      7.142      7.606
REMARK  Name = 
REMARK  4 active torsions:
REMARK  status: ('A' for Active; 'I' for Inactive)
REMARK    1  A    between atoms: C_1  and  C_2
REMARK    2  A    between atoms: C_2  and  O_4
REMARK    3  A    between atoms: C_2  and  C_5
REMARK    4  A    between atoms: C_5  and  C_6
REMARK                            x       y       z     vdW  Elec       q    Type
REMARK                         _______ _______ _______ _____ _____    ______ ____
ROOT
ATOM      1  C   UNL     1       9.182  -3.770  24.723  0.00  0.00    +0.046 C 
ATOM      2  C   UNL     1       9.272  -4.828  25.808  0.00  0.00    +0.177 C 
ENDROOT
BRANCH   2   3
ATOM      3  C   UNL     1       7.892  -5.278  26.299  0.00  0.00    +0.158 C 
ATOM      4  O   UNL     1       7.726  -5.650  27.465  0.00  0.00    -0.295 OA
ATOM      5  C   UNL     1       6.734  -5.191  25.340  0.00  0.00    +0.089 C 
ENDBRANCH   2   3
BRANCH   2   6
ATOM      6  O   UNL     1      10.002  -5.933  25.280  0.00  0.00    -0.385 OA
ATOM      7  H   UNL     1      10.321  -6.446  26.051  0.00  0.00    +0.210 HD
ENDBRANCH   2   6
TORSDOF 2
ENDMDL
MODEL 3
REMARK VINA RESULT:      -3.0      2.233      2.657
REMARK  Name = 
REMARK  4 active torsions:
REMARK  status: ('A' for Active; 'I' for Inactive)
REMARK    1  A    between atoms: C_1  and  C_2
REMARK    2  A    between atoms: C_2  and  O_4
REMARK    3  A    between atoms: C_2  and  C_5
REMARK    4  A    between atoms: C_5  and  C_6
REMARK                            x       y       z     vdW  Elec       q    Type
REMARK                         _______ _______ _______ _____ _____    ______ ____
ROOT
ATOM      1  C   UNL     1       9.958  -2.204  23.704  0.00  0.00    +0.046 C 
ATOM      2  C   UNL     1       9.656  -1.152  22.652  0.00  0.00    +0.177 C 
ENDROOT
BRANCH   2   3
ATOM      3  C   UNL     1      10.205   0.228  23.033  0.00  0.00    +0.158 C 
ATOM      4  O   UNL     1      10.201   1.156  22.219  0.00  0.00    -0.295 OA
ATOM      5  C   UNL     1      10.686   0.435  24.445  0.00  0.00    +0.089 C 
ENDBRANCH   2   3
BRANCH   2   6
ATOM      6  O   UNL     1      10.217  -1.593  21.418  0.00  0.00    -0.385 OA
ATOM      7  H   UNL     1      10.247  -2.571  21.463  0.00  0.00    +0.210 HD
ENDBRANCH   2   6
TORSDOF 2
ENDMDL
MODEL 4
REMARK VINA RESULT:      -3.0      2.439      2.600
REMARK  Name = 
REMARK  4 active torsions:
REMARK  status: ('A' for Active; 'I' for Inactive)
REMARK    1  A    between atoms: C_1  and  C_2
REMARK    2  A    between atoms: C_2  and  O_4
REMARK    3  A    between atoms: C_2  and  C_5
REMARK    4  A    between atoms: C_5  and  C_6
REMARK                            x       y       z     vdW  Elec       q    Type
REMARK                         _______ _______ _______ _____ _____    ______ ____
ROOT
ATOM      1  C   UNL     1       9.149   0.595  21.555  0.00  0.00    +0.046 C 
ATOM      2  C   UNL     1      10.252  -0.289  22.110  0.00  0.00    +0.177 C 
ENDROOT
BRANCH   2   3
ATOM      3  C   UNL     1      10.190  -0.410  23.636  0.00  0.00    +0.158 C 
ATOM      4  O   UNL     1       9.678  -1.397  24.171  0.00  0.00    -0.295 OA
ATOM      5  C   UNL     1      10.828   0.677  24.461  0.00  0.00    +0.089 C 
ENDBRANCH   2   3
BRANCH   2   6
ATOM      6  O   UNL     1      10.134  -1.571  21.499  0.00  0.00    -0.385 OA
ATOM      7  H   UNL     1      10.217  -1.425  20.534  0.00  0.00    +0.210 HD
ENDBRANCH   2   6
TORSDOF 2
ENDMDL
MODEL 5
REMARK VINA RESULT:      -3.0      6.198      6.863
REMARK  Name = 
REMARK  4 active torsions:
REMARK  status: ('A' for Active; 'I' for Inactive)
REMARK    1  A    between atoms: C_1  and  C_2
REMARK    2  A    between atoms: C_2  and  O_4
REMARK    3  A    between atoms: C_2  and  C_5
REMARK    4  A    between atoms: C_5  and  C_6
REMARK                            x       y       z     vdW  Elec       q    Type
REMARK                         _______ _______ _______ _____ _____    ______ ____
ROOT
ATOM      1  C   UNL     1       8.363  -4.811  26.692  0.00  0.00    +0.046 C 
ATOM      2  C   UNL     1       8.993  -5.186  25.362  0.00  0.00    +0.177 C 
ENDROOT
BRANCH   2   3
ATOM      3  C   UNL     1       8.992  -4.019  24.368  0.00  0.00    +0.158 C 
ATOM      4  O   UNL     1      10.026  -3.385  24.138  0.00  0.00    -0.295 OA
ATOM      5  C   UNL     1       7.713  -3.711  23.634  0.00  0.00    +0.089 C 
ENDBRANCH   2   3
BRANCH   2   6
ATOM      6  O   UNL     1      10.323  -5.628  25.617  0.00  0.00    -0.385 OA
ATOM      7  H   UNL     1      10.802  -4.859  25.989  0.00  0.00    +0.210 HD
ENDBRANCH   2   6
TORSDOF 2
ENDMDL
MODEL 6
REMARK VINA RESULT:      -2.9      1.640      2.484
REMARK  Name = 
REMARK  4 active torsions:
REMARK  status: ('A' for Active; 'I' for Inactive)
REMARK    1  A    between atoms: C_1  and  C_2
REMARK    2  A    between atoms: C_2  and  O_4
REMARK    3  A    between atoms: C_2  and  C_5
REMARK    4  A    between atoms: C_5  and  C_6
REMARK                            x       y       z     vdW  Elec       q    Type
REMARK                         _______ _______ _______ _____ _____    ______ ____
ROOT
ATOM      1  C   UNL     1       9.572   2.450  23.858  0.00  0.00    +0.046 C 
ATOM      2  C   UNL     1      10.206   1.807  22.638  0.00  0.00    +0.177 C 
ENDROOT
BRANCH   2   3
ATOM      3  C   UNL     1      10.093   0.279  22.661  0.00  0.00    +0.158 C 
ATOM      4  O   UNL     1      10.480  -0.370  23.638  0.00  0.00    -0.295 OA
ATOM      5  C   UNL     1       9.436  -0.402  21.488  0.00  0.00    +0.089 C 
ENDBRANCH   2   3
BRANCH   2   6
ATOM      6  O   UNL     1       9.568   2.341  21.481  0.00  0.00    -0.385 OA
ATOM      7  H   UNL     1       9.062   3.123  21.782  0.00  0.00    +0.210 HD
ENDBRANCH   2   6
TORSDOF 2
ENDMDL
MODEL 7
REMARK VINA RESULT:      -2.8      4.512      4.876
REMARK  Name = 
REMARK  4 active torsions:
REMARK  status: ('A' for Active; 'I' for Inactive)
REMARK    1  A    between atoms: C_1  and  C_2
REMARK    2  A    between atoms: C_2  and  O_4
REMARK    3  A    between atoms: C_2  and  C_5
REMARK    4  A    between atoms: C_5  and  C_6
REMARK                            x       y       z     vdW  Elec       q    Type
REMARK                         _______ _______ _______ _____ _____    ______ ____
ROOT
ATOM      1  C   UNL     1      11.657   3.822  23.279  0.00  0.00    +0.046 C 
ATOM      2  C   UNL     1      12.243   5.221  23.217  0.00  0.00    +0.177 C 
ENDROOT
BRANCH   2   3
ATOM      3  C   UNL     1      11.536   6.191  24.170  0.00  0.00    +0.158 C 
ATOM      4  O   UNL     1      10.319   6.384  24.087  0.00  0.00    -0.295 OA
ATOM      5  C   UNL     1      12.355   6.850  25.249  0.00  0.00    +0.089 C 
ENDBRANCH   2   3
BRANCH   2   6
ATOM      6  O   UNL     1      13.630   5.129  23.533  0.00  0.00    -0.385 OA
ATOM      7  H   UNL     1      14.047   4.635  22.797  0.00  0.00    +0.210 HD
ENDBRANCH   2   6
TORSDOF 2
ENDMDL
MODEL 8
REMARK VINA RESULT:      -2.8      2.695      3.848
REMARK  Name = 
REMARK  4 active torsions:
REMARK  status: ('A' for Active; 'I' for Inactive)
REMARK    1  A    between atoms: C_1  and  C_2
REMARK    2  A    between atoms: C_2  and  O_4
REMARK    3  A    between atoms: C_2  and  C_5
REMARK    4  A    between atoms: C_5  and  C_6
REMARK                            x       y       z     vdW  Elec       q    Type
REMARK                         _______ _______ _______ _____ _____    ______ ____
ROOT
ATOM      1  C   UNL     1      10.496   0.296  24.764  0.00  0.00    +0.046 C 
ATOM      2  C   UNL     1       9.565  -0.639  24.014  0.00  0.00    +0.177 C 
ENDROOT
BRANCH   2   3
ATOM      3  C   UNL     1       9.962  -0.800  22.543  0.00  0.00    +0.158 C 
ATOM      4  O   UNL     1      10.570  -1.803  22.158  0.00  0.00    -0.295 OA
ATOM      5  C   UNL     1       9.532   0.268  21.571  0.00  0.00    +0.089 C 
ENDBRANCH   2   3
BRANCH   2   6
ATOM      6  O   UNL     1       9.583  -1.900  24.680  0.00  0.00    -0.385 OA
ATOM      7  H   UNL     1      10.338  -2.399  24.304  0.00  0.00    +0.210 HD
ENDBRANCH   2   6
TORSDOF 2
ENDMDL
MODEL 9
REMARK VINA RESULT:      -2.8      1.311      2.566
REMARK  Name = 
REMARK  4 active torsions:
REMARK  status: ('A' for Active; 'I' for Inactive)
REMARK    1  A    between atoms: C_1  and  C_2
REMARK    2  A    between atoms: C_2  and  O_4
REMARK    3  A    between atoms: C_2  and  C_5
REMARK    4  A    between atoms: C_5  and  C_6
REMARK                            x       y       z     vdW  Elec       q    Type
REMARK                         _______ _______ _______ _____ _____    ______ ____
ROOT
ATOM      1  C   UNL     1      10.347   1.502  24.042  0.00  0.00    +0.046 C 
ATOM      2  C   UNL     1      10.155   2.103  22.661  0.00  0.00    +0.177 C 
ENDROOT
BRANCH   2   3
ATOM      3  C   UNL     1       9.135   1.325  21.823  0.00  0.00    +0.158 C 
ATOM      4  O   UNL     1       8.097   1.864  21.429  0.00  0.00    -0.295 OA
ATOM      5  C   UNL     1       9.466  -0.094  21.440  0.00  0.00    +0.089 C 
ENDBRANCH   2   3
BRANCH   2   6
ATOM      6  O   UNL     1       9.740   3.457  22.827  0.00  0.00    -0.385 OA
ATOM      7  H   UNL     1      10.122   3.760  23.676  0.00  0.00    +0.210 HD
ENDBRANCH   2   6
TORSDOF 2
ENDMDL
