MODEL 1
REMARK VINA RESULT:      -8.2      0.000      0.000
REMARK  Name = 
REMARK  7 active torsions:
REMARK  status: ('A' for Active; 'I' for Inactive)
REMARK    1  A    between atoms: C_1  and  N_2
REMARK    2  A    between atoms: C_3  and  C_5
REMARK    3  A    between atoms: C_7  and  O_8
REMARK    4  A    between atoms: O_8  and  C_9
REMARK    5  A    between atoms: C_13  and  N_14
REMARK    6  A    between atoms: N_17  and  C_18
REMARK    7  A    between atoms: C_23  and  C_25
REMARK                            x       y       z     vdW  Elec       q    Type
REMARK                         _______ _______ _______ _____ _____    ______ ____
ROOT
ATOM      1  C   UNL     1      10.391   2.163  23.384  0.00  0.00    +0.131 A 
ATOM      2  C   UNL     1      10.654   1.261  24.416  0.00  0.00    +0.048 A 
ATOM      3  C   UNL     1      10.429  -0.107  24.227  0.00  0.00    +0.030 A 
ATOM      4  C   UNL     1       9.967  -0.572  22.994  0.00  0.00    +0.070 A 
ATOM      5  C   UNL     1       9.810   0.331  21.940  0.00  0.00    +0.148 A 
ATOM      6  F   UNL     1       9.384  -0.113  20.748  0.00  0.00    -0.203 F 
ATOM      7  C   UNL     1      10.016   1.693  22.124  0.00  0.00    +0.086 A 
ENDROOT
BRANCH   4   8
ATOM      8  N   UNL     1       9.633  -1.934  22.786  0.00  0.00    -0.267 N 
ATOM      9  H   UNL     1       9.908  -2.301  21.879  0.00  0.00    +0.156 HD
ATOM     10  C   UNL     1       8.411  -2.428  23.208  0.00  0.00    +0.308 C 
ATOM     11  N   UNL     1       8.324  -3.794  22.996  0.00  0.00    -0.269 N 
ATOM     12  H   UNL     1       9.197  -4.259  23.205  0.00  0.00    +0.156 HD
ATOM     13  O   UNL     1       7.525  -1.751  23.720  0.00  0.00    -0.252 OA
BRANCH  11  14
ATOM     14  C   UNL     1       7.145  -4.496  23.321  0.00  0.00    +0.035 A 
ATOM     15  C   UNL     1       6.866  -4.898  24.633  0.00  0.00    +0.037 A 
ATOM     16  C   UNL     1       5.688  -5.614  24.952  0.00  0.00    +0.075 A 
ATOM     17  C   UNL     1       4.830  -5.962  23.902  0.00  0.00    +0.053 A 
ATOM     18 CL   UNL     1       3.403  -6.910  24.114  0.00  0.00    -0.083 Cl
ATOM     19  C   UNL     1       5.105  -5.547  22.592  0.00  0.00    +0.022 A 
ATOM     20  C   UNL     1       6.239  -4.785  22.306  0.00  0.00    +0.025 A 
BRANCH  16  21
ATOM     21  C   UNL     1       5.428  -5.922  26.404  0.00  0.00    +0.419 C 
ATOM     22  F   UNL     1       4.388  -5.181  26.891  0.00  0.00    -0.166 F 
ATOM     23  F   UNL     1       6.493  -5.617  27.198  0.00  0.00    -0.166 F 
ATOM     24  F   UNL     1       5.113  -7.210  26.702  0.00  0.00    -0.166 F 
ENDBRANCH  16  21
ENDBRANCH  11  14
ENDBRANCH   4   8
BRANCH   1  25
ATOM     25  O   UNL     1      10.569   3.501  23.660  0.00  0.00    -0.456 OA
BRANCH  25  30
ATOM     26  C   UNL     1       7.164   4.909  23.583  0.00  0.00    +0.129 A 
ATOM     27  N   UNL     1       7.416   6.248  23.512  0.00  0.00    -0.250 NA
ATOM     28  C   UNL     1       8.716   6.611  23.521  0.00  0.00    +0.115 A 
ATOM     29  C   UNL     1       9.769   5.710  23.571  0.00  0.00    +0.066 A 
ATOM     30  C   UNL     1       9.480   4.348  23.612  0.00  0.00    +0.132 A 
ATOM     31  C   UNL     1       8.151   3.937  23.652  0.00  0.00    +0.079 A 
BRANCH  26  35
ATOM     32  C   UNL     1       3.894   3.580  22.235  0.00  0.00    +0.128 C 
ATOM     33  N   UNL     1       5.273   3.936  22.405  0.00  0.00    -0.313 N 
ATOM     34  H   UNL     1       5.938   3.869  21.637  0.00  0.00    +0.149 HD
ATOM     35  C   UNL     1       5.729   4.484  23.586  0.00  0.00    +0.262 C 
ATOM     36  O   UNL     1       5.025   4.631  24.578  0.00  0.00    -0.269 OA
ENDBRANCH  26  35
ENDBRANCH  25  30
ENDBRANCH   1  25
TORSDOF 6
ENDMDL
MODEL 2
REMARK VINA RESULT:      -8.2      1.495      2.011
REMARK  Name = 
REMARK  7 active torsions:
REMARK  status: ('A' for Active; 'I' for Inactive)
REMARK    1  A    between atoms: C_1  and  N_2
REMARK    2  A    between atoms: C_3  and  C_5
REMARK    3  A    between atoms: C_7  and  O_8
REMARK    4  A    between atoms: O_8  and  C_9
REMARK    5  A    between atoms: C_13  and  N_14
REMARK    6  A    between atoms: N_17  and  C_18
REMARK    7  A    between atoms: C_23  and  C_25
REMARK                            x       y       z     vdW  Elec       q    Type
REMARK                         _______ _______ _______ _____ _____    ______ ____
ROOT
ATOM      1  C   UNL     1      10.216   2.288  23.080  0.00  0.00    +0.131 A 
ATOM      2  C   UNL     1      10.653   1.704  24.271  0.00  0.00    +0.048 A 
ATOM      3  C   UNL     1      10.616   0.314  24.425  0.00  0.00    +0.030 A 
ATOM      4  C   UNL     1      10.167  -0.491  23.376  0.00  0.00    +0.070 A 
ATOM      5  C   UNL     1       9.834   0.102  22.156  0.00  0.00    +0.148 A 
ATOM      6  F   UNL     1       9.420  -0.668  21.139  0.00  0.00    -0.203 F 
ATOM      7  C   UNL     1       9.853   1.483  21.999  0.00  0.00    +0.086 A 
ENDROOT
BRANCH   4   8
ATOM      8  N   UNL     1      10.020  -1.894  23.519  0.00  0.00    -0.267 N 
ATOM      9  H   UNL     1      10.234  -2.427  22.682  0.00  0.00    +0.156 HD
ATOM     10  C   UNL     1       8.949  -2.418  24.221  0.00  0.00    +0.308 C 
ATOM     11  N   UNL     1       9.045  -3.796  24.324  0.00  0.00    -0.269 N 
ATOM     12  H   UNL     1       9.997  -4.091  24.490  0.00  0.00    +0.156 HD
ATOM     13  O   UNL     1       8.040  -1.751  24.706  0.00  0.00    -0.252 OA
BRANCH  11  14
ATOM     14  C   UNL     1       8.035  -4.538  24.970  0.00  0.00    +0.035 A 
ATOM     15  C   UNL     1       6.878  -4.950  24.296  0.00  0.00    +0.037 A 
ATOM     16  C   UNL     1       5.862  -5.683  24.954  0.00  0.00    +0.075 A 
ATOM     17  C   UNL     1       6.019  -5.937  26.321  0.00  0.00    +0.053 A 
ATOM     18 CL   UNL     1       4.829  -6.736  27.283  0.00  0.00    -0.083 Cl
ATOM     19  C   UNL     1       7.182  -5.534  26.990  0.00  0.00    +0.022 A 
ATOM     20  C   UNL     1       8.204  -4.870  26.311  0.00  0.00    +0.025 A 
BRANCH  16  21
ATOM     21  C   UNL     1       4.699  -6.164  24.124  0.00  0.00    +0.419 C 
ATOM     22  F   UNL     1       3.527  -5.594  24.535  0.00  0.00    -0.166 F 
ATOM     23  F   UNL     1       4.505  -7.509  24.232  0.00  0.00    -0.166 F 
ATOM     24  F   UNL     1       4.763  -5.914  22.790  0.00  0.00    -0.166 F 
ENDBRANCH  16  21
ENDBRANCH  11  14
ENDBRANCH   4   8
BRANCH   1  25
ATOM     25  O   UNL     1      10.216   3.664  23.021  0.00  0.00    -0.456 OA
BRANCH  25  30
ATOM     26  C   UNL     1       6.840   5.033  23.580  0.00  0.00    +0.129 A 
ATOM     27  N   UNL     1       7.043   5.851  24.654  0.00  0.00    -0.250 NA
ATOM     28  C   UNL     1       8.298   5.880  25.152  0.00  0.00    +0.115 A 
ATOM     29  C   UNL     1       9.356   5.159  24.620  0.00  0.00    +0.066 A 
ATOM     30  C   UNL     1       9.124   4.357  23.505  0.00  0.00    +0.132 A 
ATOM     31  C   UNL     1       7.833   4.265  22.993  0.00  0.00    +0.079 A 
BRANCH  26  35
ATOM     32  C   UNL     1       3.682   3.510  22.171  0.00  0.00    +0.128 C 
ATOM     33  N   UNL     1       4.956   3.710  22.799  0.00  0.00    -0.313 N 
ATOM     34  H   UNL     1       5.564   2.926  23.030  0.00  0.00    +0.149 HD
ATOM     35  C   UNL     1       5.454   4.978  23.019  0.00  0.00    +0.262 C 
ATOM     36  O   UNL     1       4.827   6.001  22.771  0.00  0.00    -0.269 OA
ENDBRANCH  26  35
ENDBRANCH  25  30
ENDBRANCH   1  25
TORSDOF 6
ENDMDL
MODEL 3
REMARK VINA RESULT:      -8.0      4.503     10.322
REMARK  Name = 
REMARK  7 active torsions:
REMARK  status: ('A' for Active; 'I' for Inactive)
REMARK    1  A    between atoms: C_1  and  N_2
REMARK    2  A    between atoms: C_3  and  C_5
REMARK    3  A    between atoms: C_7  and  O_8
REMARK    4  A    between atoms: O_8  and  C_9
REMARK    5  A    between atoms: C_13  and  N_14
REMARK    6  A    between atoms: N_17  and  C_18
REMARK    7  A    between atoms: C_23  and  C_25
REMARK                            x       y       z     vdW  Elec       q    Type
REMARK                         _______ _______ _______ _____ _____    ______ ____
ROOT
ATOM      1  C   UNL     1       8.228  -3.981  26.175  0.00  0.00    +0.131 A 
ATOM      2  C   UNL     1       7.200  -3.041  26.072  0.00  0.00    +0.048 A 
ATOM      3  C   UNL     1       7.318  -1.965  25.186  0.00  0.00    +0.030 A 
ATOM      4  C   UNL     1       8.454  -1.848  24.382  0.00  0.00    +0.070 A 
ATOM      5  C   UNL     1       9.423  -2.853  24.420  0.00  0.00    +0.148 A 
ATOM      6  F   UNL     1      10.507  -2.755  23.637  0.00  0.00    -0.203 F 
ATOM      7  C   UNL     1       9.321  -3.916  25.310  0.00  0.00    +0.086 A 
ENDROOT
BRANCH   4   8
ATOM      8  N   UNL     1       8.662  -0.726  23.541  0.00  0.00    -0.267 N 
ATOM      9  H   UNL     1       9.242  -0.911  22.728  0.00  0.00    +0.156 HD
ATOM     10  C   UNL     1       8.900   0.524  24.086  0.00  0.00    +0.308 C 
ATOM     11  N   UNL     1       8.980   1.493  23.099  0.00  0.00    -0.269 N 
ATOM     12  H   UNL     1       8.294   1.341  22.373  0.00  0.00    +0.156 HD
ATOM     13  O   UNL     1       9.009   0.752  25.287  0.00  0.00    -0.252 OA
BRANCH  11  14
ATOM     14  C   UNL     1       9.255   2.835  23.434  0.00  0.00    +0.035 A 
ATOM     15  C   UNL     1      10.549   3.364  23.348  0.00  0.00    +0.037 A 
ATOM     16  C   UNL     1      10.822   4.708  23.698  0.00  0.00    +0.075 A 
ATOM     17  C   UNL     1       9.765   5.483  24.190  0.00  0.00    +0.053 A 
ATOM     18 CL   UNL     1       9.954   7.107  24.743  0.00  0.00    -0.083 Cl
ATOM     19  C   UNL     1       8.469   4.954  24.262  0.00  0.00    +0.022 A 
ATOM     20  C   UNL     1       8.206   3.647  23.851  0.00  0.00    +0.025 A 
BRANCH  16  21
ATOM     21  C   UNL     1      12.225   5.215  23.485  0.00  0.00    +0.419 C 
ATOM     22  F   UNL     1      13.115   4.184  23.382  0.00  0.00    -0.166 F 
ATOM     23  F   UNL     1      12.667   5.972  24.529  0.00  0.00    -0.166 F 
ATOM     24  F   UNL     1      12.433   5.972  22.376  0.00  0.00    -0.166 F 
ENDBRANCH  16  21
ENDBRANCH  11  14
ENDBRANCH   4   8
BRANCH   1  25
ATOM     25  O   UNL     1       8.076  -4.975  27.116  0.00  0.00    -0.456 OA
BRANCH  25  30
ATOM     26  C   UNL     1       4.896  -6.699  26.408  0.00  0.00    +0.129 A 
ATOM     27  N   UNL     1       4.412  -6.921  27.665  0.00  0.00    -0.250 NA
ATOM     28  C   UNL     1       5.191  -6.505  28.686  0.00  0.00    +0.115 A 
ATOM     29  C   UNL     1       6.407  -5.860  28.515  0.00  0.00    +0.066 A 
ATOM     30  C   UNL     1       6.859  -5.620  27.220  0.00  0.00    +0.132 A 
ATOM     31  C   UNL     1       6.106  -6.077  26.143  0.00  0.00    +0.079 A 
BRANCH  26  35
ATOM     32  C   UNL     1       2.053  -8.422  24.612  0.00  0.00    +0.128 C 
ATOM     33  N   UNL     1       2.900  -7.836  25.609  0.00  0.00    -0.313 N 
ATOM     34  H   UNL     1       2.720  -7.964  26.603  0.00  0.00    +0.149 HD
ATOM     35  C   UNL     1       4.053  -7.162  25.261  0.00  0.00    +0.262 C 
ATOM     36  O   UNL     1       4.389  -6.954  24.101  0.00  0.00    -0.269 OA
ENDBRANCH  26  35
ENDBRANCH  25  30
ENDBRANCH   1  25
TORSDOF 6
ENDMDL
MODEL 4
REMARK VINA RESULT:      -7.9      4.515     10.229
REMARK  Name = 
REMARK  7 active torsions:
REMARK  status: ('A' for Active; 'I' for Inactive)
REMARK    1  A    between atoms: C_1  and  N_2
REMARK    2  A    between atoms: C_3  and  C_5
REMARK    3  A    between atoms: C_7  and  O_8
REMARK    4  A    between atoms: O_8  and  C_9
REMARK    5  A    between atoms: C_13  and  N_14
REMARK    6  A    between atoms: N_17  and  C_18
REMARK    7  A    between atoms: C_23  and  C_25
REMARK                            x       y       z     vdW  Elec       q    Type
REMARK                         _______ _______ _______ _____ _____    ______ ____
ROOT
ATOM      1  C   UNL     1       7.349  -4.728  25.352  0.00  0.00    +0.131 A 
ATOM      2  C   UNL     1       7.965  -3.892  26.286  0.00  0.00    +0.048 A 
ATOM      3  C   UNL     1       8.744  -2.813  25.855  0.00  0.00    +0.030 A 
ATOM      4  C   UNL     1       8.882  -2.556  24.490  0.00  0.00    +0.070 A 
ATOM      5  C   UNL     1       8.174  -3.337  23.574  0.00  0.00    +0.148 A 
ATOM      6  F   UNL     1       8.288  -3.083  22.262  0.00  0.00    -0.203 F 
ATOM      7  C   UNL     1       7.410  -4.421  23.992  0.00  0.00    +0.086 A 
ENDROOT
BRANCH   4   8
ATOM      8  N   UNL     1       9.737  -1.535  24.004  0.00  0.00    -0.267 N 
ATOM      9  H   UNL     1      10.724  -1.686  24.193  0.00  0.00    +0.156 HD
ATOM     10  C   UNL     1       9.375  -0.205  24.119  0.00  0.00    +0.308 C 
ATOM     11  N   UNL     1      10.299   0.621  23.499  0.00  0.00    -0.269 N 
ATOM     12  H   UNL     1      10.629   0.223  22.631  0.00  0.00    +0.156 HD
ATOM     13  O   UNL     1       8.359   0.196  24.679  0.00  0.00    -0.252 OA
BRANCH  11  14
ATOM     14  C   UNL     1      10.142   2.022  23.529  0.00  0.00    +0.035 A 
ATOM     15  C   UNL     1      11.244   2.886  23.509  0.00  0.00    +0.037 A 
ATOM     16  C   UNL     1      11.081   4.291  23.553  0.00  0.00    +0.075 A 
ATOM     17  C   UNL     1       9.781   4.796  23.675  0.00  0.00    +0.053 A 
ATOM     18 CL   UNL     1       9.423   6.477  23.832  0.00  0.00    -0.083 Cl
ATOM     19  C   UNL     1       8.680   3.928  23.682  0.00  0.00    +0.022 A 
ATOM     20  C   UNL     1       8.856   2.549  23.572  0.00  0.00    +0.025 A 
BRANCH  16  21
ATOM     21  C   UNL     1      12.318   5.143  23.433  0.00  0.00    +0.419 C 
ATOM     22  F   UNL     1      12.448   5.984  24.502  0.00  0.00    -0.166 F 
ATOM     23  F   UNL     1      12.287   5.952  22.336  0.00  0.00    -0.166 F 
ATOM     24  F   UNL     1      13.503   4.481  23.359  0.00  0.00    -0.166 F 
ENDBRANCH  16  21
ENDBRANCH  11  14
ENDBRANCH   4   8
BRANCH   1  25
ATOM     25  O   UNL     1       6.654  -5.811  25.844  0.00  0.00    -0.456 OA
BRANCH  25  30
ATOM     26  C   UNL     1       3.227  -6.788  24.900  0.00  0.00    +0.129 A 
ATOM     27  N   UNL     1       2.488  -5.780  25.447  0.00  0.00    -0.250 NA
ATOM     28  C   UNL     1       3.175  -4.838  26.128  0.00  0.00    +0.115 A 
ATOM     29  C   UNL     1       4.555  -4.839  26.266  0.00  0.00    +0.066 A 
ATOM     30  C   UNL     1       5.285  -5.865  25.671  0.00  0.00    +0.132 A 
ATOM     31  C   UNL     1       4.607  -6.879  25.001  0.00  0.00    +0.079 A 
BRANCH  26  35
ATOM     32  C   UNL     1       1.193  -8.357  22.129  0.00  0.00    +0.128 C 
ATOM     33  N   UNL     1       2.007  -7.473  22.911  0.00  0.00    -0.313 N 
ATOM     34  H   UNL     1       2.193  -6.517  22.613  0.00  0.00    +0.149 HD
ATOM     35  C   UNL     1       2.485  -7.849  24.150  0.00  0.00    +0.262 C 
ATOM     36  O   UNL     1       2.318  -8.966  24.627  0.00  0.00    -0.269 OA
ENDBRANCH  26  35
ENDBRANCH  25  30
ENDBRANCH   1  25
TORSDOF 6
ENDMDL
MODEL 5
REMARK VINA RESULT:      -7.7      4.391      9.963
REMARK  Name = 
REMARK  7 active torsions:
REMARK  status: ('A' for Active; 'I' for Inactive)
REMARK    1  A    between atoms: C_1  and  N_2
REMARK    2  A    between atoms: C_3  and  C_5
REMARK    3  A    between atoms: C_7  and  O_8
REMARK    4  A    between atoms: O_8  and  C_9
REMARK    5  A    between atoms: C_13  and  N_14
REMARK    6  A    between atoms: N_17  and  C_18
REMARK    7  A    between atoms: C_23  and  C_25
REMARK                            x       y       z     vdW  Elec       q    Type
REMARK                         _______ _______ _______ _____ _____    ______ ____
ROOT
ATOM      1  C   UNL     1       7.324  -4.984  25.710  0.00  0.00    +0.131 A 
ATOM      2  C   UNL     1       7.590  -4.984  24.339  0.00  0.00    +0.048 A 
ATOM      3  C   UNL     1       8.308  -3.930  23.764  0.00  0.00    +0.030 A 
ATOM      4  C   UNL     1       8.782  -2.891  24.567  0.00  0.00    +0.070 A 
ATOM      5  C   UNL     1       8.600  -2.961  25.950  0.00  0.00    +0.148 A 
ATOM      6  F   UNL     1       9.069  -1.975  26.729  0.00  0.00    -0.203 F 
ATOM      7  C   UNL     1       7.874  -3.996  26.528  0.00  0.00    +0.086 A 
ENDROOT
BRANCH   4   8
ATOM      8  N   UNL     1       9.429  -1.756  24.017  0.00  0.00    -0.267 N 
ATOM      9  H   UNL     1      10.378  -1.609  24.349  0.00  0.00    +0.156 HD
ATOM     10  C   UNL     1       8.738  -0.568  23.851  0.00  0.00    +0.308 C 
ATOM     11  N   UNL     1       9.521   0.381  23.213  0.00  0.00    -0.269 N 
ATOM     12  H   UNL     1      10.075  -0.031  22.475  0.00  0.00    +0.156 HD
ATOM     13  O   UNL     1       7.578  -0.381  24.204  0.00  0.00    -0.252 OA
BRANCH  11  14
ATOM     14  C   UNL     1       9.022   1.678  22.976  0.00  0.00    +0.035 A 
ATOM     15  C   UNL     1       9.582   2.805  23.592  0.00  0.00    +0.037 A 
ATOM     16  C   UNL     1       9.069   4.104  23.362  0.00  0.00    +0.075 A 
ATOM     17  C   UNL     1       7.943   4.226  22.539  0.00  0.00    +0.053 A 
ATOM     18 CL   UNL     1       7.147   5.726  22.234  0.00  0.00    -0.083 Cl
ATOM     19  C   UNL     1       7.393   3.098  21.914  0.00  0.00    +0.022 A 
ATOM     20  C   UNL     1       7.953   1.834  22.101  0.00  0.00    +0.025 A 
BRANCH  16  21
ATOM     21  C   UNL     1       9.794   5.264  23.994  0.00  0.00    +0.419 C 
ATOM     22  F   UNL     1      11.135   5.020  24.088  0.00  0.00    -0.166 F 
ATOM     23  F   UNL     1       9.378   5.502  25.271  0.00  0.00    -0.166 F 
ATOM     24  F   UNL     1       9.696   6.459  23.355  0.00  0.00    -0.166 F 
ENDBRANCH  16  21
ENDBRANCH  11  14
ENDBRANCH   4   8
BRANCH   1  25
ATOM     25  O   UNL     1       6.555  -6.017  26.199  0.00  0.00    -0.456 OA
BRANCH  25  30
ATOM     26  C   UNL     1       3.178  -6.870  24.995  0.00  0.00    +0.129 A 
ATOM     27  N   UNL     1       2.427  -5.863  25.529  0.00  0.00    -0.250 NA
ATOM     28  C   UNL     1       3.090  -4.964  26.288  0.00  0.00    +0.115 A 
ATOM     29  C   UNL     1       4.456  -5.006  26.518  0.00  0.00    +0.066 A 
ATOM     30  C   UNL     1       5.200  -6.029  25.934  0.00  0.00    +0.132 A 
ATOM     31  C   UNL     1       4.545  -7.001  25.183  0.00  0.00    +0.079 A 
BRANCH  26  35
ATOM     32  C   UNL     1       1.192  -8.257  22.094  0.00  0.00    +0.128 C 
ATOM     33  N   UNL     1       1.984  -7.421  22.949  0.00  0.00    -0.313 N 
ATOM     34  H   UNL     1       2.150  -6.441  22.729  0.00  0.00    +0.149 HD
ATOM     35  C   UNL     1       2.462  -7.884  24.158  0.00  0.00    +0.262 C 
ATOM     36  O   UNL     1       2.316  -9.038  24.544  0.00  0.00    -0.269 OA
ENDBRANCH  26  35
ENDBRANCH  25  30
ENDBRANCH   1  25
TORSDOF 6
ENDMDL
MODEL 6
REMARK VINA RESULT:      -7.7      4.431     10.093
REMARK  Name = 
REMARK  7 active torsions:
REMARK  status: ('A' for Active; 'I' for Inactive)
REMARK    1  A    between atoms: C_1  and  N_2
REMARK    2  A    between atoms: C_3  and  C_5
REMARK    3  A    between atoms: C_7  and  O_8
REMARK    4  A    between atoms: O_8  and  C_9
REMARK    5  A    between atoms: C_13  and  N_14
REMARK    6  A    between atoms: N_17  and  C_18
REMARK    7  A    between atoms: C_23  and  C_25
REMARK                            x       y       z     vdW  Elec       q    Type
REMARK                         _______ _______ _______ _____ _____    ______ ____
ROOT
ATOM      1  C   UNL     1       6.836  -5.268  25.352  0.00  0.00    +0.131 A 
ATOM      2  C   UNL     1       5.999  -4.617  24.442  0.00  0.00    +0.048 A 
ATOM      3  C   UNL     1       6.517  -3.633  23.593  0.00  0.00    +0.030 A 
ATOM      4  C   UNL     1       7.878  -3.322  23.638  0.00  0.00    +0.070 A 
ATOM      5  C   UNL     1       8.718  -4.056  24.477  0.00  0.00    +0.148 A 
ATOM      6  F   UNL     1      10.029  -3.774  24.510  0.00  0.00    -0.203 F 
ATOM      7  C   UNL     1       8.210  -5.024  25.335  0.00  0.00    +0.086 A 
ENDROOT
BRANCH   4   8
ATOM      8  N   UNL     1       8.429  -2.267  22.867  0.00  0.00    -0.267 N 
ATOM      9  H   UNL     1       9.257  -2.520  22.337  0.00  0.00    +0.156 HD
ATOM     10  C   UNL     1       8.507  -0.987  23.387  0.00  0.00    +0.308 C 
ATOM     11  N   UNL     1       8.985  -0.092  22.444  0.00  0.00    -0.269 N 
ATOM     12  H   UNL     1       8.606  -0.281  21.526  0.00  0.00    +0.156 HD
ATOM     13  O   UNL     1       8.179  -0.676  24.528  0.00  0.00    -0.252 OA
BRANCH  11  14
ATOM     14  C   UNL     1       9.179   1.265  22.777  0.00  0.00    +0.035 A 
ATOM     15  C   UNL     1       8.187   2.227  22.548  0.00  0.00    +0.037 A 
ATOM     16  C   UNL     1       8.392   3.589  22.871  0.00  0.00    +0.075 A 
ATOM     17  C   UNL     1       9.644   3.961  23.377  0.00  0.00    +0.053 A 
ATOM     18 CL   UNL     1      10.079   5.593  23.733  0.00  0.00    -0.083 Cl
ATOM     19  C   UNL     1      10.629   2.994  23.615  0.00  0.00    +0.022 A 
ATOM     20  C   UNL     1      10.386   1.645  23.353  0.00  0.00    +0.025 A 
BRANCH  16  21
ATOM     21  C   UNL     1       7.235   4.535  22.677  0.00  0.00    +0.419 C 
ATOM     22  F   UNL     1       7.536   5.507  21.765  0.00  0.00    -0.166 F 
ATOM     23  F   UNL     1       6.911   5.201  23.821  0.00  0.00    -0.166 F 
ATOM     24  F   UNL     1       6.072   3.987  22.237  0.00  0.00    -0.166 F 
ENDBRANCH  16  21
ENDBRANCH  11  14
ENDBRANCH   4   8
BRANCH   1  25
ATOM     25  O   UNL     1       6.248  -6.177  26.203  0.00  0.00    -0.456 OA
BRANCH  25  30
ATOM     26  C   UNL     1       2.887  -7.334  25.229  0.00  0.00    +0.129 A 
ATOM     27  N   UNL     1       2.095  -6.693  26.137  0.00  0.00    -0.250 NA
ATOM     28  C   UNL     1       2.733  -5.926  27.047  0.00  0.00    +0.115 A 
ATOM     29  C   UNL     1       4.108  -5.749  27.079  0.00  0.00    +0.066 A 
ATOM     30  C   UNL     1       4.886  -6.392  26.120  0.00  0.00    +0.132 A 
ATOM     31  C   UNL     1       4.269  -7.229  25.195  0.00  0.00    +0.079 A 
BRANCH  26  35
ATOM     32  C   UNL     1       1.202  -8.275  21.980  0.00  0.00    +0.128 C 
ATOM     33  N   UNL     1       1.943  -7.596  23.003  0.00  0.00    -0.313 N 
ATOM     34  H   UNL     1       2.231  -6.626  22.896  0.00  0.00    +0.149 HD
ATOM     35  C   UNL     1       2.201  -8.199  24.217  0.00  0.00    +0.262 C 
ATOM     36  O   UNL     1       1.893  -9.357  24.476  0.00  0.00    -0.269 OA
ENDBRANCH  26  35
ENDBRANCH  25  30
ENDBRANCH   1  25
TORSDOF 6
ENDMDL
MODEL 7
REMARK VINA RESULT:      -7.7      4.295      9.760
REMARK  Name = 
REMARK  7 active torsions:
REMARK  status: ('A' for Active; 'I' for Inactive)
REMARK    1  A    between atoms: C_1  and  N_2
REMARK    2  A    between atoms: C_3  and  C_5
REMARK    3  A    between atoms: C_7  and  O_8
REMARK    4  A    between atoms: O_8  and  C_9
REMARK    5  A    between atoms: C_13  and  N_14
REMARK    6  A    between atoms: N_17  and  C_18
REMARK    7  A    between atoms: C_23  and  C_25
REMARK                            x       y       z     vdW  Elec       q    Type
REMARK                         _______ _______ _______ _____ _____    ______ ____
ROOT
ATOM      1  C   UNL     1       7.992  -4.533  24.377  0.00  0.00    +0.131 A 
ATOM      2  C   UNL     1       7.105  -4.199  23.351  0.00  0.00    +0.048 A 
ATOM      3  C   UNL     1       7.308  -3.036  22.600  0.00  0.00    +0.030 A 
ATOM      4  C   UNL     1       8.414  -2.224  22.859  0.00  0.00    +0.070 A 
ATOM      5  C   UNL     1       9.347  -2.629  23.816  0.00  0.00    +0.148 A 
ATOM      6  F   UNL     1      10.421  -1.862  24.057  0.00  0.00    -0.203 F 
ATOM      7  C   UNL     1       9.146  -3.774  24.578  0.00  0.00    +0.086 A 
ENDROOT
BRANCH   4   8
ATOM      8  N   UNL     1       8.608  -0.989  22.191  0.00  0.00    -0.267 N 
ATOM      9  H   UNL     1       9.514  -0.890  21.743  0.00  0.00    +0.156 HD
ATOM     10  C   UNL     1       8.170   0.193  22.763  0.00  0.00    +0.308 C 
ATOM     11  N   UNL     1       8.370   1.266  21.910  0.00  0.00    -0.269 N 
ATOM     12  H   UNL     1       8.166   1.020  20.951  0.00  0.00    +0.156 HD
ATOM     13  O   UNL     1       7.655   0.281  23.874  0.00  0.00    -0.252 OA
BRANCH  11  14
ATOM     14  C   UNL     1       8.028   2.574  22.311  0.00  0.00    +0.035 A 
ATOM     15  C   UNL     1       8.937   3.399  22.984  0.00  0.00    +0.037 A 
ATOM     16  C   UNL     1       8.584   4.705  23.396  0.00  0.00    +0.075 A 
ATOM     17  C   UNL     1       7.272   5.133  23.161  0.00  0.00    +0.053 A 
ATOM     18 CL   UNL     1       6.662   6.661  23.683  0.00  0.00    -0.083 Cl
ATOM     19  C   UNL     1       6.368   4.310  22.476  0.00  0.00    +0.022 A 
ATOM     20  C   UNL     1       6.754   3.050  22.018  0.00  0.00    +0.025 A 
BRANCH  16  21
ATOM     21  C   UNL     1       9.657   5.552  24.030  0.00  0.00    +0.419 C 
ATOM     22  F   UNL     1       9.818   6.733  23.361  0.00  0.00    -0.166 F 
ATOM     23  F   UNL     1      10.880   4.950  24.001  0.00  0.00    -0.166 F 
ATOM     24  F   UNL     1       9.461   5.907  25.327  0.00  0.00    -0.166 F 
ENDBRANCH  16  21
ENDBRANCH  11  14
ENDBRANCH   4   8
BRANCH   1  25
ATOM     25  O   UNL     1       7.695  -5.654  25.120  0.00  0.00    -0.456 OA
BRANCH  25  30
ATOM     26  C   UNL     1       4.388  -6.132  26.676  0.00  0.00    +0.129 A 
ATOM     27  N   UNL     1       4.530  -5.451  27.851  0.00  0.00    -0.250 NA
ATOM     28  C   UNL     1       5.738  -4.890  28.072  0.00  0.00    +0.115 A 
ATOM     29  C   UNL     1       6.793  -4.952  27.175  0.00  0.00    +0.066 A 
ATOM     30  C   UNL     1       6.608  -5.627  25.971  0.00  0.00    +0.132 A 
ATOM     31  C   UNL     1       5.392  -6.260  25.729  0.00  0.00    +0.079 A 
BRANCH  26  35
ATOM     32  C   UNL     1       1.885  -8.544  25.196  0.00  0.00    +0.128 C 
ATOM     33  N   UNL     1       3.093  -7.892  25.610  0.00  0.00    -0.313 N 
ATOM     34  H   UNL     1       4.002  -8.186  25.260  0.00  0.00    +0.149 HD
ATOM     35  C   UNL     1       3.060  -6.772  26.415  0.00  0.00    +0.262 C 
ATOM     36  O   UNL     1       2.029  -6.311  26.889  0.00  0.00    -0.269 OA
ENDBRANCH  26  35
ENDBRANCH  25  30
ENDBRANCH   1  25
TORSDOF 6
ENDMDL
MODEL 8
REMARK VINA RESULT:      -7.6      4.330     10.092
REMARK  Name = 
REMARK  7 active torsions:
REMARK  status: ('A' for Active; 'I' for Inactive)
REMARK    1  A    between atoms: C_1  and  N_2
REMARK    2  A    between atoms: C_3  and  C_5
REMARK    3  A    between atoms: C_7  and  O_8
REMARK    4  A    between atoms: O_8  and  C_9
REMARK    5  A    between atoms: C_13  and  N_14
REMARK    6  A    between atoms: N_17  and  C_18
REMARK    7  A    between atoms: C_23  and  C_25
REMARK                            x       y       z     vdW  Elec       q    Type
REMARK                         _______ _______ _______ _____ _____    ______ ____
ROOT
ATOM      1  C   UNL     1       5.683  -5.720  23.588  0.00  0.00    +0.131 A 
ATOM      2  C   UNL     1       6.997  -5.578  24.039  0.00  0.00    +0.048 A 
ATOM      3  C   UNL     1       7.777  -4.503  23.599  0.00  0.00    +0.030 A 
ATOM      4  C   UNL     1       7.231  -3.557  22.729  0.00  0.00    +0.070 A 
ATOM      5  C   UNL     1       5.885  -3.656  22.372  0.00  0.00    +0.148 A 
ATOM      6  F   UNL     1       5.350  -2.740  21.552  0.00  0.00    -0.203 F 
ATOM      7  C   UNL     1       5.106  -4.729  22.791  0.00  0.00    +0.086 A 
ENDROOT
BRANCH   4   8
ATOM      8  N   UNL     1       8.011  -2.507  22.182  0.00  0.00    -0.267 N 
ATOM      9  H   UNL     1       8.916  -2.797  21.825  0.00  0.00    +0.156 HD
ATOM     10  C   UNL     1       8.059  -1.272  22.804  0.00  0.00    +0.308 C 
ATOM     11  N   UNL     1       8.795  -0.365  22.060  0.00  0.00    -0.269 N 
ATOM     12  H   UNL     1       8.617  -0.466  21.070  0.00  0.00    +0.156 HD
ATOM     13  O   UNL     1       7.508  -1.006  23.868  0.00  0.00    -0.252 OA
BRANCH  11  14
ATOM     14  C   UNL     1       9.002   0.948  22.531  0.00  0.00    +0.035 A 
ATOM     15  C   UNL     1       8.077   1.971  22.291  0.00  0.00    +0.037 A 
ATOM     16  C   UNL     1       8.297   3.289  22.755  0.00  0.00    +0.075 A 
ATOM     17  C   UNL     1       9.501   3.558  23.416  0.00  0.00    +0.053 A 
ATOM     18 CL   UNL     1       9.956   5.131  23.960  0.00  0.00    -0.083 Cl
ATOM     19  C   UNL     1      10.419   2.530  23.666  0.00  0.00    +0.022 A 
ATOM     20  C   UNL     1      10.156   1.221  23.259  0.00  0.00    +0.025 A 
BRANCH  16  21
ATOM     21  C   UNL     1       7.203   4.301  22.530  0.00  0.00    +0.419 C 
ATOM     22  F   UNL     1       6.806   4.873  23.705  0.00  0.00    -0.166 F 
ATOM     23  F   UNL     1       6.077   3.740  22.002  0.00  0.00    -0.166 F 
ATOM     24  F   UNL     1       7.502   5.345  21.713  0.00  0.00    -0.166 F 
ENDBRANCH  16  21
ENDBRANCH  11  14
ENDBRANCH   4   8
BRANCH   1  25
ATOM     25  O   UNL     1       4.994  -6.837  24.007  0.00  0.00    -0.456 OA
BRANCH  25  30
ATOM     26  C   UNL     1       3.749  -6.731  27.474  0.00  0.00    +0.129 A 
ATOM     27  N   UNL     1       2.409  -6.548  27.285  0.00  0.00    -0.250 NA
ATOM     28  C   UNL     1       1.997  -6.443  26.003  0.00  0.00    +0.115 A 
ATOM     29  C   UNL     1       2.845  -6.535  24.910  0.00  0.00    +0.066 A 
ATOM     30  C   UNL     1       4.202  -6.754  25.134  0.00  0.00    +0.132 A 
ATOM     31  C   UNL     1       4.671  -6.820  26.443  0.00  0.00    +0.079 A 
BRANCH  26  35
ATOM     32  C   UNL     1       6.021  -6.256  30.455  0.00  0.00    +0.128 C 
ATOM     33  N   UNL     1       5.394  -6.157  29.169  0.00  0.00    -0.313 N 
ATOM     34  H   UNL     1       5.828  -5.644  28.404  0.00  0.00    +0.149 HD
ATOM     35  C   UNL     1       4.229  -6.840  28.887  0.00  0.00    +0.262 C 
ATOM     36  O   UNL     1       3.618  -7.504  29.717  0.00  0.00    -0.269 OA
ENDBRANCH  26  35
ENDBRANCH  25  30
ENDBRANCH   1  25
TORSDOF 6
ENDMDL
MODEL 9
REMARK VINA RESULT:      -7.4      2.911      4.665
REMARK  Name = 
REMARK  7 active torsions:
REMARK  status: ('A' for Active; 'I' for Inactive)
REMARK    1  A    between atoms: C_1  and  N_2
REMARK    2  A    between atoms: C_3  and  C_5
REMARK    3  A    between atoms: C_7  and  O_8
REMARK    4  A    between atoms: O_8  and  C_9
REMARK    5  A    between atoms: C_13  and  N_14
REMARK    6  A    between atoms: N_17  and  C_18
REMARK    7  A    between atoms: C_23  and  C_25
REMARK                            x       y       z     vdW  Elec       q    Type
REMARK                         _______ _______ _______ _____ _____    ______ ____
ROOT
ATOM      1  C   UNL     1       9.176  -1.432  22.577  0.00  0.00    +0.131 A 
ATOM      2  C   UNL     1       9.911  -1.777  23.713  0.00  0.00    +0.048 A 
ATOM      3  C   UNL     1       9.583  -2.927  24.440  0.00  0.00    +0.030 A 
ATOM      4  C   UNL     1       8.535  -3.745  24.011  0.00  0.00    +0.070 A 
ATOM      5  C   UNL     1       7.880  -3.443  22.816  0.00  0.00    +0.148 A 
ATOM      6  F   UNL     1       6.885  -4.235  22.390  0.00  0.00    -0.203 F 
ATOM      7  C   UNL     1       8.189  -2.294  22.096  0.00  0.00    +0.086 A 
ENDROOT
BRANCH   4   8
ATOM      8  N   UNL     1       8.104  -4.865  24.766  0.00  0.00    -0.267 N 
ATOM      9  H   UNL     1       8.062  -5.734  24.243  0.00  0.00    +0.156 HD
ATOM     10  C   UNL     1       7.063  -4.741  25.670  0.00  0.00    +0.308 C 
ATOM     11  N   UNL     1       6.865  -5.921  26.368  0.00  0.00    -0.269 N 
ATOM     12  H   UNL     1       7.741  -6.362  26.609  0.00  0.00    +0.156 HD
ATOM     13  O   UNL     1       6.411  -3.717  25.846  0.00  0.00    -0.252 OA
BRANCH  11  14
ATOM     14  C   UNL     1       5.826  -6.027  27.316  0.00  0.00    +0.035 A 
ATOM     15  C   UNL     1       4.529  -6.407  26.948  0.00  0.00    +0.037 A 
ATOM     16  C   UNL     1       3.488  -6.498  27.902  0.00  0.00    +0.075 A 
ATOM     17  C   UNL     1       3.778  -6.139  29.223  0.00  0.00    +0.053 A 
ATOM     18 CL   UNL     1       2.597  -6.109  30.482  0.00  0.00    -0.083 Cl
ATOM     19  C   UNL     1       5.079  -5.771  29.591  0.00  0.00    +0.022 A 
ATOM     20  C   UNL     1       6.109  -5.750  28.650  0.00  0.00    +0.025 A 
BRANCH  16  21
ATOM     21  C   UNL     1       2.150  -7.006  27.429  0.00  0.00    +0.419 C 
ATOM     22  F   UNL     1       2.216  -7.456  26.141  0.00  0.00    -0.166 F 
ATOM     23  F   UNL     1       1.197  -6.030  27.423  0.00  0.00    -0.166 F 
ATOM     24  F   UNL     1       1.609  -8.034  28.135  0.00  0.00    -0.166 F 
ENDBRANCH  16  21
ENDBRANCH  11  14
ENDBRANCH   4   8
BRANCH   1  25
ATOM     25  O   UNL     1       9.509  -0.253  21.950  0.00  0.00    -0.456 OA
BRANCH  25  30
ATOM     26  C   UNL     1       9.527   3.157  23.350  0.00  0.00    +0.129 A 
ATOM     27  N   UNL     1       8.234   3.298  23.761  0.00  0.00    -0.250 NA
ATOM     28  C   UNL     1       7.415   2.251  23.523  0.00  0.00    +0.115 A 
ATOM     29  C   UNL     1       7.827   1.071  22.922  0.00  0.00    +0.066 A 
ATOM     30  C   UNL     1       9.160   0.945  22.542  0.00  0.00    +0.132 A 
ATOM     31  C   UNL     1      10.023   2.021  22.728  0.00  0.00    +0.079 A 
BRANCH  26  35
ATOM     32  C   UNL     1      12.730   5.161  23.301  0.00  0.00    +0.128 C 
ATOM     33  N   UNL     1      11.714   4.179  23.057  0.00  0.00    -0.313 N 
ATOM     34  H   UNL     1      11.916   3.320  22.549  0.00  0.00    +0.149 HD
ATOM     35  C   UNL     1      10.450   4.310  23.595  0.00  0.00    +0.262 C 
ATOM     36  O   UNL     1      10.088   5.288  24.238  0.00  0.00    -0.269 OA
ENDBRANCH  26  35
ENDBRANCH  25  30
ENDBRANCH   1  25
TORSDOF 6
ENDMDL
