MODEL 1
REMARK VINA RESULT:      -5.9      0.000      0.000
REMARK  Name = 
REMARK  15 active torsions:
REMARK  status: ('A' for Active; 'I' for Inactive)
REMARK    1  A    between atoms: O_1  and  C_2
REMARK    2  A    between atoms: C_4  and  O_6
REMARK    3  A    between atoms: C_7  and  O_9
REMARK    4  A    between atoms: O_9  and  P_10
REMARK    5  A    between atoms: P_10  and  O_11
REMARK    6  A    between atoms: P_10  and  O_12
REMARK    7  A    between atoms: C_14  and  O_16
REMARK    8  A    between atoms: O_16  and  P_17
REMARK    9  A    between atoms: P_17  and  O_18
REMARK   10  A    between atoms: P_17  and  O_19
REMARK   11  A    between atoms: C_21  and  O_23
REMARK   12  A    between atoms: C_24  and  O_26
REMARK   13  A    between atoms: O_26  and  P_27
REMARK   14  A    between atoms: P_27  and  O_28
REMARK   15  A    between atoms: P_27  and  O_29
REMARK                            x       y       z     vdW  Elec       q    Type
REMARK                         _______ _______ _______ _____ _____    ______ ____
ROOT
ATOM      1  C   UNL     1       8.371  -4.330  26.042  0.00  0.00    +0.177 C 
ATOM      2  C   UNL     1       8.037  -3.767  24.662  0.00  0.00    +0.192 C 
ATOM      3  C   UNL     1       6.515  -3.741  24.414  0.00  0.00    +0.178 C 
ATOM      4  C   UNL     1       5.881  -5.109  24.632  0.00  0.00    +0.193 C 
ATOM      5  C   UNL     1       6.122  -5.480  26.102  0.00  0.00    +0.193 C 
ATOM      6  C   UNL     1       7.645  -5.649  26.313  0.00  0.00    +0.177 C 
ENDROOT
BRANCH   1   7
ATOM      7  O   UNL     1       9.784  -4.522  26.195  0.00  0.00    -0.386 OA
ATOM      8  H   UNL     1      10.076  -4.133  27.042  0.00  0.00    +0.210 HD
ENDBRANCH   1   7
BRANCH   3   9
ATOM      9  O   UNL     1       5.894  -2.844  25.357  0.00  0.00    -0.386 OA
ATOM     10  H   UNL     1       5.383  -3.384  25.997  0.00  0.00    +0.210 HD
ENDBRANCH   3   9
BRANCH   6  11
ATOM     11  O   UNL     1       7.941  -6.040  27.662  0.00  0.00    -0.386 OA
ATOM     12  H   UNL     1       7.934  -7.023  27.670  0.00  0.00    +0.210 HD
ENDBRANCH   6  11
BRANCH   2  13
ATOM     13  O   UNL     1       8.404  -2.406  24.592  0.00  0.00    -0.278 OA
BRANCH  13  14
ATOM     14  P   UNL     1       9.378  -1.666  23.369  0.00  0.00    +0.473 P 
ATOM     15  O   UNL     1      10.248  -1.002  22.274  0.00  0.00    -0.228 OA
BRANCH  14  16
ATOM     16  O   UNL     1      10.404  -2.908  23.644  0.00  0.00    -0.303 OA
ATOM     17  H   UNL     1      11.320  -2.693  23.391  0.00  0.00    +0.222 HD
ENDBRANCH  14  16
BRANCH  14  18
ATOM     18  O   UNL     1       9.997  -0.736  24.567  0.00  0.00    -0.303 OA
ATOM     19  H   UNL     1      10.219   0.115  24.139  0.00  0.00    +0.222 HD
ENDBRANCH  14  18
ENDBRANCH  13  14
ENDBRANCH   2  13
BRANCH   4  20
ATOM     20  O   UNL     1       4.495  -5.025  24.308  0.00  0.00    -0.278 OA
BRANCH  20  21
ATOM     21  P   UNL     1       3.893  -6.049  23.228  0.00  0.00    +0.473 P 
ATOM     22  O   UNL     1       2.513  -5.773  22.742  0.00  0.00    -0.228 OA
BRANCH  21  23
ATOM     23  O   UNL     1       3.964  -7.448  23.987  0.00  0.00    -0.303 OA
ATOM     24  H   UNL     1       3.610  -7.364  24.883  0.00  0.00    +0.222 HD
ENDBRANCH  21  23
BRANCH  21  25
ATOM     25  O   UNL     1       5.012  -6.208  22.108  0.00  0.00    -0.303 OA
ATOM     26  H   UNL     1       4.634  -6.475  21.238  0.00  0.00    +0.222 HD
ENDBRANCH  21  25
ENDBRANCH  20  21
ENDBRANCH   4  20
BRANCH   5  27
ATOM     27  O   UNL     1       5.392  -6.649  26.402  0.00  0.00    -0.278 OA
BRANCH  27  28
ATOM     28  P   UNL     1       4.393  -6.430  27.798  0.00  0.00    +0.473 P 
ATOM     29  O   UNL     1       3.500  -6.234  29.047  0.00  0.00    -0.228 OA
BRANCH  28  30
ATOM     30  O   UNL     1       5.300  -7.605  28.491  0.00  0.00    -0.303 OA
ATOM     31  H   UNL     1       6.189  -7.230  28.644  0.00  0.00    +0.222 HD
ENDBRANCH  28  30
BRANCH  28  32
ATOM     32  O   UNL     1       3.412  -7.503  27.043  0.00  0.00    -0.303 OA
ATOM     33  H   UNL     1       3.723  -8.388  27.328  0.00  0.00    +0.222 HD
ENDBRANCH  28  32
ENDBRANCH  27  28
ENDBRANCH   5  27
TORSDOF 15
ENDMDL
MODEL 2
REMARK VINA RESULT:      -5.8      1.124      1.672
REMARK  Name = 
REMARK  15 active torsions:
REMARK  status: ('A' for Active; 'I' for Inactive)
REMARK    1  A    between atoms: O_1  and  C_2
REMARK    2  A    between atoms: C_4  and  O_6
REMARK    3  A    between atoms: C_7  and  O_9
REMARK    4  A    between atoms: O_9  and  P_10
REMARK    5  A    between atoms: P_10  and  O_11
REMARK    6  A    between atoms: P_10  and  O_12
REMARK    7  A    between atoms: C_14  and  O_16
REMARK    8  A    between atoms: O_16  and  P_17
REMARK    9  A    between atoms: P_17  and  O_18
REMARK   10  A    between atoms: P_17  and  O_19
REMARK   11  A    between atoms: C_21  and  O_23
REMARK   12  A    between atoms: C_24  and  O_26
REMARK   13  A    between atoms: O_26  and  P_27
REMARK   14  A    between atoms: P_27  and  O_28
REMARK   15  A    between atoms: P_27  and  O_29
REMARK                            x       y       z     vdW  Elec       q    Type
REMARK                         _______ _______ _______ _____ _____    ______ ____
ROOT
ATOM      1  C   UNL     1       8.860  -3.672  24.501  0.00  0.00    +0.177 C 
ATOM      2  C   UNL     1       8.035  -3.387  23.249  0.00  0.00    +0.192 C 
ATOM      3  C   UNL     1       6.522  -3.531  23.522  0.00  0.00    +0.178 C 
ATOM      4  C   UNL     1       6.182  -4.889  24.124  0.00  0.00    +0.193 C 
ATOM      5  C   UNL     1       6.923  -4.976  25.466  0.00  0.00    +0.193 C 
ATOM      6  C   UNL     1       8.442  -4.980  25.177  0.00  0.00    +0.177 C 
ENDROOT
BRANCH   1   7
ATOM      7  O   UNL     1      10.262  -3.717  24.199  0.00  0.00    -0.386 OA
ATOM      8  H   UNL     1      10.622  -2.808  24.189  0.00  0.00    +0.210 HD
ENDBRANCH   1   7
BRANCH   3   9
ATOM      9  O   UNL     1       6.117  -2.538  24.486  0.00  0.00    -0.386 OA
ATOM     10  H   UNL     1       6.456  -2.813  25.364  0.00  0.00    +0.210 HD
ENDBRANCH   3   9
BRANCH   6  11
ATOM     11  O   UNL     1       9.200  -5.104  26.391  0.00  0.00    -0.386 OA
ATOM     12  H   UNL     1      10.146  -5.055  26.129  0.00  0.00    +0.210 HD
ENDBRANCH   6  11
BRANCH   2  13
ATOM     13  O   UNL     1       8.172  -2.034  22.874  0.00  0.00    -0.278 OA
BRANCH  13  14
ATOM     14  P   UNL     1       9.540  -1.018  23.174  0.00  0.00    +0.473 P 
ATOM     15  O   UNL     1      10.765  -0.110  23.443  0.00  0.00    -0.228 OA
BRANCH  14  16
ATOM     16  O   UNL     1       8.718   0.094  22.302  0.00  0.00    -0.303 OA
ATOM     17  H   UNL     1       7.881   0.351  22.727  0.00  0.00    +0.222 HD
ENDBRANCH  14  16
BRANCH  14  18
ATOM     18  O   UNL     1      10.221  -1.717  21.859  0.00  0.00    -0.303 OA
ATOM     19  H   UNL     1      11.177  -1.532  21.939  0.00  0.00    +0.222 HD
ENDBRANCH  14  18
ENDBRANCH  13  14
ENDBRANCH   2  13
BRANCH   4  20
ATOM     20  O   UNL     1       4.767  -4.977  24.273  0.00  0.00    -0.278 OA
BRANCH  20  21
ATOM     21  P   UNL     1       3.972  -6.088  23.430  0.00  0.00    +0.473 P 
ATOM     22  O   UNL     1       2.488  -5.972  23.404  0.00  0.00    -0.228 OA
BRANCH  21  23
ATOM     23  O   UNL     1       4.428  -7.450  24.118  0.00  0.00    -0.303 OA
ATOM     24  H   UNL     1       3.675  -7.881  24.545  0.00  0.00    +0.222 HD
ENDBRANCH  21  23
BRANCH  21  25
ATOM     25  O   UNL     1       4.694  -6.159  22.013  0.00  0.00    -0.303 OA
ATOM     26  H   UNL     1       4.864  -7.086  21.727  0.00  0.00    +0.222 HD
ENDBRANCH  21  25
ENDBRANCH  20  21
ENDBRANCH   4  20
BRANCH   5  27
ATOM     27  O   UNL     1       6.491  -6.132  26.149  0.00  0.00    -0.278 OA
BRANCH  27  28
ATOM     28  P   UNL     1       5.895  -5.748  27.728  0.00  0.00    +0.473 P 
ATOM     29  O   UNL     1       5.363  -5.403  29.140  0.00  0.00    -0.228 OA
BRANCH  28  30
ATOM     30  O   UNL     1       7.336  -6.297  28.281  0.00  0.00    -0.303 OA
ATOM     31  H   UNL     1       7.194  -7.209  28.600  0.00  0.00    +0.222 HD
ENDBRANCH  28  30
BRANCH  28  32
ATOM     32  O   UNL     1       5.246  -7.250  27.653  0.00  0.00    -0.303 OA
ATOM     33  H   UNL     1       4.681  -7.332  28.450  0.00  0.00    +0.222 HD
ENDBRANCH  28  32
ENDBRANCH  27  28
ENDBRANCH   5  27
TORSDOF 15
ENDMDL
MODEL 3
REMARK VINA RESULT:      -5.8      3.153      5.563
REMARK  Name = 
REMARK  15 active torsions:
REMARK  status: ('A' for Active; 'I' for Inactive)
REMARK    1  A    between atoms: O_1  and  C_2
REMARK    2  A    between atoms: C_4  and  O_6
REMARK    3  A    between atoms: C_7  and  O_9
REMARK    4  A    between atoms: O_9  and  P_10
REMARK    5  A    between atoms: P_10  and  O_11
REMARK    6  A    between atoms: P_10  and  O_12
REMARK    7  A    between atoms: C_14  and  O_16
REMARK    8  A    between atoms: O_16  and  P_17
REMARK    9  A    between atoms: P_17  and  O_18
REMARK   10  A    between atoms: P_17  and  O_19
REMARK   11  A    between atoms: C_21  and  O_23
REMARK   12  A    between atoms: C_24  and  O_26
REMARK   13  A    between atoms: O_26  and  P_27
REMARK   14  A    between atoms: P_27  and  O_28
REMARK   15  A    between atoms: P_27  and  O_29
REMARK                            x       y       z     vdW  Elec       q    Type
REMARK                         _______ _______ _______ _____ _____    ______ ____
ROOT
ATOM      1  C   UNL     1       7.579  -0.514  22.541  0.00  0.00    +0.177 C 
ATOM      2  C   UNL     1       8.814  -0.316  23.415  0.00  0.00    +0.192 C 
ATOM      3  C   UNL     1       9.582  -1.639  23.619  0.00  0.00    +0.178 C 
ATOM      4  C   UNL     1       8.680  -2.741  24.162  0.00  0.00    +0.193 C 
ATOM      5  C   UNL     1       7.587  -2.976  23.109  0.00  0.00    +0.193 C 
ATOM      6  C   UNL     1       6.727  -1.695  23.013  0.00  0.00    +0.177 C 
ENDROOT
BRANCH   1   7
ATOM      7  O   UNL     1       6.773   0.672  22.507  0.00  0.00    -0.386 OA
ATOM      8  H   UNL     1       6.126   0.605  21.777  0.00  0.00    +0.210 HD
ENDBRANCH   1   7
BRANCH   3   9
ATOM      9  O   UNL     1      10.079  -2.103  22.347  0.00  0.00    -0.386 OA
ATOM     10  H   UNL     1      10.929  -1.646  22.169  0.00  0.00    +0.210 HD
ENDBRANCH   3   9
BRANCH   6  11
ATOM     11  O   UNL     1       5.653  -1.860  22.074  0.00  0.00    -0.386 OA
ATOM     12  H   UNL     1       4.860  -2.094  22.604  0.00  0.00    +0.210 HD
ENDBRANCH   6  11
BRANCH   2  13
ATOM     13  O   UNL     1       9.750   0.507  22.753  0.00  0.00    -0.278 OA
BRANCH  13  14
ATOM     14  P   UNL     1      10.123   2.152  23.133  0.00  0.00    +0.473 P 
ATOM     15  O   UNL     1      10.457   3.626  23.472  0.00  0.00    -0.228 OA
BRANCH  14  16
ATOM     16  O   UNL     1       8.858   2.044  24.163  0.00  0.00    -0.303 OA
ATOM     17  H   UNL     1       8.699   1.130  24.458  0.00  0.00    +0.222 HD
ENDBRANCH  14  16
BRANCH  14  18
ATOM     18  O   UNL     1       9.191   2.554  21.847  0.00  0.00    -0.303 OA
ATOM     19  H   UNL     1       8.611   1.780  21.702  0.00  0.00    +0.222 HD
ENDBRANCH  14  18
ENDBRANCH  13  14
ENDBRANCH   2  13
BRANCH   4  20
ATOM     20  O   UNL     1       9.472  -3.902  24.398  0.00  0.00    -0.278 OA
BRANCH  20  21
ATOM     21  P   UNL     1       9.207  -4.757  25.730  0.00  0.00    +0.473 P 
ATOM     22  O   UNL     1       9.096  -3.994  27.004  0.00  0.00    -0.228 OA
BRANCH  21  23
ATOM     23  O   UNL     1      10.448  -5.754  25.765  0.00  0.00    -0.303 OA
ATOM     24  H   UNL     1      11.242  -5.317  25.428  0.00  0.00    +0.222 HD
ENDBRANCH  21  23
BRANCH  21  25
ATOM     25  O   UNL     1       7.993  -5.729  25.390  0.00  0.00    -0.303 OA
ATOM     26  H   UNL     1       7.458  -5.952  26.187  0.00  0.00    +0.222 HD
ENDBRANCH  21  25
ENDBRANCH  20  21
ENDBRANCH   4  20
BRANCH   5  27
ATOM     27  O   UNL     1       6.839  -4.114  23.477  0.00  0.00    -0.278 OA
BRANCH  27  28
ATOM     28  P   UNL     1       6.520  -5.130  22.112  0.00  0.00    +0.473 P 
ATOM     29  O   UNL     1       6.235  -6.038  20.892  0.00  0.00    -0.228 OA
BRANCH  28  30
ATOM     30  O   UNL     1       5.714  -6.094  23.163  0.00  0.00    -0.303 OA
ATOM     31  H   UNL     1       5.368  -5.520  23.874  0.00  0.00    +0.222 HD
ENDBRANCH  28  30
BRANCH  28  32
ATOM     32  O   UNL     1       7.975  -5.783  22.485  0.00  0.00    -0.303 OA
ATOM     33  H   UNL     1       8.515  -5.705  21.670  0.00  0.00    +0.222 HD
ENDBRANCH  28  32
ENDBRANCH  27  28
ENDBRANCH   5  27
TORSDOF 15
ENDMDL
MODEL 4
REMARK VINA RESULT:      -5.8      4.448      6.790
REMARK  Name = 
REMARK  15 active torsions:
REMARK  status: ('A' for Active; 'I' for Inactive)
REMARK    1  A    between atoms: O_1  and  C_2
REMARK    2  A    between atoms: C_4  and  O_6
REMARK    3  A    between atoms: C_7  and  O_9
REMARK    4  A    between atoms: O_9  and  P_10
REMARK    5  A    between atoms: P_10  and  O_11
REMARK    6  A    between atoms: P_10  and  O_12
REMARK    7  A    between atoms: C_14  and  O_16
REMARK    8  A    between atoms: O_16  and  P_17
REMARK    9  A    between atoms: P_17  and  O_18
REMARK   10  A    between atoms: P_17  and  O_19
REMARK   11  A    between atoms: C_21  and  O_23
REMARK   12  A    between atoms: C_24  and  O_26
REMARK   13  A    between atoms: O_26  and  P_27
REMARK   14  A    between atoms: P_27  and  O_28
REMARK   15  A    between atoms: P_27  and  O_29
REMARK                            x       y       z     vdW  Elec       q    Type
REMARK                         _______ _______ _______ _____ _____    ______ ____
ROOT
ATOM      1  C   UNL     1       9.729   1.447  22.574  0.00  0.00    +0.177 C 
ATOM      2  C   UNL     1       8.958   2.322  23.560  0.00  0.00    +0.192 C 
ATOM      3  C   UNL     1       8.432   1.501  24.756  0.00  0.00    +0.178 C 
ATOM      4  C   UNL     1       7.606   0.303  24.302  0.00  0.00    +0.193 C 
ATOM      5  C   UNL     1       8.542  -0.592  23.478  0.00  0.00    +0.193 C 
ATOM      6  C   UNL     1       8.952   0.182  22.203  0.00  0.00    +0.177 C 
ENDROOT
BRANCH   1   7
ATOM      7  O   UNL     1      10.056   2.174  21.382  0.00  0.00    -0.386 OA
ATOM      8  H   UNL     1      10.787   1.724  20.916  0.00  0.00    +0.210 HD
ENDBRANCH   1   7
BRANCH   3   9
ATOM      9  O   UNL     1       9.550   0.974  25.499  0.00  0.00    -0.386 OA
ATOM     10  H   UNL     1       9.199   0.355  26.175  0.00  0.00    +0.210 HD
ENDBRANCH   3   9
BRANCH   6  11
ATOM     11  O   UNL     1       9.797  -0.617  21.361  0.00  0.00    -0.386 OA
ATOM     12  H   UNL     1      10.187  -1.308  21.941  0.00  0.00    +0.210 HD
ENDBRANCH   6  11
BRANCH   2  13
ATOM     13  O   UNL     1       9.828   3.257  24.161  0.00  0.00    -0.278 OA
BRANCH  13  14
ATOM     14  P   UNL     1       9.842   4.966  23.898  0.00  0.00    +0.473 P 
ATOM     15  O   UNL     1       9.855   6.496  23.663  0.00  0.00    -0.228 OA
BRANCH  14  16
ATOM     16  O   UNL     1       8.723   4.648  22.750  0.00  0.00    -0.303 OA
ATOM     17  H   UNL     1       7.836   4.506  23.127  0.00  0.00    +0.222 HD
ENDBRANCH  14  16
BRANCH  14  18
ATOM     18  O   UNL     1      11.112   4.700  22.899  0.00  0.00    -0.303 OA
ATOM     19  H   UNL     1      10.726   4.668  22.001  0.00  0.00    +0.222 HD
ENDBRANCH  14  18
ENDBRANCH  13  14
ENDBRANCH   2  13
BRANCH   4  20
ATOM     20  O   UNL     1       7.091  -0.357  25.455  0.00  0.00    -0.278 OA
BRANCH  20  21
ATOM     21  P   UNL     1       5.500  -0.444  25.646  0.00  0.00    +0.473 P 
ATOM     22  O   UNL     1       5.001  -0.595  27.041  0.00  0.00    -0.228 OA
BRANCH  21  23
ATOM     23  O   UNL     1       5.104  -1.704  24.755  0.00  0.00    -0.303 OA
ATOM     24  H   UNL     1       5.512  -2.507  25.106  0.00  0.00    +0.222 HD
ENDBRANCH  21  23
BRANCH  21  25
ATOM     25  O   UNL     1       4.894   0.770  24.814  0.00  0.00    -0.303 OA
ATOM     26  H   UNL     1       4.766   0.544  23.863  0.00  0.00    +0.222 HD
ENDBRANCH  21  25
ENDBRANCH  20  21
ENDBRANCH   4  20
BRANCH   5  27
ATOM     27  O   UNL     1       7.879  -1.805  23.194  0.00  0.00    -0.278 OA
BRANCH  27  28
ATOM     28  P   UNL     1       8.743  -3.162  23.831  0.00  0.00    +0.473 P 
ATOM     29  O   UNL     1       9.516  -4.377  24.400  0.00  0.00    -0.228 OA
BRANCH  28  30
ATOM     30  O   UNL     1       7.500  -3.313  24.887  0.00  0.00    -0.303 OA
ATOM     31  H   UNL     1       7.196  -4.240  24.843  0.00  0.00    +0.222 HD
ENDBRANCH  28  30
BRANCH  28  32
ATOM     32  O   UNL     1       9.500  -2.028  24.739  0.00  0.00    -0.303 OA
ATOM     33  H   UNL     1       9.578  -1.239  24.163  0.00  0.00    +0.222 HD
ENDBRANCH  28  32
ENDBRANCH  27  28
ENDBRANCH   5  27
TORSDOF 15
ENDMDL
MODEL 5
REMARK VINA RESULT:      -5.7      3.401      7.654
REMARK  Name = 
REMARK  15 active torsions:
REMARK  status: ('A' for Active; 'I' for Inactive)
REMARK    1  A    between atoms: O_1  and  C_2
REMARK    2  A    between atoms: C_4  and  O_6
REMARK    3  A    between atoms: C_7  and  O_9
REMARK    4  A    between atoms: O_9  and  P_10
REMARK    5  A    between atoms: P_10  and  O_11
REMARK    6  A    between atoms: P_10  and  O_12
REMARK    7  A    between atoms: C_14  and  O_16
REMARK    8  A    between atoms: O_16  and  P_17
REMARK    9  A    between atoms: P_17  and  O_18
REMARK   10  A    between atoms: P_17  and  O_19
REMARK   11  A    between atoms: C_21  and  O_23
REMARK   12  A    between atoms: C_24  and  O_26
REMARK   13  A    between atoms: O_26  and  P_27
REMARK   14  A    between atoms: P_27  and  O_28
REMARK   15  A    between atoms: P_27  and  O_29
REMARK                            x       y       z     vdW  Elec       q    Type
REMARK                         _______ _______ _______ _____ _____    ______ ____
ROOT
ATOM      1  C   UNL     1       8.993  -2.437  23.437  0.00  0.00    +0.177 C 
ATOM      2  C   UNL     1       7.963  -2.194  24.537  0.00  0.00    +0.192 C 
ATOM      3  C   UNL     1       6.857  -1.223  24.074  0.00  0.00    +0.178 C 
ATOM      4  C   UNL     1       7.435   0.084  23.546  0.00  0.00    +0.193 C 
ATOM      5  C   UNL     1       8.300  -0.274  22.330  0.00  0.00    +0.193 C 
ATOM      6  C   UNL     1       9.493  -1.128  22.821  0.00  0.00    +0.177 C 
ENDROOT
BRANCH   1   7
ATOM      7  O   UNL     1      10.110  -3.190  23.930  0.00  0.00    -0.386 OA
ATOM      8  H   UNL     1       9.804  -4.068  24.231  0.00  0.00    +0.210 HD
ENDBRANCH   1   7
BRANCH   3   9
ATOM      9  O   UNL     1       6.125  -1.820  22.984  0.00  0.00    -0.386 OA
ATOM     10  H   UNL     1       6.773  -2.236  22.377  0.00  0.00    +0.210 HD
ENDBRANCH   3   9
BRANCH   6  11
ATOM     11  O   UNL     1      10.372  -1.464  21.736  0.00  0.00    -0.386 OA
ATOM     12  H   UNL     1       9.907  -1.193  20.914  0.00  0.00    +0.210 HD
ENDBRANCH   6  11
BRANCH   2  13
ATOM     13  O   UNL     1       7.259  -3.386  24.813  0.00  0.00    -0.278 OA
BRANCH  13  14
ATOM     14  P   UNL     1       7.428  -4.378  26.220  0.00  0.00    +0.473 P 
ATOM     15  O   UNL     1       7.579  -5.267  27.478  0.00  0.00    -0.228 OA
BRANCH  14  16
ATOM     16  O   UNL     1       8.628  -3.344  26.622  0.00  0.00    -0.303 OA
ATOM     17  H   UNL     1       8.472  -2.913  27.481  0.00  0.00    +0.222 HD
ENDBRANCH  14  16
BRANCH  14  18
ATOM     18  O   UNL     1       8.397  -5.332  25.307  0.00  0.00    -0.303 OA
ATOM     19  H   UNL     1       9.025  -5.735  25.939  0.00  0.00    +0.222 HD
ENDBRANCH  14  18
ENDBRANCH  13  14
ENDBRANCH   2  13
BRANCH   4  20
ATOM     20  O   UNL     1       6.358   0.956  23.214  0.00  0.00    -0.278 OA
BRANCH  20  21
ATOM     21  P   UNL     1       5.800   1.955  24.340  0.00  0.00    +0.473 P 
ATOM     22  O   UNL     1       4.533   1.561  25.015  0.00  0.00    -0.228 OA
BRANCH  21  23
ATOM     23  O   UNL     1       5.625   3.324  23.545  0.00  0.00    -0.303 OA
ATOM     24  H   UNL     1       6.045   3.265  22.676  0.00  0.00    +0.222 HD
ENDBRANCH  21  23
BRANCH  21  25
ATOM     25  O   UNL     1       7.034   2.267  25.295  0.00  0.00    -0.303 OA
ATOM     26  H   UNL     1       6.759   2.720  26.125  0.00  0.00    +0.222 HD
ENDBRANCH  21  25
ENDBRANCH  20  21
ENDBRANCH   4  20
BRANCH   5  27
ATOM     27  O   UNL     1       8.705   0.917  21.692  0.00  0.00    -0.278 OA
BRANCH  27  28
ATOM     28  P   UNL     1       9.622   1.926  22.759  0.00  0.00    +0.473 P 
ATOM     29  O   UNL     1      10.441   2.828  23.713  0.00  0.00    -0.228 OA
BRANCH  28  30
ATOM     30  O   UNL     1       8.502   3.080  22.445  0.00  0.00    -0.303 OA
ATOM     31  H   UNL     1       7.773   2.954  23.083  0.00  0.00    +0.222 HD
ENDBRANCH  28  30
BRANCH  28  32
ATOM     32  O   UNL     1      10.484   2.265  21.408  0.00  0.00    -0.303 OA
ATOM     33  H   UNL     1      10.229   3.177  21.155  0.00  0.00    +0.222 HD
ENDBRANCH  28  32
ENDBRANCH  27  28
ENDBRANCH   5  27
TORSDOF 15
ENDMDL
MODEL 6
REMARK VINA RESULT:      -5.7      1.797      4.059
REMARK  Name = 
REMARK  15 active torsions:
REMARK  status: ('A' for Active; 'I' for Inactive)
REMARK    1  A    between atoms: O_1  and  C_2
REMARK    2  A    between atoms: C_4  and  O_6
REMARK    3  A    between atoms: C_7  and  O_9
REMARK    4  A    between atoms: O_9  and  P_10
REMARK    5  A    between atoms: P_10  and  O_11
REMARK    6  A    between atoms: P_10  and  O_12
REMARK    7  A    between atoms: C_14  and  O_16
REMARK    8  A    between atoms: O_16  and  P_17
REMARK    9  A    between atoms: P_17  and  O_18
REMARK   10  A    between atoms: P_17  and  O_19
REMARK   11  A    between atoms: C_21  and  O_23
REMARK   12  A    between atoms: C_24  and  O_26
REMARK   13  A    between atoms: O_26  and  P_27
REMARK   14  A    between atoms: P_27  and  O_28
REMARK   15  A    between atoms: P_27  and  O_29
REMARK                            x       y       z     vdW  Elec       q    Type
REMARK                         _______ _______ _______ _____ _____    ______ ____
ROOT
ATOM      1  C   UNL     1       6.361  -4.515  21.835  0.00  0.00    +0.177 C 
ATOM      2  C   UNL     1       6.985  -3.631  22.911  0.00  0.00    +0.192 C 
ATOM      3  C   UNL     1       7.483  -4.463  24.111  0.00  0.00    +0.178 C 
ATOM      4  C   UNL     1       6.383  -5.352  24.680  0.00  0.00    +0.193 C 
ATOM      5  C   UNL     1       5.972  -6.319  23.562  0.00  0.00    +0.193 C 
ATOM      6  C   UNL     1       5.338  -5.492  22.419  0.00  0.00    +0.177 C 
ENDROOT
BRANCH   1   7
ATOM      7  O   UNL     1       5.739  -3.726  20.812  0.00  0.00    -0.386 OA
ATOM      8  H   UNL     1       6.220  -3.846  19.970  0.00  0.00    +0.210 HD
ENDBRANCH   1   7
BRANCH   3   9
ATOM      9  O   UNL     1       8.539  -5.344  23.674  0.00  0.00    -0.386 OA
ATOM     10  H   UNL     1       8.441  -6.194  24.153  0.00  0.00    +0.210 HD
ENDBRANCH   3   9
BRANCH   6  11
ATOM     11  O   UNL     1       4.888  -6.342  21.352  0.00  0.00    -0.386 OA
ATOM     12  H   UNL     1       3.952  -6.561  21.554  0.00  0.00    +0.210 HD
ENDBRANCH   6  11
BRANCH   2  13
ATOM     13  O   UNL     1       8.163  -3.027  22.420  0.00  0.00    -0.278 OA
BRANCH  13  14
ATOM     14  P   UNL     1       8.988  -1.672  23.109  0.00  0.00    +0.473 P 
ATOM     15  O   UNL     1       9.726  -0.459  23.727  0.00  0.00    -0.228 OA
BRANCH  14  16
ATOM     16  O   UNL     1       9.558  -1.439  21.595  0.00  0.00    -0.303 OA
ATOM     17  H   UNL     1       8.923  -0.963  21.031  0.00  0.00    +0.222 HD
ENDBRANCH  14  16
BRANCH  14  18
ATOM     18  O   UNL     1      10.171  -2.728  23.518  0.00  0.00    -0.303 OA
ATOM     19  H   UNL     1       9.703  -3.553  23.755  0.00  0.00    +0.222 HD
ENDBRANCH  14  18
ENDBRANCH  13  14
ENDBRANCH   2  13
BRANCH   4  20
ATOM     20  O   UNL     1       6.893  -6.026  25.828  0.00  0.00    -0.278 OA
BRANCH  20  21
ATOM     21  P   UNL     1       7.176  -5.176  27.159  0.00  0.00    +0.473 P 
ATOM     22  O   UNL     1       6.479  -3.865  27.277  0.00  0.00    -0.228 OA
BRANCH  21  23
ATOM     23  O   UNL     1       8.757  -4.983  27.128  0.00  0.00    -0.303 OA
ATOM     24  H   UNL     1       8.983  -4.043  27.155  0.00  0.00    +0.222 HD
ENDBRANCH  21  23
BRANCH  21  25
ATOM     25  O   UNL     1       6.977  -6.186  28.373  0.00  0.00    -0.303 OA
ATOM     26  H   UNL     1       7.619  -6.932  28.347  0.00  0.00    +0.222 HD
ENDBRANCH  21  25
ENDBRANCH  20  21
ENDBRANCH   4  20
BRANCH   5  27
ATOM     27  O   UNL     1       5.092  -7.284  24.095  0.00  0.00    -0.278 OA
BRANCH  27  28
ATOM     28  P   UNL     1       3.625  -6.559  24.657  0.00  0.00    +0.473 P 
ATOM     29  O   UNL     1       2.313  -5.911  25.161  0.00  0.00    -0.228 OA
BRANCH  28  30
ATOM     30  O   UNL     1       3.925  -7.324  26.075  0.00  0.00    -0.303 OA
ATOM     31  H   UNL     1       4.848  -7.643  26.040  0.00  0.00    +0.222 HD
ENDBRANCH  28  30
BRANCH  28  32
ATOM     32  O   UNL     1       2.926  -7.880  23.986  0.00  0.00    -0.303 OA
ATOM     33  H   UNL     1       3.567  -8.610  24.113  0.00  0.00    +0.222 HD
ENDBRANCH  28  32
ENDBRANCH  27  28
ENDBRANCH   5  27
TORSDOF 15
ENDMDL
MODEL 7
REMARK VINA RESULT:      -5.3      2.339      7.030
REMARK  Name = 
REMARK  15 active torsions:
REMARK  status: ('A' for Active; 'I' for Inactive)
REMARK    1  A    between atoms: O_1  and  C_2
REMARK    2  A    between atoms: C_4  and  O_6
REMARK    3  A    between atoms: C_7  and  O_9
REMARK    4  A    between atoms: O_9  and  P_10
REMARK    5  A    between atoms: P_10  and  O_11
REMARK    6  A    between atoms: P_10  and  O_12
REMARK    7  A    between atoms: C_14  and  O_16
REMARK    8  A    between atoms: O_16  and  P_17
REMARK    9  A    between atoms: P_17  and  O_18
REMARK   10  A    between atoms: P_17  and  O_19
REMARK   11  A    between atoms: C_21  and  O_23
REMARK   12  A    between atoms: C_24  and  O_26
REMARK   13  A    between atoms: O_26  and  P_27
REMARK   14  A    between atoms: P_27  and  O_28
REMARK   15  A    between atoms: P_27  and  O_29
REMARK                            x       y       z     vdW  Elec       q    Type
REMARK                         _______ _______ _______ _____ _____    ______ ____
ROOT
ATOM      1  C   UNL     1       7.980  -4.910  25.920  0.00  0.00    +0.177 C 
ATOM      2  C   UNL     1       6.996  -4.388  26.964  0.00  0.00    +0.192 C 
ATOM      3  C   UNL     1       6.435  -3.005  26.573  0.00  0.00    +0.178 C 
ATOM      4  C   UNL     1       7.548  -2.000  26.297  0.00  0.00    +0.193 C 
ATOM      5  C   UNL     1       8.352  -2.546  25.109  0.00  0.00    +0.193 C 
ATOM      6  C   UNL     1       9.033  -3.862  25.552  0.00  0.00    +0.177 C 
ENDROOT
BRANCH   1   7
ATOM      7  O   UNL     1       8.633  -6.104  26.374  0.00  0.00    -0.386 OA
ATOM      8  H   UNL     1       9.324  -5.869  27.024  0.00  0.00    +0.210 HD
ENDBRANCH   1   7
BRANCH   3   9
ATOM      9  O   UNL     1       5.677  -3.126  25.352  0.00  0.00    -0.386 OA
ATOM     10  H   UNL     1       4.968  -2.448  25.368  0.00  0.00    +0.210 HD
ENDBRANCH   3   9
BRANCH   6  11
ATOM     11  O   UNL     1       9.842  -4.408  24.498  0.00  0.00    -0.386 OA
ATOM     12  H   UNL     1      10.728  -3.995  24.592  0.00  0.00    +0.210 HD
ENDBRANCH   6  11
BRANCH   2  13
ATOM     13  O   UNL     1       5.847  -5.208  26.999  0.00  0.00    -0.278 OA
BRANCH  13  14
ATOM     14  P   UNL     1       5.286  -6.133  28.349  0.00  0.00    +0.473 P 
ATOM     15  O   UNL     1       4.782  -6.960  29.557  0.00  0.00    -0.228 OA
BRANCH  14  16
ATOM     16  O   UNL     1       6.874  -6.350  28.670  0.00  0.00    -0.303 OA
ATOM     17  H   UNL     1       7.021  -6.775  29.534  0.00  0.00    +0.222 HD
ENDBRANCH  14  16
BRANCH  14  18
ATOM     18  O   UNL     1       5.201  -7.401  27.317  0.00  0.00    -0.303 OA
ATOM     19  H   UNL     1       5.760  -7.147  26.556  0.00  0.00    +0.222 HD
ENDBRANCH  14  18
ENDBRANCH  13  14
ENDBRANCH   2  13
BRANCH   4  20
ATOM     20  O   UNL     1       6.957  -0.732  26.022  0.00  0.00    -0.278 OA
BRANCH  20  21
ATOM     21  P   UNL     1       7.547   0.567  26.756  0.00  0.00    +0.473 P 
ATOM     22  O   UNL     1       6.562   1.599  27.183  0.00  0.00    -0.228 OA
BRANCH  21  23
ATOM     23  O   UNL     1       8.561   1.155  25.678  0.00  0.00    -0.303 OA
ATOM     24  H   UNL     1       9.452   0.811  25.831  0.00  0.00    +0.222 HD
ENDBRANCH  21  23
BRANCH  21  25
ATOM     25  O   UNL     1       8.525   0.022  27.888  0.00  0.00    -0.303 OA
ATOM     26  H   UNL     1       9.393  -0.268  27.523  0.00  0.00    +0.222 HD
ENDBRANCH  21  25
ENDBRANCH  20  21
ENDBRANCH   4  20
BRANCH   5  27
ATOM     27  O   UNL     1       9.275  -1.563  24.694  0.00  0.00    -0.278 OA
BRANCH  27  28
ATOM     28  P   UNL     1       9.253  -1.360  22.975  0.00  0.00    +0.473 P 
ATOM     29  O   UNL     1       9.234  -1.178  21.438  0.00  0.00    -0.228 OA
BRANCH  28  30
ATOM     30  O   UNL     1      10.149  -0.013  23.238  0.00  0.00    -0.303 OA
ATOM     31  H   UNL     1      10.385   0.350  22.363  0.00  0.00    +0.222 HD
ENDBRANCH  28  30
BRANCH  28  32
ATOM     32  O   UNL     1       7.838  -0.588  23.264  0.00  0.00    -0.303 OA
ATOM     33  H   UNL     1       7.231  -0.876  22.550  0.00  0.00    +0.222 HD
ENDBRANCH  28  32
ENDBRANCH  27  28
ENDBRANCH   5  27
TORSDOF 15
ENDMDL
MODEL 8
REMARK VINA RESULT:      -5.3      3.162      6.867
REMARK  Name = 
REMARK  15 active torsions:
REMARK  status: ('A' for Active; 'I' for Inactive)
REMARK    1  A    between atoms: O_1  and  C_2
REMARK    2  A    between atoms: C_4  and  O_6
REMARK    3  A    between atoms: C_7  and  O_9
REMARK    4  A    between atoms: O_9  and  P_10
REMARK    5  A    between atoms: P_10  and  O_11
REMARK    6  A    between atoms: P_10  and  O_12
REMARK    7  A    between atoms: C_14  and  O_16
REMARK    8  A    between atoms: O_16  and  P_17
REMARK    9  A    between atoms: P_17  and  O_18
REMARK   10  A    between atoms: P_17  and  O_19
REMARK   11  A    between atoms: C_21  and  O_23
REMARK   12  A    between atoms: C_24  and  O_26
REMARK   13  A    between atoms: O_26  and  P_27
REMARK   14  A    between atoms: P_27  and  O_28
REMARK   15  A    between atoms: P_27  and  O_29
REMARK                            x       y       z     vdW  Elec       q    Type
REMARK                         _______ _______ _______ _____ _____    ______ ____
ROOT
ATOM      1  C   UNL     1       8.102  -3.878  23.821  0.00  0.00    +0.177 C 
ATOM      2  C   UNL     1       6.720  -3.801  24.466  0.00  0.00    +0.192 C 
ATOM      3  C   UNL     1       6.274  -2.338  24.679  0.00  0.00    +0.178 C 
ATOM      4  C   UNL     1       7.308  -1.541  25.466  0.00  0.00    +0.193 C 
ATOM      5  C   UNL     1       8.594  -1.534  24.627  0.00  0.00    +0.193 C 
ATOM      6  C   UNL     1       9.118  -2.987  24.538  0.00  0.00    +0.177 C 
ENDROOT
BRANCH   1   7
ATOM      7  O   UNL     1       8.586  -5.228  23.794  0.00  0.00    -0.386 OA
ATOM      8  H   UNL     1       9.442  -5.276  24.261  0.00  0.00    +0.210 HD
ENDBRANCH   1   7
BRANCH   3   9
ATOM      9  O   UNL     1       6.141  -1.690  23.398  0.00  0.00    -0.386 OA
ATOM     10  H   UNL     1       6.895  -1.970  22.837  0.00  0.00    +0.210 HD
ENDBRANCH   3   9
BRANCH   6  11
ATOM     11  O   UNL     1      10.349  -3.049  23.801  0.00  0.00    -0.386 OA
ATOM     12  H   UNL     1      10.143  -2.725  22.897  0.00  0.00    +0.210 HD
ENDBRANCH   6  11
BRANCH   2  13
ATOM     13  O   UNL     1       5.744  -4.314  23.584  0.00  0.00    -0.278 OA
BRANCH  13  14
ATOM     14  P   UNL     1       6.035  -5.058  22.050  0.00  0.00    +0.473 P 
ATOM     15  O   UNL     1       6.296  -5.725  20.677  0.00  0.00    -0.228 OA
BRANCH  14  16
ATOM     16  O   UNL     1       5.371  -3.698  21.432  0.00  0.00    -0.303 OA
ATOM     17  H   UNL     1       5.129  -3.058  22.124  0.00  0.00    +0.222 HD
ENDBRANCH  14  16
BRANCH  14  18
ATOM     18  O   UNL     1       4.594  -5.809  22.254  0.00  0.00    -0.303 OA
ATOM     19  H   UNL     1       3.966  -5.310  21.694  0.00  0.00    +0.222 HD
ENDBRANCH  14  18
ENDBRANCH  13  14
ENDBRANCH   2  13
BRANCH   4  20
ATOM     20  O   UNL     1       6.794  -0.230  25.691  0.00  0.00    -0.278 OA
BRANCH  20  21
ATOM     21  P   UNL     1       6.812   0.357  27.184  0.00  0.00    +0.473 P 
ATOM     22  O   UNL     1       5.681  -0.035  28.071  0.00  0.00    -0.228 OA
BRANCH  21  23
ATOM     23  O   UNL     1       6.833   1.932  26.946  0.00  0.00    -0.303 OA
ATOM     24  H   UNL     1       7.542   2.341  27.462  0.00  0.00    +0.222 HD
ENDBRANCH  21  23
BRANCH  21  25
ATOM     25  O   UNL     1       8.273   0.074  27.747  0.00  0.00    -0.303 OA
ATOM     26  H   UNL     1       8.576   0.775  28.369  0.00  0.00    +0.222 HD
ENDBRANCH  21  25
ENDBRANCH  20  21
ENDBRANCH   4  20
BRANCH   5  27
ATOM     27  O   UNL     1       9.520  -0.652  25.222  0.00  0.00    -0.278 OA
BRANCH  27  28
ATOM     28  P   UNL     1       9.996   0.599  24.124  0.00  0.00    +0.473 P 
ATOM     29  O   UNL     1      10.421   1.718  23.143  0.00  0.00    -0.228 OA
BRANCH  28  30
ATOM     30  O   UNL     1       9.268   1.633  25.166  0.00  0.00    -0.303 OA
ATOM     31  H   UNL     1       9.919   1.846  25.862  0.00  0.00    +0.222 HD
ENDBRANCH  28  30
BRANCH  28  32
ATOM     32  O   UNL     1       8.591   0.224  23.369  0.00  0.00    -0.303 OA
ATOM     33  H   UNL     1       8.118  -0.379  23.979  0.00  0.00    +0.222 HD
ENDBRANCH  28  32
ENDBRANCH  27  28
ENDBRANCH   5  27
TORSDOF 15
ENDMDL
MODEL 9
REMARK VINA RESULT:      -5.2      2.578      7.172
REMARK  Name = 
REMARK  15 active torsions:
REMARK  status: ('A' for Active; 'I' for Inactive)
REMARK    1  A    between atoms: O_1  and  C_2
REMARK    2  A    between atoms: C_4  and  O_6
REMARK    3  A    between atoms: C_7  and  O_9
REMARK    4  A    between atoms: O_9  and  P_10
REMARK    5  A    between atoms: P_10  and  O_11
REMARK    6  A    between atoms: P_10  and  O_12
REMARK    7  A    between atoms: C_14  and  O_16
REMARK    8  A    between atoms: O_16  and  P_17
REMARK    9  A    between atoms: P_17  and  O_18
REMARK   10  A    between atoms: P_17  and  O_19
REMARK   11  A    between atoms: C_21  and  O_23
REMARK   12  A    between atoms: C_24  and  O_26
REMARK   13  A    between atoms: O_26  and  P_27
REMARK   14  A    between atoms: P_27  and  O_28
REMARK   15  A    between atoms: P_27  and  O_29
REMARK                            x       y       z     vdW  Elec       q    Type
REMARK                         _______ _______ _______ _____ _____    ______ ____
ROOT
ATOM      1  C   UNL     1       8.050  -3.861  23.562  0.00  0.00    +0.177 C 
ATOM      2  C   UNL     1       6.654  -3.713  24.161  0.00  0.00    +0.192 C 
ATOM      3  C   UNL     1       6.154  -2.256  24.082  0.00  0.00    +0.178 C 
ATOM      4  C   UNL     1       7.143  -1.282  24.713  0.00  0.00    +0.193 C 
ATOM      5  C   UNL     1       8.444  -1.389  23.906  0.00  0.00    +0.193 C 
ATOM      6  C   UNL     1       9.020  -2.810  24.107  0.00  0.00    +0.177 C 
ENDROOT
BRANCH   1   7
ATOM      7  O   UNL     1       8.582  -5.172  23.803  0.00  0.00    -0.386 OA
ATOM      8  H   UNL     1       7.886  -5.739  24.188  0.00  0.00    +0.210 HD
ENDBRANCH   1   7
BRANCH   3   9
ATOM      9  O   UNL     1       6.024  -1.872  22.698  0.00  0.00    -0.386 OA
ATOM     10  H   UNL     1       6.373  -0.960  22.603  0.00  0.00    +0.210 HD
ENDBRANCH   3   9
BRANCH   6  11
ATOM     11  O   UNL     1      10.268  -2.966  23.412  0.00  0.00    -0.386 OA
ATOM     12  H   UNL     1      10.081  -3.549  22.643  0.00  0.00    +0.210 HD
ENDBRANCH   6  11
BRANCH   2  13
ATOM     13  O   UNL     1       5.715  -4.424  23.383  0.00  0.00    -0.278 OA
BRANCH  13  14
ATOM     14  P   UNL     1       5.002  -5.951  23.773  0.00  0.00    +0.473 P 
ATOM     15  O   UNL     1       4.362  -7.317  24.123  0.00  0.00    -0.228 OA
BRANCH  14  16
ATOM     16  O   UNL     1       5.946  -6.531  22.571  0.00  0.00    -0.303 OA
ATOM     17  H   UNL     1       5.970  -7.504  22.558  0.00  0.00    +0.222 HD
ENDBRANCH  14  16
BRANCH  14  18
ATOM     18  O   UNL     1       3.782  -5.524  22.768  0.00  0.00    -0.303 OA
ATOM     19  H   UNL     1       2.982  -5.939  23.148  0.00  0.00    +0.222 HD
ENDBRANCH  14  18
ENDBRANCH  13  14
ENDBRANCH   2  13
BRANCH   4  20
ATOM     20  O   UNL     1       6.580   0.026  24.674  0.00  0.00    -0.278 OA
BRANCH  20  21
ATOM     21  P   UNL     1       6.501   0.872  26.036  0.00  0.00    +0.473 P 
ATOM     22  O   UNL     1       5.420   0.502  26.992  0.00  0.00    -0.228 OA
BRANCH  21  23
ATOM     23  O   UNL     1       6.319   2.367  25.516  0.00  0.00    -0.303 OA
ATOM     24  H   UNL     1       6.919   2.542  24.779  0.00  0.00    +0.222 HD
ENDBRANCH  21  23
BRANCH  21  25
ATOM     25  O   UNL     1       7.980   0.890  26.624  0.00  0.00    -0.303 OA
ATOM     26  H   UNL     1       8.639   0.528  25.987  0.00  0.00    +0.222 HD
ENDBRANCH  21  25
ENDBRANCH  20  21
ENDBRANCH   4  20
BRANCH   5  27
ATOM     27  O   UNL     1       9.327  -0.374  24.331  0.00  0.00    -0.278 OA
BRANCH  27  28
ATOM     28  P   UNL     1       9.765   0.671  23.022  0.00  0.00    +0.473 P 
ATOM     29  O   UNL     1      10.156   1.607  21.853  0.00  0.00    -0.228 OA
BRANCH  28  30
ATOM     30  O   UNL     1       8.918   1.829  23.814  0.00  0.00    -0.303 OA
ATOM     31  H   UNL     1       9.393   2.672  23.685  0.00  0.00    +0.222 HD
ENDBRANCH  28  30
BRANCH  28  32
ATOM     32  O   UNL     1       8.427   0.048  22.312  0.00  0.00    -0.303 OA
ATOM     33  H   UNL     1       8.393   0.448  21.418  0.00  0.00    +0.222 HD
ENDBRANCH  28  32
ENDBRANCH  27  28
ENDBRANCH   5  27
TORSDOF 15
ENDMDL
