MODEL 1
REMARK VINA RESULT:      -8.1      0.000      0.000
REMARK  Name = 
REMARK  7 active torsions:
REMARK  status: ('A' for Active; 'I' for Inactive)
REMARK    1  A    between atoms: C_1  and  N_2
REMARK    2  A    between atoms: N_7  and  C_8
REMARK    3  A    between atoms: C_16  and  N_17
REMARK    4  A    between atoms: N_17  and  C_18
REMARK    5  A    between atoms: C_19  and  C_20
REMARK    6  A    between atoms: C_23  and  C_25
REMARK    7  A    between atoms: N_27  and  C_28
REMARK                            x       y       z     vdW  Elec       q    Type
REMARK                         _______ _______ _______ _____ _____    ______ ____
ROOT
ATOM      1  C   UNL     1       3.096  -3.040  25.858  0.00  0.00    +0.154 C 
ATOM      2  N   UNL     1       4.406  -2.720  25.278  0.00  0.00    -0.296 N 
ATOM      3  C   UNL     1       5.103  -1.611  25.888  0.00  0.00    +0.254 A 
ATOM      4  O   UNL     1       4.776  -1.222  26.996  0.00  0.00    -0.268 OA
ATOM      5  C   UNL     1       6.133  -0.943  25.069  0.00  0.00    +0.094 A 
ATOM      6  C   UNL     1       6.428  -1.366  23.828  0.00  0.00    +0.049 A 
ATOM      7  C   UNL     1       5.874  -2.602  23.385  0.00  0.00    +0.059 A 
ATOM      8  C   UNL     1       6.062  -3.331  22.208  0.00  0.00    +0.146 A 
ATOM      9  N   UNL     1       5.292  -4.418  22.167  0.00  0.00    -0.172 NA
ATOM     10  N   UNL     1       4.675  -4.462  23.388  0.00  0.00    -0.213 N 
ATOM     11  C   UNL     1       4.931  -3.290  24.112  0.00  0.00    +0.149 A 
ENDROOT
BRANCH  10  12
ATOM     12  C   UNL     1       3.931  -5.623  23.722  0.00  0.00    +0.103 A 
ATOM     13  C   UNL     1       2.779  -5.937  22.978  0.00  0.00    +0.033 A 
ATOM     14  C   UNL     1       1.979  -7.019  23.353  0.00  0.00    +0.040 A 
ATOM     15  C   UNL     1       2.341  -7.796  24.447  0.00  0.00    +0.126 A 
ATOM     16  F   UNL     1       1.553  -8.809  24.828  0.00  0.00    -0.205 F 
ATOM     17  C   UNL     1       3.516  -7.546  25.141  0.00  0.00    +0.078 A 
ATOM     18  C   UNL     1       4.318  -6.475  24.754  0.00  0.00    +0.151 A 
ATOM     19  F   UNL     1       5.496  -6.320  25.372  0.00  0.00    -0.203 F 
ENDBRANCH  10  12
BRANCH   6  20
ATOM     20  N   UNL     1       7.249  -0.666  22.947  0.00  0.00    -0.314 N 
ATOM     21  H   UNL     1       7.498  -1.255  22.149  0.00  0.00    +0.152 HD
BRANCH  20  22
ATOM     22  C   UNL     1       8.408   0.072  23.346  0.00  0.00    +0.035 A 
ATOM     23  C   UNL     1       8.446   1.480  23.278  0.00  0.00    +0.036 A 
ATOM     24  C   UNL     1       9.588   2.215  23.652  0.00  0.00    +0.038 A 
ATOM     25  C   UNL     1      10.738   1.532  24.045  0.00  0.00    +0.013 A 
ATOM     26  C   UNL     1      10.744   0.138  24.046  0.00  0.00    +0.006 A 
ATOM     27  C   UNL     1       9.596  -0.604  23.703  0.00  0.00    -0.029 A 
ATOM     28  C   UNL     1       9.744  -2.102  23.719  0.00  0.00    +0.045 C 
BRANCH  24  29
ATOM     29  C   UNL     1       9.499   3.706  23.696  0.00  0.00    +0.244 C 
ATOM     30  N   UNL     1      10.673   4.409  23.479  0.00  0.00    -0.308 N 
ATOM     31  H   UNL     1      11.496   3.922  23.151  0.00  0.00    +0.149 HD
ATOM     32  O   UNL     1       8.415   4.233  23.924  0.00  0.00    -0.270 OA
BRANCH  30  33
ATOM     33  C   UNL     1      10.773   5.829  23.643  0.00  0.00    +0.073 C 
ATOM     34  C   UNL     1      11.922   6.442  24.401  0.00  0.00    +0.024 C 
ATOM     35  C   UNL     1      10.546   6.445  24.999  0.00  0.00    +0.024 C 
ENDBRANCH  30  33
ENDBRANCH  24  29
ENDBRANCH  20  22
ENDBRANCH   6  20
TORSDOF 5
ENDMDL
MODEL 2
REMARK VINA RESULT:      -7.9      2.444      2.770
REMARK  Name = 
REMARK  7 active torsions:
REMARK  status: ('A' for Active; 'I' for Inactive)
REMARK    1  A    between atoms: C_1  and  N_2
REMARK    2  A    between atoms: N_7  and  C_8
REMARK    3  A    between atoms: C_16  and  N_17
REMARK    4  A    between atoms: N_17  and  C_18
REMARK    5  A    between atoms: C_19  and  C_20
REMARK    6  A    between atoms: C_23  and  C_25
REMARK    7  A    between atoms: N_27  and  C_28
REMARK                            x       y       z     vdW  Elec       q    Type
REMARK                         _______ _______ _______ _____ _____    ______ ____
ROOT
ATOM      1  C   UNL     1       4.680  -1.835  27.047  0.00  0.00    +0.154 C 
ATOM      2  N   UNL     1       6.133  -1.827  26.837  0.00  0.00    -0.296 N 
ATOM      3  C   UNL     1       6.795  -0.573  27.113  0.00  0.00    +0.254 A 
ATOM      4  O   UNL     1       6.237   0.274  27.789  0.00  0.00    -0.268 OA
ATOM      5  C   UNL     1       8.103  -0.357  26.465  0.00  0.00    +0.094 A 
ATOM      6  C   UNL     1       8.663  -1.293  25.680  0.00  0.00    +0.049 A 
ATOM      7  C   UNL     1       8.069  -2.588  25.645  0.00  0.00    +0.059 A 
ATOM      8  C   UNL     1       8.462  -3.768  25.008  0.00  0.00    +0.146 A 
ATOM      9  N   UNL     1       7.575  -4.748  25.183  0.00  0.00    -0.172 NA
ATOM     10  N   UNL     1       6.644  -4.233  26.044  0.00  0.00    -0.213 N 
ATOM     11  C   UNL     1       6.867  -2.866  26.251  0.00  0.00    +0.149 A 
ENDROOT
BRANCH  10  12
ATOM     12  C   UNL     1       5.666  -5.112  26.577  0.00  0.00    +0.103 A 
ATOM     13  C   UNL     1       4.418  -5.220  25.936  0.00  0.00    +0.033 A 
ATOM     14  C   UNL     1       3.408  -6.004  26.500  0.00  0.00    +0.040 A 
ATOM     15  C   UNL     1       3.653  -6.694  27.682  0.00  0.00    +0.126 A 
ATOM     16  F   UNL     1       2.672  -7.413  28.241  0.00  0.00    -0.205 F 
ATOM     17  C   UNL     1       4.903  -6.660  28.282  0.00  0.00    +0.078 A 
ATOM     18  C   UNL     1       5.910  -5.889  27.708  0.00  0.00    +0.151 A 
ATOM     19  F   UNL     1       7.135  -5.957  28.246  0.00  0.00    -0.203 F 
ENDBRANCH  10  12
BRANCH   6  20
ATOM     20  N   UNL     1       9.795  -1.073  24.899  0.00  0.00    -0.314 N 
ATOM     21  H   UNL     1      10.621  -0.970  25.491  0.00  0.00    +0.152 HD
BRANCH  20  22
ATOM     22  C   UNL     1       9.866  -0.106  23.847  0.00  0.00    +0.035 A 
ATOM     23  C   UNL     1      10.186   1.243  24.105  0.00  0.00    +0.036 A 
ATOM     24  C   UNL     1      10.241   2.207  23.079  0.00  0.00    +0.038 A 
ATOM     25  C   UNL     1       9.912   1.833  21.777  0.00  0.00    +0.013 A 
ATOM     26  C   UNL     1       9.520   0.521  21.515  0.00  0.00    +0.006 A 
ATOM     27  C   UNL     1       9.492  -0.455  22.530  0.00  0.00    -0.029 A 
ATOM     28  C   UNL     1       9.025  -1.827  22.120  0.00  0.00    +0.045 C 
BRANCH  24  29
ATOM     29  C   UNL     1      10.733   3.579  23.408  0.00  0.00    +0.244 C 
ATOM     30  N   UNL     1       9.775   4.569  23.556  0.00  0.00    -0.308 N 
ATOM     31  H   UNL     1       8.797   4.318  23.594  0.00  0.00    +0.149 HD
ATOM     32  O   UNL     1      11.940   3.768  23.524  0.00  0.00    -0.270 OA
BRANCH  30  33
ATOM     33  C   UNL     1      10.104   5.954  23.718  0.00  0.00    +0.073 C 
ATOM     34  C   UNL     1      10.057   6.607  25.075  0.00  0.00    +0.024 C 
ATOM     35  C   UNL     1       9.020   6.948  24.046  0.00  0.00    +0.024 C 
ENDBRANCH  30  33
ENDBRANCH  24  29
ENDBRANCH  20  22
ENDBRANCH   6  20
TORSDOF 5
ENDMDL
MODEL 3
REMARK VINA RESULT:      -7.8      2.315      4.053
REMARK  Name = 
REMARK  7 active torsions:
REMARK  status: ('A' for Active; 'I' for Inactive)
REMARK    1  A    between atoms: C_1  and  N_2
REMARK    2  A    between atoms: N_7  and  C_8
REMARK    3  A    between atoms: C_16  and  N_17
REMARK    4  A    between atoms: N_17  and  C_18
REMARK    5  A    between atoms: C_19  and  C_20
REMARK    6  A    between atoms: C_23  and  C_25
REMARK    7  A    between atoms: N_27  and  C_28
REMARK                            x       y       z     vdW  Elec       q    Type
REMARK                         _______ _______ _______ _____ _____    ______ ____
ROOT
ATOM      1  C   UNL     1       8.569  -2.782  23.204  0.00  0.00    +0.154 C 
ATOM      2  N   UNL     1       7.802  -1.530  23.218  0.00  0.00    -0.296 N 
ATOM      3  C   UNL     1       8.398  -0.426  22.503  0.00  0.00    +0.254 A 
ATOM      4  O   UNL     1       9.275  -0.635  21.684  0.00  0.00    -0.268 OA
ATOM      5  C   UNL     1       7.958   0.929  22.890  0.00  0.00    +0.094 A 
ATOM      6  C   UNL     1       7.027   1.122  23.838  0.00  0.00    +0.049 A 
ATOM      7  C   UNL     1       6.316  -0.011  24.329  0.00  0.00    +0.059 A 
ATOM      8  C   UNL     1       5.253  -0.117  25.231  0.00  0.00    +0.146 A 
ATOM      9  N   UNL     1       4.925  -1.387  25.466  0.00  0.00    -0.172 NA
ATOM     10  N   UNL     1       5.708  -2.119  24.615  0.00  0.00    -0.213 N 
ATOM     11  C   UNL     1       6.654  -1.299  23.988  0.00  0.00    +0.149 A 
ENDROOT
BRANCH  10  12
ATOM     12  C   UNL     1       5.448  -3.509  24.493  0.00  0.00    +0.103 A 
ATOM     13  C   UNL     1       4.618  -3.963  23.452  0.00  0.00    +0.033 A 
ATOM     14  C   UNL     1       4.271  -5.315  23.374  0.00  0.00    +0.040 A 
ATOM     15  C   UNL     1       4.770  -6.208  24.315  0.00  0.00    +0.126 A 
ATOM     16  F   UNL     1       4.405  -7.494  24.262  0.00  0.00    -0.205 F 
ATOM     17  C   UNL     1       5.652  -5.787  25.300  0.00  0.00    +0.078 A 
ATOM     18  C   UNL     1       6.007  -4.443  25.364  0.00  0.00    +0.151 A 
ATOM     19  F   UNL     1       6.939  -4.083  26.255  0.00  0.00    -0.203 F 
ENDBRANCH  10  12
BRANCH   6  20
ATOM     20  N   UNL     1       6.712   2.371  24.371  0.00  0.00    -0.314 N 
ATOM     21  H   UNL     1       5.730   2.401  24.651  0.00  0.00    +0.152 HD
BRANCH  20  22
ATOM     22  C   UNL     1       7.045   3.615  23.747  0.00  0.00    +0.035 A 
ATOM     23  C   UNL     1       8.251   4.286  24.038  0.00  0.00    +0.036 A 
ATOM     24  C   UNL     1       8.580   5.520  23.444  0.00  0.00    +0.038 A 
ATOM     25  C   UNL     1       7.664   6.128  22.588  0.00  0.00    +0.013 A 
ATOM     26  C   UNL     1       6.435   5.517  22.347  0.00  0.00    +0.006 A 
ATOM     27  C   UNL     1       6.111   4.268  22.914  0.00  0.00    -0.029 A 
ATOM     28  C   UNL     1       4.741   3.729  22.596  0.00  0.00    +0.045 C 
BRANCH  24  29
ATOM     29  C   UNL     1       9.939   6.093  23.686  0.00  0.00    +0.244 C 
ATOM     30  N   UNL     1      10.981   5.570  22.938  0.00  0.00    -0.308 N 
ATOM     31  H   UNL     1      10.781   4.951  22.165  0.00  0.00    +0.149 HD
ATOM     32  O   UNL     1      10.072   6.980  24.524  0.00  0.00    -0.270 OA
BRANCH  30  33
ATOM     33  C   UNL     1      12.354   5.910  23.169  0.00  0.00    +0.073 C 
ATOM     34  C   UNL     1      13.367   5.834  22.057  0.00  0.00    +0.024 C 
ATOM     35  C   UNL     1      13.403   4.828  23.171  0.00  0.00    +0.024 C 
ENDBRANCH  30  33
ENDBRANCH  24  29
ENDBRANCH  20  22
ENDBRANCH   6  20
TORSDOF 5
ENDMDL
MODEL 4
REMARK VINA RESULT:      -7.8      3.139      5.216
REMARK  Name = 
REMARK  7 active torsions:
REMARK  status: ('A' for Active; 'I' for Inactive)
REMARK    1  A    between atoms: C_1  and  N_2
REMARK    2  A    between atoms: N_7  and  C_8
REMARK    3  A    between atoms: C_16  and  N_17
REMARK    4  A    between atoms: N_17  and  C_18
REMARK    5  A    between atoms: C_19  and  C_20
REMARK    6  A    between atoms: C_23  and  C_25
REMARK    7  A    between atoms: N_27  and  C_28
REMARK                            x       y       z     vdW  Elec       q    Type
REMARK                         _______ _______ _______ _____ _____    ______ ____
ROOT
ATOM      1  C   UNL     1       9.355  -1.167  23.524  0.00  0.00    +0.154 C 
ATOM      2  N   UNL     1       8.382  -0.224  22.961  0.00  0.00    -0.296 N 
ATOM      3  C   UNL     1       8.831   0.519  21.806  0.00  0.00    +0.254 A 
ATOM      4  O   UNL     1       9.794   0.130  21.169  0.00  0.00    -0.268 OA
ATOM      5  C   UNL     1       8.131   1.787  21.520  0.00  0.00    +0.094 A 
ATOM      6  C   UNL     1       7.107   2.212  22.279  0.00  0.00    +0.049 A 
ATOM      7  C   UNL     1       6.569   1.319  23.249  0.00  0.00    +0.059 A 
ATOM      8  C   UNL     1       5.473   1.438  24.108  0.00  0.00    +0.146 A 
ATOM      9  N   UNL     1       5.354   0.381  24.913  0.00  0.00    -0.172 NA
ATOM     10  N   UNL     1       6.319  -0.494  24.494  0.00  0.00    -0.213 N 
ATOM     11  C   UNL     1       7.154   0.111  23.546  0.00  0.00    +0.149 A 
ENDROOT
BRANCH  10  12
ATOM     12  C   UNL     1       6.317  -1.804  25.038  0.00  0.00    +0.103 A 
ATOM     13  C   UNL     1       6.816  -2.010  26.336  0.00  0.00    +0.033 A 
ATOM     14  C   UNL     1       6.914  -3.305  26.851  0.00  0.00    +0.040 A 
ATOM     15  C   UNL     1       6.492  -4.384  26.083  0.00  0.00    +0.126 A 
ATOM     16  F   UNL     1       6.622  -5.627  26.562  0.00  0.00    -0.205 F 
ATOM     17  C   UNL     1       5.925  -4.190  24.831  0.00  0.00    +0.078 A 
ATOM     18  C   UNL     1       5.816  -2.896  24.329  0.00  0.00    +0.151 A 
ATOM     19  F   UNL     1       5.170  -2.727  23.168  0.00  0.00    -0.203 F 
ENDBRANCH  10  12
BRANCH   6  20
ATOM     20  N   UNL     1       6.537   3.478  22.170  0.00  0.00    -0.314 N 
ATOM     21  H   UNL     1       6.515   3.777  21.194  0.00  0.00    +0.152 HD
BRANCH  20  22
ATOM     22  C   UNL     1       6.913   4.598  22.979  0.00  0.00    +0.035 A 
ATOM     23  C   UNL     1       8.264   4.876  23.272  0.00  0.00    +0.036 A 
ATOM     24  C   UNL     1       8.643   5.964  24.081  0.00  0.00    +0.038 A 
ATOM     25  C   UNL     1       7.655   6.758  24.661  0.00  0.00    +0.013 A 
ATOM     26  C   UNL     1       6.312   6.453  24.445  0.00  0.00    +0.006 A 
ATOM     27  C   UNL     1       5.925   5.385  23.611  0.00  0.00    -0.029 A 
ATOM     28  C   UNL     1       4.444   5.146  23.482  0.00  0.00    +0.045 C 
BRANCH  24  29
ATOM     29  C   UNL     1      10.097   6.283  24.222  0.00  0.00    +0.244 C 
ATOM     30  N   UNL     1      10.926   5.892  23.183  0.00  0.00    -0.308 N 
ATOM     31  H   UNL     1      10.523   5.558  22.318  0.00  0.00    +0.149 HD
ATOM     32  O   UNL     1      10.488   6.858  25.233  0.00  0.00    -0.270 OA
BRANCH  30  33
ATOM     33  C   UNL     1      12.354   5.990  23.246  0.00  0.00    +0.073 C 
ATOM     34  C   UNL     1      13.208   5.618  22.061  0.00  0.00    +0.024 C 
ATOM     35  C   UNL     1      13.191   4.738  23.277  0.00  0.00    +0.024 C 
ENDBRANCH  30  33
ENDBRANCH  24  29
ENDBRANCH  20  22
ENDBRANCH   6  20
TORSDOF 5
ENDMDL
MODEL 5
REMARK VINA RESULT:      -7.5      2.971      5.190
REMARK  Name = 
REMARK  7 active torsions:
REMARK  status: ('A' for Active; 'I' for Inactive)
REMARK    1  A    between atoms: C_1  and  N_2
REMARK    2  A    between atoms: N_7  and  C_8
REMARK    3  A    between atoms: C_16  and  N_17
REMARK    4  A    between atoms: N_17  and  C_18
REMARK    5  A    between atoms: C_19  and  C_20
REMARK    6  A    between atoms: C_23  and  C_25
REMARK    7  A    between atoms: N_27  and  C_28
REMARK                            x       y       z     vdW  Elec       q    Type
REMARK                         _______ _______ _______ _____ _____    ______ ____
ROOT
ATOM      1  C   UNL     1       5.984  -1.223  25.152  0.00  0.00    +0.154 C 
ATOM      2  N   UNL     1       7.218  -0.474  24.884  0.00  0.00    -0.296 N 
ATOM      3  C   UNL     1       7.523   0.580  25.824  0.00  0.00    +0.254 A 
ATOM      4  O   UNL     1       6.984   0.596  26.916  0.00  0.00    -0.268 OA
ATOM      5  C   UNL     1       8.423   1.650  25.351  0.00  0.00    +0.094 A 
ATOM      6  C   UNL     1       8.955   1.627  24.117  0.00  0.00    +0.049 A 
ATOM      7  C   UNL     1       8.802   0.446  23.336  0.00  0.00    +0.059 A 
ATOM      8  C   UNL     1       9.306   0.095  22.081  0.00  0.00    +0.146 A 
ATOM      9  N   UNL     1       8.861  -1.096  21.681  0.00  0.00    -0.172 NA
ATOM     10  N   UNL     1       8.147  -1.583  22.743  0.00  0.00    -0.213 N 
ATOM     11  C   UNL     1       8.001  -0.600  23.730  0.00  0.00    +0.149 A 
ENDROOT
BRANCH  10  12
ATOM     12  C   UNL     1       7.706  -2.930  22.692  0.00  0.00    +0.103 A 
ATOM     13  C   UNL     1       6.677  -3.282  21.800  0.00  0.00    +0.033 A 
ATOM     14  C   UNL     1       6.161  -4.581  21.805  0.00  0.00    +0.040 A 
ATOM     15  C   UNL     1       6.687  -5.527  22.678  0.00  0.00    +0.126 A 
ATOM     16  F   UNL     1       6.166  -6.759  22.709  0.00  0.00    -0.205 F 
ATOM     17  C   UNL     1       7.755  -5.215  23.507  0.00  0.00    +0.078 A 
ATOM     18  C   UNL     1       8.275  -3.923  23.487  0.00  0.00    +0.151 A 
ATOM     19  F   UNL     1       9.370  -3.678  24.218  0.00  0.00    -0.203 F 
ENDBRANCH  10  12
BRANCH   6  20
ATOM     20  N   UNL     1       9.654   2.694  23.556  0.00  0.00    -0.314 N 
ATOM     21  H   UNL     1      10.601   2.739  23.936  0.00  0.00    +0.152 HD
BRANCH  20  22
ATOM     22  C   UNL     1       9.140   4.026  23.460  0.00  0.00    +0.035 A 
ATOM     23  C   UNL     1       7.798   4.275  23.102  0.00  0.00    +0.036 A 
ATOM     24  C   UNL     1       7.288   5.583  22.986  0.00  0.00    +0.038 A 
ATOM     25  C   UNL     1       8.144   6.666  23.172  0.00  0.00    +0.013 A 
ATOM     26  C   UNL     1       9.491   6.440  23.452  0.00  0.00    +0.006 A 
ATOM     27  C   UNL     1      10.002   5.135  23.599  0.00  0.00    -0.029 A 
ATOM     28  C   UNL     1      11.479   5.028  23.875  0.00  0.00    +0.045 C 
BRANCH  24  29
ATOM     29  C   UNL     1       5.822   5.763  22.751  0.00  0.00    +0.244 C 
ATOM     30  N   UNL     1       5.018   4.649  22.931  0.00  0.00    -0.308 N 
ATOM     31  H   UNL     1       5.404   3.816  23.355  0.00  0.00    +0.149 HD
ATOM     32  O   UNL     1       5.403   6.864  22.410  0.00  0.00    -0.270 OA
BRANCH  30  33
ATOM     33  C   UNL     1       3.626   4.630  22.596  0.00  0.00    +0.073 C 
ATOM     34  C   UNL     1       2.651   3.795  23.386  0.00  0.00    +0.024 C 
ATOM     35  C   UNL     1       3.018   3.393  21.987  0.00  0.00    +0.024 C 
ENDBRANCH  30  33
ENDBRANCH  24  29
ENDBRANCH  20  22
ENDBRANCH   6  20
TORSDOF 5
ENDMDL
MODEL 6
REMARK VINA RESULT:      -7.5      2.102      2.898
REMARK  Name = 
REMARK  7 active torsions:
REMARK  status: ('A' for Active; 'I' for Inactive)
REMARK    1  A    between atoms: C_1  and  N_2
REMARK    2  A    between atoms: N_7  and  C_8
REMARK    3  A    between atoms: C_16  and  N_17
REMARK    4  A    between atoms: N_17  and  C_18
REMARK    5  A    between atoms: C_19  and  C_20
REMARK    6  A    between atoms: C_23  and  C_25
REMARK    7  A    between atoms: N_27  and  C_28
REMARK                            x       y       z     vdW  Elec       q    Type
REMARK                         _______ _______ _______ _____ _____    ______ ____
ROOT
ATOM      1  C   UNL     1       6.814  -5.638  25.632  0.00  0.00    +0.154 C 
ATOM      2  N   UNL     1       7.430  -4.453  25.024  0.00  0.00    -0.296 N 
ATOM      3  C   UNL     1       8.859  -4.527  24.824  0.00  0.00    +0.254 A 
ATOM      4  O   UNL     1       9.420  -5.609  24.840  0.00  0.00    -0.268 OA
ATOM      5  C   UNL     1       9.579  -3.245  24.702  0.00  0.00    +0.094 A 
ATOM      6  C   UNL     1       8.932  -2.068  24.745  0.00  0.00    +0.049 A 
ATOM      7  C   UNL     1       7.508  -2.077  24.705  0.00  0.00    +0.059 A 
ATOM      8  C   UNL     1       6.577  -1.036  24.648  0.00  0.00    +0.146 A 
ATOM      9  N   UNL     1       5.323  -1.486  24.693  0.00  0.00    -0.172 NA
ATOM     10  N   UNL     1       5.435  -2.850  24.663  0.00  0.00    -0.213 N 
ATOM     11  C   UNL     1       6.775  -3.238  24.787  0.00  0.00    +0.149 A 
ENDROOT
BRANCH  10  12
ATOM     12  C   UNL     1       4.251  -3.616  24.504  0.00  0.00    +0.103 A 
ATOM     13  C   UNL     1       3.203  -3.461  25.429  0.00  0.00    +0.033 A 
ATOM     14  C   UNL     1       2.071  -4.276  25.347  0.00  0.00    +0.040 A 
ATOM     15  C   UNL     1       1.977  -5.221  24.332  0.00  0.00    +0.126 A 
ATOM     16  F   UNL     1       0.910  -6.027  24.277  0.00  0.00    -0.205 F 
ATOM     17  C   UNL     1       2.967  -5.331  23.366  0.00  0.00    +0.078 A 
ATOM     18  C   UNL     1       4.086  -4.506  23.444  0.00  0.00    +0.151 A 
ATOM     19  F   UNL     1       4.974  -4.559  22.443  0.00  0.00    -0.203 F 
ENDBRANCH  10  12
BRANCH   6  20
ATOM     20  N   UNL     1       9.574  -0.834  24.822  0.00  0.00    -0.314 N 
ATOM     21  H   UNL     1       9.428  -0.414  25.742  0.00  0.00    +0.152 HD
BRANCH  20  22
ATOM     22  C   UNL     1       9.461   0.192  23.831  0.00  0.00    +0.035 A 
ATOM     23  C   UNL     1       9.086   1.509  24.171  0.00  0.00    +0.036 A 
ATOM     24  C   UNL     1       8.953   2.521  23.200  0.00  0.00    +0.038 A 
ATOM     25  C   UNL     1       9.140   2.203  21.856  0.00  0.00    +0.013 A 
ATOM     26  C   UNL     1       9.437   0.890  21.494  0.00  0.00    +0.006 A 
ATOM     27  C   UNL     1       9.601  -0.121  22.461  0.00  0.00    -0.029 A 
ATOM     28  C   UNL     1       9.895  -1.502  21.936  0.00  0.00    +0.045 C 
BRANCH  24  29
ATOM     29  C   UNL     1       8.701   3.922  23.655  0.00  0.00    +0.244 C 
ATOM     30  N   UNL     1       9.754   4.815  23.544  0.00  0.00    -0.308 N 
ATOM     31  H   UNL     1      10.583   4.550  23.031  0.00  0.00    +0.149 HD
ATOM     32  O   UNL     1       7.597   4.214  24.104  0.00  0.00    -0.270 OA
BRANCH  30  33
ATOM     33  C   UNL     1       9.709   6.144  24.078  0.00  0.00    +0.073 C 
ATOM     34  C   UNL     1      10.873   6.706  24.852  0.00  0.00    +0.024 C 
ATOM     35  C   UNL     1       9.603   6.349  25.567  0.00  0.00    +0.024 C 
ENDBRANCH  30  33
ENDBRANCH  24  29
ENDBRANCH  20  22
ENDBRANCH   6  20
TORSDOF 5
ENDMDL
MODEL 7
REMARK VINA RESULT:      -7.5      4.066      9.486
REMARK  Name = 
REMARK  7 active torsions:
REMARK  status: ('A' for Active; 'I' for Inactive)
REMARK    1  A    between atoms: C_1  and  N_2
REMARK    2  A    between atoms: N_7  and  C_8
REMARK    3  A    between atoms: C_16  and  N_17
REMARK    4  A    between atoms: N_17  and  C_18
REMARK    5  A    between atoms: C_19  and  C_20
REMARK    6  A    between atoms: C_23  and  C_25
REMARK    7  A    between atoms: N_27  and  C_28
REMARK                            x       y       z     vdW  Elec       q    Type
REMARK                         _______ _______ _______ _____ _____    ______ ____
ROOT
ATOM      1  C   UNL     1       7.725   1.607  21.939  0.00  0.00    +0.154 C 
ATOM      2  N   UNL     1       8.475   0.513  22.569  0.00  0.00    -0.296 N 
ATOM      3  C   UNL     1       9.046  -0.454  21.660  0.00  0.00    +0.254 A 
ATOM      4  O   UNL     1       9.179  -0.177  20.481  0.00  0.00    -0.268 OA
ATOM      5  C   UNL     1       9.356  -1.785  22.217  0.00  0.00    +0.094 A 
ATOM      6  C   UNL     1       9.144  -2.072  23.513  0.00  0.00    +0.049 A 
ATOM      7  C   UNL     1       8.805  -1.006  24.395  0.00  0.00    +0.059 A 
ATOM      8  C   UNL     1       8.615  -0.976  25.779  0.00  0.00    +0.146 A 
ATOM      9  N   UNL     1       8.239   0.231  26.204  0.00  0.00    -0.172 NA
ATOM     10  N   UNL     1       8.297   1.031  25.094  0.00  0.00    -0.213 N 
ATOM     11  C   UNL     1       8.532   0.265  23.946  0.00  0.00    +0.149 A 
ENDROOT
BRANCH  10  12
ATOM     12  C   UNL     1       8.136   2.430  25.268  0.00  0.00    +0.103 A 
ATOM     13  C   UNL     1       7.075   2.906  26.060  0.00  0.00    +0.033 A 
ATOM     14  C   UNL     1       6.842   4.280  26.163  0.00  0.00    +0.040 A 
ATOM     15  C   UNL     1       7.678   5.171  25.499  0.00  0.00    +0.126 A 
ATOM     16  F   UNL     1       7.430   6.484  25.567  0.00  0.00    -0.205 F 
ATOM     17  C   UNL     1       8.775   4.719  24.780  0.00  0.00    +0.078 A 
ATOM     18  C   UNL     1       9.011   3.350  24.693  0.00  0.00    +0.151 A 
ATOM     19  F   UNL     1      10.133   2.946  24.083  0.00  0.00    -0.203 F 
ENDBRANCH  10  12
BRANCH   6  20
ATOM     20  N   UNL     1       9.240  -3.355  24.047  0.00  0.00    -0.314 N 
ATOM     21  H   UNL     1       9.819  -3.948  23.449  0.00  0.00    +0.152 HD
BRANCH  20  22
ATOM     22  C   UNL     1       8.118  -4.122  24.496  0.00  0.00    +0.035 A 
ATOM     23  C   UNL     1       6.915  -4.168  23.762  0.00  0.00    +0.036 A 
ATOM     24  C   UNL     1       5.799  -4.905  24.205  0.00  0.00    +0.038 A 
ATOM     25  C   UNL     1       5.860  -5.560  25.434  0.00  0.00    +0.013 A 
ATOM     26  C   UNL     1       7.014  -5.463  26.209  0.00  0.00    +0.006 A 
ATOM     27  C   UNL     1       8.146  -4.754  25.759  0.00  0.00    -0.029 A 
ATOM     28  C   UNL     1       9.318  -4.704  26.703  0.00  0.00    +0.045 C 
BRANCH  24  29
ATOM     29  C   UNL     1       4.615  -5.028  23.301  0.00  0.00    +0.244 C 
ATOM     30  N   UNL     1       3.370  -5.089  23.904  0.00  0.00    -0.308 N 
ATOM     31  H   UNL     1       3.282  -4.895  24.892  0.00  0.00    +0.149 HD
ATOM     32  O   UNL     1       4.794  -5.077  22.088  0.00  0.00    -0.270 OA
BRANCH  30  33
ATOM     33  C   UNL     1       2.164  -5.361  23.179  0.00  0.00    +0.073 C 
ATOM     34  C   UNL     1       0.960  -5.946  23.872  0.00  0.00    +0.024 C 
ATOM     35  C   UNL     1       1.754  -6.787  22.916  0.00  0.00    +0.024 C 
ENDBRANCH  30  33
ENDBRANCH  24  29
ENDBRANCH  20  22
ENDBRANCH   6  20
TORSDOF 5
ENDMDL
MODEL 8
REMARK VINA RESULT:      -7.5      4.026      6.282
REMARK  Name = 
REMARK  7 active torsions:
REMARK  status: ('A' for Active; 'I' for Inactive)
REMARK    1  A    between atoms: C_1  and  N_2
REMARK    2  A    between atoms: N_7  and  C_8
REMARK    3  A    between atoms: C_16  and  N_17
REMARK    4  A    between atoms: N_17  and  C_18
REMARK    5  A    between atoms: C_19  and  C_20
REMARK    6  A    between atoms: C_23  and  C_25
REMARK    7  A    between atoms: N_27  and  C_28
REMARK                            x       y       z     vdW  Elec       q    Type
REMARK                         _______ _______ _______ _____ _____    ______ ____
ROOT
ATOM      1  C   UNL     1       9.838  -1.330  22.437  0.00  0.00    +0.154 C 
ATOM      2  N   UNL     1       8.815  -0.309  22.692  0.00  0.00    -0.296 N 
ATOM      3  C   UNL     1       9.192   1.046  22.364  0.00  0.00    +0.254 A 
ATOM      4  O   UNL     1      10.137   1.253  21.623  0.00  0.00    -0.268 OA
ATOM      5  C   UNL     1       8.445   2.125  23.040  0.00  0.00    +0.094 A 
ATOM      6  C   UNL     1       7.444   1.857  23.895  0.00  0.00    +0.049 A 
ATOM      7  C   UNL     1       6.973   0.516  23.988  0.00  0.00    +0.059 A 
ATOM      8  C   UNL     1       5.913  -0.045  24.705  0.00  0.00    +0.146 A 
ATOM      9  N   UNL     1       5.859  -1.369  24.559  0.00  0.00    -0.172 NA
ATOM     10  N   UNL     1       6.829  -1.664  23.640  0.00  0.00    -0.213 N 
ATOM     11  C   UNL     1       7.605  -0.532  23.361  0.00  0.00    +0.149 A 
ENDROOT
BRANCH  10  12
ATOM     12  C   UNL     1       6.888  -2.987  23.129  0.00  0.00    +0.103 A 
ATOM     13  C   UNL     1       6.142  -3.314  21.983  0.00  0.00    +0.033 A 
ATOM     14  C   UNL     1       6.109  -4.633  21.522  0.00  0.00    +0.040 A 
ATOM     15  C   UNL     1       6.836  -5.612  22.189  0.00  0.00    +0.126 A 
ATOM     16  F   UNL     1       6.773  -6.881  21.771  0.00  0.00    -0.205 F 
ATOM     17  C   UNL     1       7.639  -5.289  23.274  0.00  0.00    +0.078 A 
ATOM     18  C   UNL     1       7.680  -3.971  23.719  0.00  0.00    +0.151 A 
ATOM     19  F   UNL     1       8.542  -3.667  24.698  0.00  0.00    -0.203 F 
ENDBRANCH  10  12
BRANCH   6  20
ATOM     20  N   UNL     1       6.834   2.819  24.698  0.00  0.00    -0.314 N 
ATOM     21  H   UNL     1       6.181   2.379  25.348  0.00  0.00    +0.152 HD
BRANCH  20  22
ATOM     22  C   UNL     1       6.235   4.018  24.197  0.00  0.00    +0.035 A 
ATOM     23  C   UNL     1       5.045   3.988  23.440  0.00  0.00    +0.036 A 
ATOM     24  C   UNL     1       4.458   5.161  22.926  0.00  0.00    +0.038 A 
ATOM     25  C   UNL     1       5.099   6.383  23.118  0.00  0.00    +0.013 A 
ATOM     26  C   UNL     1       6.315   6.424  23.798  0.00  0.00    +0.006 A 
ATOM     27  C   UNL     1       6.893   5.259  24.341  0.00  0.00    -0.029 A 
ATOM     28  C   UNL     1       8.221   5.436  25.029  0.00  0.00    +0.045 C 
BRANCH  24  29
ATOM     29  C   UNL     1       3.120   5.063  22.265  0.00  0.00    +0.244 C 
ATOM     30  N   UNL     1       2.999   4.151  21.230  0.00  0.00    -0.308 N 
ATOM     31  H   UNL     1       3.740   3.486  21.059  0.00  0.00    +0.149 HD
ATOM     32  O   UNL     1       2.208   5.786  22.654  0.00  0.00    -0.270 OA
BRANCH  30  33
ATOM     33  C   UNL     1       1.830   4.057  20.407  0.00  0.00    +0.073 C 
ATOM     34  C   UNL     1       1.401   2.737  19.819  0.00  0.00    +0.024 C 
ATOM     35  C   UNL     1       1.973   3.801  18.929  0.00  0.00    +0.024 C 
ENDBRANCH  30  33
ENDBRANCH  24  29
ENDBRANCH  20  22
ENDBRANCH   6  20
TORSDOF 5
ENDMDL
MODEL 9
REMARK VINA RESULT:      -7.3      3.489      5.867
REMARK  Name = 
REMARK  7 active torsions:
REMARK  status: ('A' for Active; 'I' for Inactive)
REMARK    1  A    between atoms: C_1  and  N_2
REMARK    2  A    between atoms: N_7  and  C_8
REMARK    3  A    between atoms: C_16  and  N_17
REMARK    4  A    between atoms: N_17  and  C_18
REMARK    5  A    between atoms: C_19  and  C_20
REMARK    6  A    between atoms: C_23  and  C_25
REMARK    7  A    between atoms: N_27  and  C_28
REMARK                            x       y       z     vdW  Elec       q    Type
REMARK                         _______ _______ _______ _____ _____    ______ ____
ROOT
ATOM      1  C   UNL     1       9.603  -2.269  23.303  0.00  0.00    +0.154 C 
ATOM      2  N   UNL     1       9.005  -0.946  23.523  0.00  0.00    -0.296 N 
ATOM      3  C   UNL     1       9.385   0.074  22.574  0.00  0.00    +0.254 A 
ATOM      4  O   UNL     1       9.874  -0.241  21.504  0.00  0.00    -0.268 OA
ATOM      5  C   UNL     1       9.236   1.476  23.013  0.00  0.00    +0.094 A 
ATOM      6  C   UNL     1       8.744   1.785  24.225  0.00  0.00    +0.049 A 
ATOM      7  C   UNL     1       8.173   0.742  25.009  0.00  0.00    +0.059 A 
ATOM      8  C   UNL     1       7.517   0.765  26.242  0.00  0.00    +0.146 A 
ATOM      9  N   UNL     1       7.192  -0.459  26.657  0.00  0.00    -0.172 NA
ATOM     10  N   UNL     1       7.538  -1.287  25.624  0.00  0.00    -0.213 N 
ATOM     11  C   UNL     1       8.250  -0.582  24.645  0.00  0.00    +0.149 A 
ENDROOT
BRANCH  10  12
ATOM     12  C   UNL     1       7.135  -2.645  25.689  0.00  0.00    +0.103 A 
ATOM     13  C   UNL     1       5.955  -3.044  25.034  0.00  0.00    +0.033 A 
ATOM     14  C   UNL     1       5.489  -4.354  25.169  0.00  0.00    +0.040 A 
ATOM     15  C   UNL     1       6.210  -5.266  25.932  0.00  0.00    +0.126 A 
ATOM     16  F   UNL     1       5.742  -6.509  26.092  0.00  0.00    -0.205 F 
ATOM     17  C   UNL     1       7.416  -4.908  26.518  0.00  0.00    +0.078 A 
ATOM     18  C   UNL     1       7.883  -3.605  26.368  0.00  0.00    +0.151 A 
ATOM     19  F   UNL     1       9.098  -3.316  26.854  0.00  0.00    -0.203 F 
ENDBRANCH  10  12
BRANCH   6  20
ATOM     20  N   UNL     1       8.757   3.071  24.760  0.00  0.00    -0.314 N 
ATOM     21  H   UNL     1       8.424   3.058  25.725  0.00  0.00    +0.152 HD
BRANCH  20  22
ATOM     22  C   UNL     1       8.205   4.217  24.104  0.00  0.00    +0.035 A 
ATOM     23  C   UNL     1       6.840   4.280  23.752  0.00  0.00    +0.036 A 
ATOM     24  C   UNL     1       6.291   5.395  23.090  0.00  0.00    +0.038 A 
ATOM     25  C   UNL     1       7.129   6.445  22.717  0.00  0.00    +0.013 A 
ATOM     26  C   UNL     1       8.493   6.367  22.988  0.00  0.00    +0.006 A 
ATOM     27  C   UNL     1       9.045   5.269  23.678  0.00  0.00    -0.029 A 
ATOM     28  C   UNL     1      10.537   5.296  23.885  0.00  0.00    +0.045 C 
BRANCH  24  29
ATOM     29  C   UNL     1       4.811   5.452  22.886  0.00  0.00    +0.244 C 
ATOM     30  N   UNL     1       4.225   4.370  22.251  0.00  0.00    -0.308 N 
ATOM     31  H   UNL     1       4.765   3.531  22.090  0.00  0.00    +0.149 HD
ATOM     32  O   UNL     1       4.193   6.438  23.276  0.00  0.00    -0.270 OA
BRANCH  30  33
ATOM     33  C   UNL     1       2.849   4.352  21.851  0.00  0.00    +0.073 C 
ATOM     34  C   UNL     1       1.832   3.543  22.614  0.00  0.00    +0.024 C 
ATOM     35  C   UNL     1       2.261   3.104  21.245  0.00  0.00    +0.024 C 
ENDBRANCH  30  33
ENDBRANCH  24  29
ENDBRANCH  20  22
ENDBRANCH   6  20
TORSDOF 5
ENDMDL
