MODEL 1
REMARK VINA RESULT:      -6.4      0.000      0.000
REMARK  Name = 
REMARK  7 active torsions:
REMARK  status: ('A' for Active; 'I' for Inactive)
REMARK    1  A    between atoms: C_5  and  C_8
REMARK    2  A    between atoms: C_8  and  N_9
REMARK    3  A    between atoms: C_8  and  C_29
REMARK    4  A    between atoms: N_18  and  C_19
REMARK    5  A    between atoms: C_19  and  C_20
REMARK    6  A    between atoms: N_24  and  C_25
REMARK    7  A    between atoms: C_25  and  C_26
REMARK                            x       y       z     vdW  Elec       q    Type
REMARK                         _______ _______ _______ _____ _____    ______ ____
ROOT
ATOM      1  N   UNL     1       5.732  -1.321  26.767  0.00  0.00    -0.289 NA
ATOM      2  C   UNL     1       4.898  -0.099  26.534  0.00  0.00    +0.104 C 
ATOM      3  C   UNL     1       5.317   0.852  25.371  0.00  0.00    +0.123 C 
ATOM      4  N   UNL     1       6.752   1.155  25.477  0.00  0.00    -0.297 N 
ATOM      5  C   UNL     1       7.163   2.117  24.552  0.00  0.00    +0.224 A 
ATOM      6  N   UNL     1       6.777   3.378  24.724  0.00  0.00    -0.181 NA
ATOM      7  C   UNL     1       7.221   4.258  23.832  0.00  0.00    +0.221 A 
ATOM      8  N   UNL     1       6.841   5.588  23.907  0.00  0.00    -0.310 N 
ATOM      9  H   UNL     1       7.304   6.128  23.188  0.00  0.00    +0.149 HD
ATOM     10  N   UNL     1       7.988   3.937  22.794  0.00  0.00    -0.181 NA
ATOM     11  C   UNL     1       8.328   2.661  22.700  0.00  0.00    +0.221 A 
ATOM     12  N   UNL     1       9.078   2.274  21.598  0.00  0.00    -0.310 N 
ATOM     13  H   UNL     1       9.463   3.101  21.160  0.00  0.00    +0.149 HD
ATOM     14  N   UNL     1       7.954   1.733  23.564  0.00  0.00    -0.181 NA
ATOM     15  C   UNL     1       7.563  -0.068  25.483  0.00  0.00    +0.123 C 
ATOM     16  C   UNL     1       7.159  -0.905  26.715  0.00  0.00    +0.104 C 
ENDROOT
BRANCH   1  17
ATOM     17  C   UNL     1       5.400  -2.447  25.846  0.00  0.00    +0.117 C 
BRANCH  17  22
ATOM     18  F   UNL     1       0.664  -5.215  27.321  0.00  0.00    -0.205 F 
ATOM     19  C   UNL     1       1.770  -4.542  26.978  0.00  0.00    +0.123 A 
ATOM     20  C   UNL     1       2.607  -4.052  27.971  0.00  0.00    +0.038 A 
ATOM     21  C   UNL     1       3.768  -3.362  27.614  0.00  0.00    +0.008 A 
ATOM     22  C   UNL     1       4.108  -3.172  26.260  0.00  0.00    -0.026 A 
ATOM     23  C   UNL     1       3.230  -3.662  25.274  0.00  0.00    +0.008 A 
ATOM     24  C   UNL     1       2.061  -4.342  25.635  0.00  0.00    +0.038 A 
ENDBRANCH  17  22
BRANCH  17  25
ATOM     25  C   UNL     1       6.541  -3.479  25.667  0.00  0.00    -0.026 A 
ATOM     26  C   UNL     1       7.029  -4.261  26.736  0.00  0.00    +0.008 A 
ATOM     27  C   UNL     1       8.112  -5.130  26.558  0.00  0.00    +0.038 A 
ATOM     28  C   UNL     1       8.699  -5.245  25.302  0.00  0.00    +0.123 A 
ATOM     29  F   UNL     1       9.753  -6.054  25.137  0.00  0.00    -0.205 F 
ATOM     30  C   UNL     1       8.211  -4.525  24.220  0.00  0.00    +0.038 A 
ATOM     31  C   UNL     1       7.132  -3.652  24.399  0.00  0.00    +0.008 A 
ENDBRANCH  17  25
ENDBRANCH   1  17
BRANCH   8  32
ATOM     32  C   UNL     1       6.707   6.212  25.205  0.00  0.00    +0.131 C 
BRANCH  32  33
ATOM     33  C   UNL     1       8.082   6.568  25.712  0.00  0.00    -0.016 C 
ATOM     34  C   UNL     1       9.062   7.107  24.973  0.00  0.00    +0.005 C 
ENDBRANCH  32  33
ENDBRANCH   8  32
BRANCH  12  35
ATOM     35  C   UNL     1      10.022   1.203  21.833  0.00  0.00    +0.131 C 
BRANCH  35  36
ATOM     36  C   UNL     1       9.377  -0.062  21.356  0.00  0.00    -0.016 C 
ATOM     37  C   UNL     1       9.462  -1.253  21.962  0.00  0.00    +0.005 C 
ENDBRANCH  35  36
ENDBRANCH  12  35
TORSDOF 7
ENDMDL
MODEL 2
REMARK VINA RESULT:      -6.3      3.278      8.284
REMARK  Name = 
REMARK  7 active torsions:
REMARK  status: ('A' for Active; 'I' for Inactive)
REMARK    1  A    between atoms: C_5  and  C_8
REMARK    2  A    between atoms: C_8  and  N_9
REMARK    3  A    between atoms: C_8  and  C_29
REMARK    4  A    between atoms: N_18  and  C_19
REMARK    5  A    between atoms: C_19  and  C_20
REMARK    6  A    between atoms: N_24  and  C_25
REMARK    7  A    between atoms: C_25  and  C_26
REMARK                            x       y       z     vdW  Elec       q    Type
REMARK                         _______ _______ _______ _____ _____    ______ ____
ROOT
ATOM      1  N   UNL     1       6.798   1.808  25.563  0.00  0.00    -0.289 NA
ATOM      2  C   UNL     1       6.960   1.136  26.892  0.00  0.00    +0.104 C 
ATOM      3  C   UNL     1       7.359  -0.371  26.897  0.00  0.00    +0.123 C 
ATOM      4  N   UNL     1       6.476  -1.117  25.989  0.00  0.00    -0.297 N 
ATOM      5  C   UNL     1       6.684  -2.496  26.056  0.00  0.00    +0.224 A 
ATOM      6  N   UNL     1       6.292  -3.151  27.144  0.00  0.00    -0.181 NA
ATOM      7  C   UNL     1       6.486  -4.466  27.143  0.00  0.00    +0.221 A 
ATOM      8  N   UNL     1       6.144  -5.229  28.248  0.00  0.00    -0.310 N 
ATOM      9  H   UNL     1       6.310  -6.209  28.065  0.00  0.00    +0.149 HD
ATOM     10  N   UNL     1       7.062  -5.129  26.144  0.00  0.00    -0.181 NA
ATOM     11  C   UNL     1       7.419  -4.399  25.098  0.00  0.00    +0.221 A 
ATOM     12  N   UNL     1       8.077  -5.044  24.059  0.00  0.00    -0.310 N 
ATOM     13  H   UNL     1       7.954  -6.042  24.165  0.00  0.00    +0.149 HD
ATOM     14  N   UNL     1       7.229  -3.095  25.010  0.00  0.00    -0.181 NA
ATOM     15  C   UNL     1       6.506  -0.562  24.630  0.00  0.00    +0.123 C 
ATOM     16  C   UNL     1       6.005   0.896  24.696  0.00  0.00    +0.104 C 
ENDROOT
BRANCH   1  17
ATOM     17  C   UNL     1       8.090   2.240  24.958  0.00  0.00    +0.117 C 
BRANCH  17  22
ATOM     18  F   UNL     1       7.667   7.075  22.005  0.00  0.00    -0.205 F 
ATOM     19  C   UNL     1       7.753   5.944  22.718  0.00  0.00    +0.123 A 
ATOM     20  C   UNL     1       6.697   5.043  22.700  0.00  0.00    +0.038 A 
ATOM     21  C   UNL     1       6.792   3.857  23.432  0.00  0.00    +0.008 A 
ATOM     22  C   UNL     1       7.951   3.557  24.174  0.00  0.00    -0.026 A 
ATOM     23  C   UNL     1       8.999   4.498  24.191  0.00  0.00    +0.008 A 
ATOM     24  C   UNL     1       8.895   5.692  23.466  0.00  0.00    +0.038 A 
ENDBRANCH  17  22
BRANCH  17  25
ATOM     25  C   UNL     1       8.761   1.170  24.061  0.00  0.00    -0.026 A 
ATOM     26  C   UNL     1       8.539   1.100  22.669  0.00  0.00    +0.008 A 
ATOM     27  C   UNL     1       9.102   0.075  21.900  0.00  0.00    +0.038 A 
ATOM     28  C   UNL     1       9.915  -0.874  22.511  0.00  0.00    +0.123 A 
ATOM     29  F   UNL     1      10.429  -1.872  21.781  0.00  0.00    -0.205 F 
ATOM     30  C   UNL     1      10.190  -0.805  23.870  0.00  0.00    +0.038 A 
ATOM     31  C   UNL     1       9.623   0.217  24.641  0.00  0.00    +0.008 A 
ENDBRANCH  17  25
ENDBRANCH   1  17
BRANCH   8  32
ATOM     32  C   UNL     1       4.949  -4.898  28.993  0.00  0.00    +0.131 C 
BRANCH  32  33
ATOM     33  C   UNL     1       3.767  -5.545  28.316  0.00  0.00    -0.016 C 
ATOM     34  C   UNL     1       3.259  -6.745  28.630  0.00  0.00    +0.005 C 
ENDBRANCH  32  33
ENDBRANCH   8  32
BRANCH  12  35
ATOM     35  C   UNL     1       7.806  -4.525  22.735  0.00  0.00    +0.131 C 
BRANCH  35  36
ATOM     36  C   UNL     1       7.258  -5.659  21.924  0.00  0.00    -0.016 C 
ATOM     37  C   UNL     1       6.186  -5.593  21.125  0.00  0.00    +0.005 C 
ENDBRANCH  35  36
ENDBRANCH  12  35
TORSDOF 7
ENDMDL
MODEL 3
REMARK VINA RESULT:      -6.0      3.159      4.969
REMARK  Name = 
REMARK  7 active torsions:
REMARK  status: ('A' for Active; 'I' for Inactive)
REMARK    1  A    between atoms: C_5  and  C_8
REMARK    2  A    between atoms: C_8  and  N_9
REMARK    3  A    between atoms: C_8  and  C_29
REMARK    4  A    between atoms: N_18  and  C_19
REMARK    5  A    between atoms: C_19  and  C_20
REMARK    6  A    between atoms: N_24  and  C_25
REMARK    7  A    between atoms: C_25  and  C_26
REMARK                            x       y       z     vdW  Elec       q    Type
REMARK                         _______ _______ _______ _____ _____    ______ ____
ROOT
ATOM      1  N   UNL     1       8.433  -0.338  22.620  0.00  0.00    -0.289 NA
ATOM      2  C   UNL     1       9.333   0.181  23.700  0.00  0.00    +0.104 C 
ATOM      3  C   UNL     1       9.125   1.654  24.168  0.00  0.00    +0.123 C 
ATOM      4  N   UNL     1       9.074   2.541  22.997  0.00  0.00    -0.297 N 
ATOM      5  C   UNL     1       9.036   3.891  23.351  0.00  0.00    +0.224 A 
ATOM      6  N   UNL     1      10.129   4.452  23.859  0.00  0.00    -0.181 NA
ATOM      7  C   UNL     1      10.047   5.746  24.150  0.00  0.00    +0.221 A 
ATOM      8  N   UNL     1      11.123   6.408  24.719  0.00  0.00    -0.310 N 
ATOM      9  H   UNL     1      10.912   7.391  24.830  0.00  0.00    +0.149 HD
ATOM     10  N   UNL     1       8.946   6.474  23.987  0.00  0.00    -0.181 NA
ATOM     11  C   UNL     1       7.904   5.837  23.472  0.00  0.00    +0.221 A 
ATOM     12  N   UNL     1       6.718   6.546  23.340  0.00  0.00    -0.310 N 
ATOM     13  H   UNL     1       6.917   7.534  23.433  0.00  0.00    +0.149 HD
ATOM     14  N   UNL     1       7.918   4.562  23.126  0.00  0.00    -0.181 NA
ATOM     15  C   UNL     1       8.027   2.129  22.053  0.00  0.00    +0.123 C 
ATOM     16  C   UNL     1       8.358   0.704  21.561  0.00  0.00    +0.104 C 
ENDROOT
BRANCH   1  17
ATOM     17  C   UNL     1       7.101  -0.780  23.124  0.00  0.00    +0.117 C 
BRANCH  17  22
ATOM     18  F   UNL     1       6.265   0.434  28.610  0.00  0.00    -0.205 F 
ATOM     19  C   UNL     1       6.483   0.159  27.317  0.00  0.00    +0.123 A 
ATOM     20  C   UNL     1       7.336  -0.881  26.974  0.00  0.00    +0.038 A 
ATOM     21  C   UNL     1       7.552  -1.179  25.626  0.00  0.00    +0.008 A 
ATOM     22  C   UNL     1       6.904  -0.447  24.612  0.00  0.00    -0.026 A 
ATOM     23  C   UNL     1       6.060   0.616  24.988  0.00  0.00    +0.008 A 
ATOM     24  C   UNL     1       5.855   0.920  26.340  0.00  0.00    +0.038 A 
ENDBRANCH  17  22
BRANCH  17  25
ATOM     25  C   UNL     1       6.797  -2.280  22.883  0.00  0.00    -0.026 A 
ATOM     26  C   UNL     1       7.799  -3.208  22.525  0.00  0.00    +0.008 A 
ATOM     27  C   UNL     1       7.479  -4.540  22.241  0.00  0.00    +0.038 A 
ATOM     28  C   UNL     1       6.159  -4.965  22.339  0.00  0.00    +0.123 A 
ATOM     29  F   UNL     1       5.848  -6.232  22.039  0.00  0.00    -0.205 F 
ATOM     30  C   UNL     1       5.158  -4.087  22.735  0.00  0.00    +0.038 A 
ATOM     31  C   UNL     1       5.476  -2.754  23.013  0.00  0.00    +0.008 A 
ENDBRANCH  17  25
ENDBRANCH   1  17
BRANCH   8  32
ATOM     32  C   UNL     1      12.464   6.073  24.294  0.00  0.00    +0.131 C 
BRANCH  32  33
ATOM     33  C   UNL     1      12.475   5.953  22.790  0.00  0.00    -0.016 C 
ATOM     34  C   UNL     1      13.553   5.665  22.047  0.00  0.00    +0.005 C 
ENDBRANCH  32  33
ENDBRANCH   8  32
BRANCH  12  35
ATOM     35  C   UNL     1       5.901   6.184  22.202  0.00  0.00    +0.131 C 
BRANCH  35  36
ATOM     36  C   UNL     1       4.562   5.777  22.736  0.00  0.00    -0.016 C 
ATOM     37  C   UNL     1       4.170   4.518  22.969  0.00  0.00    +0.005 C 
ENDBRANCH  35  36
ENDBRANCH  12  35
TORSDOF 7
ENDMDL
MODEL 4
REMARK VINA RESULT:      -6.0      4.161      8.946
REMARK  Name = 
REMARK  7 active torsions:
REMARK  status: ('A' for Active; 'I' for Inactive)
REMARK    1  A    between atoms: C_5  and  C_8
REMARK    2  A    between atoms: C_8  and  N_9
REMARK    3  A    between atoms: C_8  and  C_29
REMARK    4  A    between atoms: N_18  and  C_19
REMARK    5  A    between atoms: C_19  and  C_20
REMARK    6  A    between atoms: N_24  and  C_25
REMARK    7  A    between atoms: C_25  and  C_26
REMARK                            x       y       z     vdW  Elec       q    Type
REMARK                         _______ _______ _______ _____ _____    ______ ____
ROOT
ATOM      1  N   UNL     1       7.686  -3.128  23.042  0.00  0.00    -0.289 NA
ATOM      2  C   UNL     1       6.244  -2.947  22.676  0.00  0.00    +0.104 C 
ATOM      3  C   UNL     1       5.174  -3.557  23.631  0.00  0.00    +0.123 C 
ATOM      4  N   UNL     1       5.513  -4.957  23.922  0.00  0.00    -0.297 N 
ATOM      5  C   UNL     1       4.518  -5.607  24.654  0.00  0.00    +0.224 A 
ATOM      6  N   UNL     1       3.369  -5.901  24.054  0.00  0.00    -0.181 NA
ATOM      7  C   UNL     1       2.468  -6.546  24.788  0.00  0.00    +0.221 A 
ATOM      8  N   UNL     1       1.226  -6.862  24.261  0.00  0.00    -0.310 N 
ATOM      9  H   UNL     1       0.684  -7.391  24.929  0.00  0.00    +0.149 HD
ATOM     10  N   UNL     1       2.650  -6.875  26.064  0.00  0.00    -0.181 NA
ATOM     11  C   UNL     1       3.824  -6.547  26.582  0.00  0.00    +0.221 A 
ATOM     12  N   UNL     1       4.032  -6.820  27.927  0.00  0.00    -0.310 N 
ATOM     13  H   UNL     1       3.321  -7.467  28.242  0.00  0.00    +0.149 HD
ATOM     14  N   UNL     1       4.782  -5.936  25.908  0.00  0.00    -0.181 NA
ATOM     15  C   UNL     1       6.863  -5.080  24.487  0.00  0.00    +0.123 C 
ATOM     16  C   UNL     1       7.869  -4.549  23.445  0.00  0.00    +0.104 C 
ENDROOT
BRANCH   1  17
ATOM     17  C   UNL     1       8.164  -2.148  24.059  0.00  0.00    +0.117 C 
BRANCH  17  22
ATOM     18  F   UNL     1       3.887  -0.323  27.321  0.00  0.00    -0.205 F 
ATOM     19  C   UNL     1       4.910  -0.743  26.566  0.00  0.00    +0.123 A 
ATOM     20  C   UNL     1       5.667  -1.829  26.983  0.00  0.00    +0.038 A 
ATOM     21  C   UNL     1       6.726  -2.276  26.190  0.00  0.00    +0.008 A 
ATOM     22  C   UNL     1       7.025  -1.649  24.964  0.00  0.00    -0.026 A 
ATOM     23  C   UNL     1       6.255  -0.537  24.575  0.00  0.00    +0.008 A 
ATOM     24  C   UNL     1       5.201  -0.083  25.379  0.00  0.00    +0.038 A 
ENDBRANCH  17  22
BRANCH  17  25
ATOM     25  C   UNL     1       8.924  -0.936  23.464  0.00  0.00    -0.026 A 
ATOM     26  C   UNL     1       9.708  -0.071  24.257  0.00  0.00    +0.008 A 
ATOM     27  C   UNL     1      10.320   1.059  23.701  0.00  0.00    +0.038 A 
ATOM     28  C   UNL     1      10.178   1.318  22.342  0.00  0.00    +0.123 A 
ATOM     29  F   UNL     1      10.739   2.414  21.816  0.00  0.00    -0.205 F 
ATOM     30  C   UNL     1       9.452   0.459  21.527  0.00  0.00    +0.038 A 
ATOM     31  C   UNL     1       8.835  -0.667  22.084  0.00  0.00    +0.008 A 
ENDBRANCH  17  25
ENDBRANCH   1  17
BRANCH   8  32
ATOM     32  C   UNL     1       1.130  -7.267  22.876  0.00  0.00    +0.131 C 
BRANCH  32  33
ATOM     33  C   UNL     1       0.687  -8.708  22.827  0.00  0.00    -0.016 C 
ATOM     34  C   UNL     1       0.443  -9.478  23.898  0.00  0.00    +0.005 C 
ENDBRANCH  32  33
ENDBRANCH   8  32
BRANCH  12  35
ATOM     35  C   UNL     1       5.390  -7.168  28.289  0.00  0.00    +0.131 C 
BRANCH  35  36
ATOM     36  C   UNL     1       5.830  -6.187  29.332  0.00  0.00    -0.016 C 
ATOM     37  C   UNL     1       5.159  -5.087  29.694  0.00  0.00    +0.005 C 
ENDBRANCH  35  36
ENDBRANCH  12  35
TORSDOF 7
ENDMDL
MODEL 5
REMARK VINA RESULT:      -6.0      3.842      8.744
REMARK  Name = 
REMARK  7 active torsions:
REMARK  status: ('A' for Active; 'I' for Inactive)
REMARK    1  A    between atoms: C_5  and  C_8
REMARK    2  A    between atoms: C_8  and  N_9
REMARK    3  A    between atoms: C_8  and  C_29
REMARK    4  A    between atoms: N_18  and  C_19
REMARK    5  A    between atoms: C_19  and  C_20
REMARK    6  A    between atoms: N_24  and  C_25
REMARK    7  A    between atoms: C_25  and  C_26
REMARK                            x       y       z     vdW  Elec       q    Type
REMARK                         _______ _______ _______ _____ _____    ______ ____
ROOT
ATOM      1  N   UNL     1       9.712   1.202  23.552  0.00  0.00    -0.289 NA
ATOM      2  C   UNL     1       8.935   0.717  22.366  0.00  0.00    +0.104 C 
ATOM      3  C   UNL     1       7.626  -0.085  22.639  0.00  0.00    +0.123 C 
ATOM      4  N   UNL     1       7.897  -1.152  23.614  0.00  0.00    -0.297 N 
ATOM      5  C   UNL     1       6.803  -2.001  23.794  0.00  0.00    +0.224 A 
ATOM      6  N   UNL     1       6.473  -2.837  22.814  0.00  0.00    -0.181 NA
ATOM      7  C   UNL     1       5.443  -3.643  23.049  0.00  0.00    +0.221 A 
ATOM      8  N   UNL     1       5.001  -4.523  22.074  0.00  0.00    -0.310 N 
ATOM      9  H   UNL     1       4.247  -5.094  22.430  0.00  0.00    +0.149 HD
ATOM     10  N   UNL     1       4.734  -3.632  24.175  0.00  0.00    -0.181 NA
ATOM     11  C   UNL     1       5.133  -2.770  25.098  0.00  0.00    +0.221 A 
ATOM     12  N   UNL     1       4.384  -2.685  26.264  0.00  0.00    -0.310 N 
ATOM     13  H   UNL     1       3.780  -3.494  26.323  0.00  0.00    +0.149 HD
ATOM     14  N   UNL     1       6.167  -1.960  24.953  0.00  0.00    -0.181 NA
ATOM     15  C   UNL     1       8.460  -0.615  24.859  0.00  0.00    +0.123 C 
ATOM     16  C   UNL     1       9.798   0.076  24.520  0.00  0.00    +0.104 C 
ENDROOT
BRANCH   1  17
ATOM     17  C   UNL     1       9.168   2.460  24.140  0.00  0.00    +0.117 C 
BRANCH  17  22
ATOM     18  F   UNL     1       4.009   3.799  22.175  0.00  0.00    -0.205 F 
ATOM     19  C   UNL     1       5.226   3.465  22.624  0.00  0.00    +0.123 A 
ATOM     20  C   UNL     1       6.343   3.757  21.854  0.00  0.00    +0.038 A 
ATOM     21  C   UNL     1       7.614   3.421  22.328  0.00  0.00    +0.008 A 
ATOM     22  C   UNL     1       7.776   2.806  23.584  0.00  0.00    -0.026 A 
ATOM     23  C   UNL     1       6.625   2.502  24.336  0.00  0.00    +0.008 A 
ATOM     24  C   UNL     1       5.351   2.829  23.852  0.00  0.00    +0.038 A 
ENDBRANCH  17  22
BRANCH  17  25
ATOM     25  C   UNL     1      10.105   3.685  23.995  0.00  0.00    -0.026 A 
ATOM     26  C   UNL     1      11.368   3.603  23.370  0.00  0.00    +0.008 A 
ATOM     27  C   UNL     1      12.222   4.711  23.322  0.00  0.00    +0.038 A 
ATOM     28  C   UNL     1      11.808   5.920  23.872  0.00  0.00    +0.123 A 
ATOM     29  F   UNL     1      12.636   6.972  23.853  0.00  0.00    -0.205 F 
ATOM     30  C   UNL     1      10.553   6.045  24.451  0.00  0.00    +0.038 A 
ATOM     31  C   UNL     1       9.701   4.936  24.505  0.00  0.00    +0.008 A 
ENDBRANCH  17  25
ENDBRANCH   1  17
BRANCH   8  32
ATOM     32  C   UNL     1       5.970  -5.180  21.224  0.00  0.00    +0.131 C 
BRANCH  32  33
ATOM     33  C   UNL     1       6.606  -6.305  22.000  0.00  0.00    -0.016 C 
ATOM     34  C   UNL     1       7.764  -6.224  22.670  0.00  0.00    +0.005 C 
ENDBRANCH  32  33
ENDBRANCH   8  32
BRANCH  12  35
ATOM     35  C   UNL     1       5.135  -2.384  27.465  0.00  0.00    +0.131 C 
BRANCH  35  36
ATOM     36  C   UNL     1       4.511  -1.169  28.078  0.00  0.00    -0.016 C 
ATOM     37  C   UNL     1       4.551   0.067  27.564  0.00  0.00    +0.005 C 
ENDBRANCH  35  36
ENDBRANCH  12  35
TORSDOF 7
ENDMDL
MODEL 6
REMARK VINA RESULT:      -5.9      4.072      9.000
REMARK  Name = 
REMARK  7 active torsions:
REMARK  status: ('A' for Active; 'I' for Inactive)
REMARK    1  A    between atoms: C_5  and  C_8
REMARK    2  A    between atoms: C_8  and  N_9
REMARK    3  A    between atoms: C_8  and  C_29
REMARK    4  A    between atoms: N_18  and  C_19
REMARK    5  A    between atoms: C_19  and  C_20
REMARK    6  A    between atoms: N_24  and  C_25
REMARK    7  A    between atoms: C_25  and  C_26
REMARK                            x       y       z     vdW  Elec       q    Type
REMARK                         _______ _______ _______ _____ _____    ______ ____
ROOT
ATOM      1  N   UNL     1       8.161  -2.413  25.658  0.00  0.00    -0.289 NA
ATOM      2  C   UNL     1       8.323  -3.493  26.684  0.00  0.00    +0.104 C 
ATOM      3  C   UNL     1       7.347  -4.707  26.615  0.00  0.00    +0.123 C 
ATOM      4  N   UNL     1       5.963  -4.221  26.516  0.00  0.00    -0.297 N 
ATOM      5  C   UNL     1       5.028  -5.255  26.597  0.00  0.00    +0.224 A 
ATOM      6  N   UNL     1       4.842  -5.861  27.766  0.00  0.00    -0.181 NA
ATOM      7  C   UNL     1       3.919  -6.817  27.794  0.00  0.00    +0.221 A 
ATOM      8  N   UNL     1       3.681  -7.530  28.958  0.00  0.00    -0.310 N 
ATOM      9  H   UNL     1       2.919  -8.181  28.822  0.00  0.00    +0.149 HD
ATOM     10  N   UNL     1       3.215  -7.199  26.732  0.00  0.00    -0.181 NA
ATOM     11  C   UNL     1       3.462  -6.541  25.610  0.00  0.00    +0.221 A 
ATOM     12  N   UNL     1       2.791  -6.949  24.464  0.00  0.00    -0.310 N 
ATOM     13  H   UNL     1       2.017  -7.542  24.735  0.00  0.00    +0.149 HD
ATOM     14  N   UNL     1       4.338  -5.558  25.509  0.00  0.00    -0.181 NA
ATOM     15  C   UNL     1       5.785  -3.329  25.363  0.00  0.00    +0.123 C 
ATOM     16  C   UNL     1       6.709  -2.108  25.555  0.00  0.00    +0.104 C 
ENDROOT
BRANCH   1  17
ATOM     17  C   UNL     1       8.802  -2.739  24.352  0.00  0.00    +0.117 C 
BRANCH  17  22
ATOM     18  F   UNL     1      10.410   1.920  21.527  0.00  0.00    -0.205 F 
ATOM     19  C   UNL     1      10.053   0.817  22.198  0.00  0.00    +0.123 A 
ATOM     20  C   UNL     1       9.981   0.854  23.584  0.00  0.00    +0.038 A 
ATOM     21  C   UNL     1       9.595  -0.292  24.285  0.00  0.00    +0.008 A 
ATOM     22  C   UNL     1       9.263  -1.478  23.602  0.00  0.00    -0.026 A 
ATOM     23  C   UNL     1       9.365  -1.493  22.197  0.00  0.00    +0.008 A 
ATOM     24  C   UNL     1       9.764  -0.347  21.499  0.00  0.00    +0.038 A 
ENDBRANCH  17  22
BRANCH  17  25
ATOM     25  C   UNL     1       7.927  -3.610  23.415  0.00  0.00    -0.026 A 
ATOM     26  C   UNL     1       8.010  -5.018  23.395  0.00  0.00    +0.008 A 
ATOM     27  C   UNL     1       7.260  -5.771  22.484  0.00  0.00    +0.038 A 
ATOM     28  C   UNL     1       6.398  -5.124  21.604  0.00  0.00    +0.123 A 
ATOM     29  F   UNL     1       5.703  -5.841  20.712  0.00  0.00    -0.205 F 
ATOM     30  C   UNL     1       6.259  -3.743  21.632  0.00  0.00    +0.038 A 
ATOM     31  C   UNL     1       7.013  -2.989  22.539  0.00  0.00    +0.008 A 
ENDBRANCH  17  25
ENDBRANCH   1  17
BRANCH   8  32
ATOM     32  C   UNL     1       3.734  -6.845  30.230  0.00  0.00    +0.131 C 
BRANCH  32  33
ATOM     33  C   UNL     1       2.419  -6.142  30.453  0.00  0.00    -0.016 C 
ATOM     34  C   UNL     1       2.250  -4.812  30.485  0.00  0.00    +0.005 C 
ENDBRANCH  32  33
ENDBRANCH   8  32
BRANCH  12  35
ATOM     35  C   UNL     1       2.466  -5.897  23.526  0.00  0.00    +0.131 C 
BRANCH  35  36
ATOM     36  C   UNL     1       1.369  -6.416  22.649  0.00  0.00    -0.016 C 
ATOM     37  C   UNL     1       1.220  -7.690  22.265  0.00  0.00    +0.005 C 
ENDBRANCH  35  36
ENDBRANCH  12  35
TORSDOF 7
ENDMDL
MODEL 7
REMARK VINA RESULT:      -5.8      2.445      3.457
REMARK  Name = 
REMARK  7 active torsions:
REMARK  status: ('A' for Active; 'I' for Inactive)
REMARK    1  A    between atoms: C_5  and  C_8
REMARK    2  A    between atoms: C_8  and  N_9
REMARK    3  A    between atoms: C_8  and  C_29
REMARK    4  A    between atoms: N_18  and  C_19
REMARK    5  A    between atoms: C_19  and  C_20
REMARK    6  A    between atoms: N_24  and  C_25
REMARK    7  A    between atoms: C_25  and  C_26
REMARK                            x       y       z     vdW  Elec       q    Type
REMARK                         _______ _______ _______ _____ _____    ______ ____
ROOT
ATOM      1  N   UNL     1       6.459  -1.371  26.427  0.00  0.00    -0.289 NA
ATOM      2  C   UNL     1       5.474  -0.260  26.624  0.00  0.00    +0.104 C 
ATOM      3  C   UNL     1       5.812   1.126  25.995  0.00  0.00    +0.123 C 
ATOM      4  N   UNL     1       7.182   1.512  26.361  0.00  0.00    -0.297 N 
ATOM      5  C   UNL     1       7.499   2.809  25.952  0.00  0.00    +0.224 A 
ATOM      6  N   UNL     1       6.932   3.835  26.578  0.00  0.00    -0.181 NA
ATOM      7  C   UNL     1       7.291   5.047  26.169  0.00  0.00    +0.221 A 
ATOM      8  N   UNL     1       6.724   6.178  26.735  0.00  0.00    -0.310 N 
ATOM      9  H   UNL     1       7.141   7.013  26.348  0.00  0.00    +0.149 HD
ATOM     10  N   UNL     1       8.145   5.271  25.174  0.00  0.00    -0.181 NA
ATOM     11  C   UNL     1       8.666   4.192  24.608  0.00  0.00    +0.221 A 
ATOM     12  N   UNL     1       9.517   4.381  23.528  0.00  0.00    -0.310 N 
ATOM     13  H   UNL     1       9.803   5.351  23.504  0.00  0.00    +0.149 HD
ATOM     14  N   UNL     1       8.385   2.956  24.980  0.00  0.00    -0.181 NA
ATOM     15  C   UNL     1       8.157   0.491  25.956  0.00  0.00    +0.123 C 
ATOM     16  C   UNL     1       7.815  -0.819  26.696  0.00  0.00    +0.104 C 
ENDROOT
BRANCH   1  17
ATOM     17  C   UNL     1       6.335  -2.043  25.102  0.00  0.00    +0.117 C 
BRANCH  17  22
ATOM     18  F   UNL     1       4.483  -7.387  25.627  0.00  0.00    -0.205 F 
ATOM     19  C   UNL     1       4.942  -6.135  25.502  0.00  0.00    +0.123 A 
ATOM     20  C   UNL     1       5.307  -5.663  24.248  0.00  0.00    +0.038 A 
ATOM     21  C   UNL     1       5.772  -4.352  24.115  0.00  0.00    +0.008 A 
ATOM     22  C   UNL     1       5.860  -3.500  25.233  0.00  0.00    -0.026 A 
ATOM     23  C   UNL     1       5.502  -4.011  26.495  0.00  0.00    +0.008 A 
ATOM     24  C   UNL     1       5.049  -5.330  26.628  0.00  0.00    +0.038 A 
ENDBRANCH  17  22
BRANCH  17  25
ATOM     25  C   UNL     1       7.623  -1.992  24.241  0.00  0.00    -0.026 A 
ATOM     26  C   UNL     1       8.787  -2.716  24.576  0.00  0.00    +0.008 A 
ATOM     27  C   UNL     1       9.957  -2.589  23.819  0.00  0.00    +0.038 A 
ATOM     28  C   UNL     1       9.966  -1.759  22.703  0.00  0.00    +0.123 A 
ATOM     29  F   UNL     1      11.094  -1.614  21.996  0.00  0.00    -0.205 F 
ATOM     30  C   UNL     1       8.822  -1.070  22.321  0.00  0.00    +0.038 A 
ATOM     31  C   UNL     1       7.654  -1.192  23.081  0.00  0.00    +0.008 A 
ENDBRANCH  17  25
ENDBRANCH   1  17
BRANCH   8  32
ATOM     32  C   UNL     1       6.438   6.190  28.153  0.00  0.00    +0.131 C 
BRANCH  32  33
ATOM     33  C   UNL     1       4.949   6.331  28.342  0.00  0.00    -0.016 C 
ATOM     34  C   UNL     1       4.125   5.352  28.744  0.00  0.00    +0.005 C 
ENDBRANCH  32  33
ENDBRANCH   8  32
BRANCH  12  35
ATOM     35  C   UNL     1      10.590   3.417  23.406  0.00  0.00    +0.131 C 
BRANCH  35  36
ATOM     36  C   UNL     1      11.871   4.192  23.362  0.00  0.00    -0.016 C 
ATOM     37  C   UNL     1      11.977   5.523  23.463  0.00  0.00    +0.005 C 
ENDBRANCH  35  36
ENDBRANCH  12  35
TORSDOF 7
ENDMDL
MODEL 8
REMARK VINA RESULT:      -5.8      1.715      2.443
REMARK  Name = 
REMARK  7 active torsions:
REMARK  status: ('A' for Active; 'I' for Inactive)
REMARK    1  A    between atoms: C_5  and  C_8
REMARK    2  A    between atoms: C_8  and  N_9
REMARK    3  A    between atoms: C_8  and  C_29
REMARK    4  A    between atoms: N_18  and  C_19
REMARK    5  A    between atoms: C_19  and  C_20
REMARK    6  A    between atoms: N_24  and  C_25
REMARK    7  A    between atoms: C_25  and  C_26
REMARK                            x       y       z     vdW  Elec       q    Type
REMARK                         _______ _______ _______ _____ _____    ______ ____
ROOT
ATOM      1  N   UNL     1       5.951  -1.163  26.305  0.00  0.00    -0.289 NA
ATOM      2  C   UNL     1       4.925  -0.108  26.028  0.00  0.00    +0.104 C 
ATOM      3  C   UNL     1       5.377   1.145  25.218  0.00  0.00    +0.123 C 
ATOM      4  N   UNL     1       6.609   1.692  25.805  0.00  0.00    -0.297 N 
ATOM      5  C   UNL     1       6.990   2.900  25.218  0.00  0.00    +0.224 A 
ATOM      6  N   UNL     1       6.266   3.988  25.464  0.00  0.00    -0.181 NA
ATOM      7  C   UNL     1       6.689   5.117  24.904  0.00  0.00    +0.221 A 
ATOM      8  N   UNL     1       5.978   6.295  25.072  0.00  0.00    -0.310 N 
ATOM      9  H   UNL     1       6.460   7.063  24.625  0.00  0.00    +0.149 HD
ATOM     10  N   UNL     1       7.755   5.198  24.112  0.00  0.00    -0.181 NA
ATOM     11  C   UNL     1       8.419   4.068  23.924  0.00  0.00    +0.221 A 
ATOM     12  N   UNL     1       9.504   4.097  23.057  0.00  0.00    -0.310 N 
ATOM     13  H   UNL     1       9.766   5.061  22.897  0.00  0.00    +0.149 HD
ATOM     14  N   UNL     1       8.081   2.914  24.471  0.00  0.00    -0.181 NA
ATOM     15  C   UNL     1       7.674   0.683  25.863  0.00  0.00    +0.123 C 
ATOM     16  C   UNL     1       7.189  -0.475  26.761  0.00  0.00    +0.104 C 
ENDROOT
BRANCH   1  17
ATOM     17  C   UNL     1       6.167  -2.093  25.159  0.00  0.00    +0.117 C 
BRANCH  17  22
ATOM     18  F   UNL     1       1.735  -5.523  24.230  0.00  0.00    -0.205 F 
ATOM     19  C   UNL     1       2.767  -4.696  24.444  0.00  0.00    +0.123 A 
ATOM     20  C   UNL     1       2.829  -3.972  25.626  0.00  0.00    +0.038 A 
ATOM     21  C   UNL     1       3.912  -3.119  25.856  0.00  0.00    +0.008 A 
ATOM     22  C   UNL     1       4.949  -2.998  24.910  0.00  0.00    -0.026 A 
ATOM     23  C   UNL     1       4.850  -3.729  23.710  0.00  0.00    +0.008 A 
ATOM     24  C   UNL     1       3.757  -4.573  23.478  0.00  0.00    +0.038 A 
ENDBRANCH  17  22
BRANCH  17  25
ATOM     25  C   UNL     1       7.444  -2.961  25.278  0.00  0.00    -0.026 A 
ATOM     26  C   UNL     1       8.532  -2.834  24.387  0.00  0.00    +0.008 A 
ATOM     27  C   UNL     1       9.639  -3.686  24.475  0.00  0.00    +0.038 A 
ATOM     28  C   UNL     1       9.682  -4.654  25.473  0.00  0.00    +0.123 A 
ATOM     29  F   UNL     1      10.728  -5.488  25.540  0.00  0.00    -0.205 F 
ATOM     30  C   UNL     1       8.650  -4.772  26.394  0.00  0.00    +0.038 A 
ATOM     31  C   UNL     1       7.540  -3.925  26.302  0.00  0.00    +0.008 A 
ENDBRANCH  17  25
ENDBRANCH   1  17
BRANCH   8  32
ATOM     32  C   UNL     1       5.356   6.569  26.349  0.00  0.00    +0.131 C 
BRANCH  32  33
ATOM     33  C   UNL     1       6.406   7.107  27.289  0.00  0.00    -0.016 C 
ATOM     34  C   UNL     1       6.950   6.428  28.309  0.00  0.00    +0.005 C 
ENDBRANCH  32  33
ENDBRANCH   8  32
BRANCH  12  35
ATOM     35  C   UNL     1      10.593   3.206  23.395  0.00  0.00    +0.131 C 
BRANCH  35  36
ATOM     36  C   UNL     1      11.843   4.032  23.415  0.00  0.00    -0.016 C 
ATOM     37  C   UNL     1      11.890   5.369  23.354  0.00  0.00    +0.005 C 
ENDBRANCH  35  36
ENDBRANCH  12  35
TORSDOF 7
ENDMDL
MODEL 9
REMARK VINA RESULT:      -5.8      3.332      8.851
REMARK  Name = 
REMARK  7 active torsions:
REMARK  status: ('A' for Active; 'I' for Inactive)
REMARK    1  A    between atoms: C_5  and  C_8
REMARK    2  A    between atoms: C_8  and  N_9
REMARK    3  A    between atoms: C_8  and  C_29
REMARK    4  A    between atoms: N_18  and  C_19
REMARK    5  A    between atoms: C_19  and  C_20
REMARK    6  A    between atoms: N_24  and  C_25
REMARK    7  A    between atoms: C_25  and  C_26
REMARK                            x       y       z     vdW  Elec       q    Type
REMARK                         _______ _______ _______ _____ _____    ______ ____
ROOT
ATOM      1  N   UNL     1       6.577   0.811  26.043  0.00  0.00    -0.289 NA
ATOM      2  C   UNL     1       7.515  -0.142  26.718  0.00  0.00    +0.104 C 
ATOM      3  C   UNL     1       7.388  -1.655  26.361  0.00  0.00    +0.123 C 
ATOM      4  N   UNL     1       5.982  -2.070  26.469  0.00  0.00    -0.297 N 
ATOM      5  C   UNL     1       5.818  -3.447  26.305  0.00  0.00    +0.224 A 
ATOM      6  N   UNL     1       6.241  -4.262  27.267  0.00  0.00    -0.181 NA
ATOM      7  C   UNL     1       6.034  -5.560  27.073  0.00  0.00    +0.221 A 
ATOM      8  N   UNL     1       6.474  -6.490  28.002  0.00  0.00    -0.310 N 
ATOM      9  H   UNL     1       6.194  -7.421  27.728  0.00  0.00    +0.149 HD
ATOM     10  N   UNL     1       5.464  -6.065  25.982  0.00  0.00    -0.181 NA
ATOM     11  C   UNL     1       5.070  -5.182  25.077  0.00  0.00    +0.221 A 
ATOM     12  N   UNL     1       4.523  -5.671  23.897  0.00  0.00    -0.310 N 
ATOM     13  H   UNL     1       4.283  -6.645  24.029  0.00  0.00    +0.149 HD
ATOM     14  N   UNL     1       5.210  -3.875  25.211  0.00  0.00    -0.181 NA
ATOM     15  C   UNL     1       5.110  -1.248  25.621  0.00  0.00    +0.123 C 
ATOM     16  C   UNL     1       5.216   0.215  26.101  0.00  0.00    +0.104 C 
ENDROOT
BRANCH   1  17
ATOM     17  C   UNL     1       7.010   1.191  24.668  0.00  0.00    +0.117 C 
BRANCH  17  22
ATOM     18  F   UNL     1      11.156  -2.118  22.636  0.00  0.00    -0.205 F 
ATOM     19  C   UNL     1      10.179  -1.349  23.135  0.00  0.00    +0.123 A 
ATOM     20  C   UNL     1      10.498  -0.325  24.016  0.00  0.00    +0.038 A 
ATOM     21  C   UNL     1       9.481   0.486  24.527  0.00  0.00    +0.008 A 
ATOM     22  C   UNL     1       8.140   0.288  24.145  0.00  0.00    -0.026 A 
ATOM     23  C   UNL     1       7.842  -0.771  23.266  0.00  0.00    +0.008 A 
ATOM     24  C   UNL     1       8.862  -1.591  22.766  0.00  0.00    +0.038 A 
ENDBRANCH  17  22
BRANCH  17  25
ATOM     25  C   UNL     1       7.422   2.677  24.520  0.00  0.00    -0.026 A 
ATOM     26  C   UNL     1       7.545   3.307  23.263  0.00  0.00    +0.008 A 
ATOM     27  C   UNL     1       7.993   4.630  23.160  0.00  0.00    +0.038 A 
ATOM     28  C   UNL     1       8.294   5.343  24.315  0.00  0.00    +0.123 A 
ATOM     29  F   UNL     1       8.751   6.598  24.216  0.00  0.00    -0.205 F 
ATOM     30  C   UNL     1       8.138   4.766  25.569  0.00  0.00    +0.038 A 
ATOM     31  C   UNL     1       7.696   3.442  25.671  0.00  0.00    +0.008 A 
ENDBRANCH  17  25
ENDBRANCH   1  17
BRANCH   8  32
ATOM     32  C   UNL     1       6.394  -6.173  29.410  0.00  0.00    +0.131 C 
BRANCH  32  33
ATOM     33  C   UNL     1       4.978  -6.402  29.875  0.00  0.00    -0.016 C 
ATOM     34  C   UNL     1       4.112  -5.438  30.220  0.00  0.00    +0.005 C 
ENDBRANCH  32  33
ENDBRANCH   8  32
BRANCH  12  35
ATOM     35  C   UNL     1       3.487  -4.852  23.306  0.00  0.00    +0.131 C 
BRANCH  35  36
ATOM     36  C   UNL     1       2.233  -5.671  23.300  0.00  0.00    -0.016 C 
ATOM     37  C   UNL     1       1.007  -5.209  23.023  0.00  0.00    +0.005 C 
ENDBRANCH  35  36
ENDBRANCH  12  35
TORSDOF 7
ENDMDL
