MODEL 1
REMARK VINA RESULT:      -8.3      0.000      0.000
REMARK  Name = 
REMARK  8 active torsions:
REMARK  status: ('A' for Active; 'I' for Inactive)
REMARK    1  A    between atoms: O_1  and  O_2
REMARK    2  A    between atoms: O_2  and  C_3
REMARK    3  A    between atoms: C_3  and  C_4
REMARK    4  A    between atoms: C_4  and  C_5
REMARK    5  A    between atoms: C_14  and  C_16
REMARK    6  A    between atoms: C_16  and  C_17
REMARK    7  A    between atoms: C_24  and  C_29
REMARK    8  A    between atoms: C_32  and  O_33
REMARK                            x       y       z     vdW  Elec       q    Type
REMARK                         _______ _______ _______ _____ _____    ______ ____
ROOT
ATOM      1  C   UNL     1       5.618  -5.053  22.701  0.00  0.00    +0.381 C 
ATOM      2  C   UNL     1       6.171  -3.906  21.826  0.00  0.00    +0.391 C 
ATOM      3  O   UNL     1       5.693  -3.464  20.789  0.00  0.00    -0.239 OA
ATOM      4  N   UNL     1       7.268  -3.448  22.495  0.00  0.00    -0.123 N 
ATOM      5  C   UNL     1       7.531  -4.288  23.525  0.00  0.00    +0.320 C 
ATOM      6  C   UNL     1       8.827  -4.038  24.304  0.00  0.00    +0.192 C 
ATOM      7  N   UNL     1       9.130  -2.589  24.303  0.00  0.00    -0.327 N 
ATOM      8  H   UNL     1       9.993  -2.323  24.771  0.00  0.00    +0.147 HD
ATOM      9  C   UNL     1       8.827  -1.822  23.179  0.00  0.00    +0.073 C 
ATOM     10  C   UNL     1       7.930  -2.265  22.272  0.00  0.00    +0.223 C 
ATOM     11  N   UNL     1       6.702  -5.267  23.718  0.00  0.00    -0.033 NA
ENDROOT
BRANCH   9  12
ATOM     12  C   UNL     1       9.413  -0.464  23.080  0.00  0.00    -0.001 A 
ATOM     13  C   UNL     1       9.312   0.301  21.907  0.00  0.00    +0.013 A 
ATOM     14  C   UNL     1       9.829   1.600  21.860  0.00  0.00    +0.046 A 
ATOM     15  C   UNL     1      10.458   2.140  22.972  0.00  0.00    +0.117 A 
ATOM     16  C   UNL     1      10.585   1.399  24.139  0.00  0.00    +0.046 A 
ATOM     17  C   UNL     1      10.061   0.103  24.191  0.00  0.00    +0.013 A 
BRANCH  15  18
ATOM     18  O   UNL     1      10.932   3.414  22.880  0.00  0.00    -0.507 OA
ATOM     19  H   UNL     1      10.280   4.019  23.270  0.00  0.00    +0.292 HD
ENDBRANCH  15  18
ENDBRANCH   9  12
BRANCH   1  20
ATOM     20  O   UNL     1       5.229  -6.177  21.910  0.00  0.00    -0.169 OA
BRANCH  20  21
ATOM     21  O   UNL     1       6.068  -6.175  20.717  0.00  0.00    -0.245 OA
ATOM     22  H   UNL     1       6.729  -5.549  21.061  0.00  0.00    +0.253 HD
ENDBRANCH  20  21
ENDBRANCH   1  20
BRANCH   6  23
ATOM     23  C   UNL     1       8.857  -4.656  25.711  0.00  0.00    +0.069 C 
BRANCH  23  24
ATOM     24  C   UNL     1       7.629  -4.497  26.581  0.00  0.00    -0.045 A 
ATOM     25  C   UNL     1       6.903  -3.302  26.647  0.00  0.00    +0.004 A 
ATOM     26  C   UNL     1       5.724  -3.226  27.388  0.00  0.00    +0.000 A 
ATOM     27  C   UNL     1       5.272  -4.332  28.100  0.00  0.00    +0.000 A 
ATOM     28  C   UNL     1       6.017  -5.508  28.098  0.00  0.00    +0.000 A 
ATOM     29  C   UNL     1       7.193  -5.589  27.350  0.00  0.00    +0.004 A 
ENDBRANCH  23  24
ENDBRANCH   6  23
BRANCH   1  30
ATOM     30  C   UNL     1       4.339  -4.461  23.363  0.00  0.00    +0.138 C 
BRANCH  30  31
ATOM     31  C   UNL     1       3.683  -5.182  24.526  0.00  0.00    -0.040 A 
ATOM     32  C   UNL     1       2.733  -4.499  25.307  0.00  0.00    +0.005 A 
ATOM     33  C   UNL     1       2.164  -5.093  26.437  0.00  0.00    +0.015 A 
ATOM     34  C   UNL     1       2.549  -6.379  26.806  0.00  0.00    +0.018 A 
ATOM     35 BR   UNL     1       1.804  -7.183  28.345  0.00  0.00    -0.050 Br
ATOM     36  C   UNL     1       3.491  -7.070  26.053  0.00  0.00    +0.015 A 
ATOM     37  C   UNL     1       4.058  -6.472  24.924  0.00  0.00    +0.005 A 
ENDBRANCH  30  31
ENDBRANCH   1  30
TORSDOF 8
ENDMDL
MODEL 2
REMARK VINA RESULT:      -7.2      2.781      3.859
REMARK  Name = 
REMARK  8 active torsions:
REMARK  status: ('A' for Active; 'I' for Inactive)
REMARK    1  A    between atoms: O_1  and  O_2
REMARK    2  A    between atoms: O_2  and  C_3
REMARK    3  A    between atoms: C_3  and  C_4
REMARK    4  A    between atoms: C_4  and  C_5
REMARK    5  A    between atoms: C_14  and  C_16
REMARK    6  A    between atoms: C_16  and  C_17
REMARK    7  A    between atoms: C_24  and  C_29
REMARK    8  A    between atoms: C_32  and  O_33
REMARK                            x       y       z     vdW  Elec       q    Type
REMARK                         _______ _______ _______ _____ _____    ______ ____
ROOT
ATOM      1  C   UNL     1       9.142  -3.777  24.673  0.00  0.00    +0.381 C 
ATOM      2  C   UNL     1       9.742  -2.569  23.918  0.00  0.00    +0.391 C 
ATOM      3  O   UNL     1      10.533  -2.594  22.983  0.00  0.00    -0.239 OA
ATOM      4  N   UNL     1       9.149  -1.474  24.474  0.00  0.00    -0.123 N 
ATOM      5  C   UNL     1       8.442  -1.868  25.561  0.00  0.00    +0.320 C 
ATOM      6  C   UNL     1       7.831  -0.758  26.425  0.00  0.00    +0.192 C 
ATOM      7  N   UNL     1       7.481   0.396  25.567  0.00  0.00    -0.327 N 
ATOM      8  H   UNL     1       7.095   1.201  26.055  0.00  0.00    +0.147 HD
ATOM      9  C   UNL     1       8.291   0.718  24.479  0.00  0.00    +0.073 C 
ATOM     10  C   UNL     1       9.136  -0.199  23.963  0.00  0.00    +0.223 C 
ATOM     11  N   UNL     1       8.400  -3.140  25.813  0.00  0.00    -0.033 NA
ENDROOT
BRANCH   9  12
ATOM     12  C   UNL     1       8.102   2.038  23.833  0.00  0.00    -0.001 A 
ATOM     13  C   UNL     1       8.845   3.164  24.220  0.00  0.00    +0.013 A 
ATOM     14  C   UNL     1       8.682   4.385  23.557  0.00  0.00    +0.046 A 
ATOM     15  C   UNL     1       7.774   4.496  22.514  0.00  0.00    +0.117 A 
ATOM     16  C   UNL     1       7.016   3.402  22.122  0.00  0.00    +0.046 A 
ATOM     17  C   UNL     1       7.183   2.177  22.778  0.00  0.00    +0.013 A 
BRANCH  15  18
ATOM     18  O   UNL     1       7.663   5.703  21.891  0.00  0.00    -0.507 OA
ATOM     19  H   UNL     1       6.768   6.050  22.040  0.00  0.00    +0.292 HD
ENDBRANCH  15  18
ENDBRANCH   9  12
BRANCH   1  20
ATOM     20  O   UNL     1      10.142  -4.744  24.998  0.00  0.00    -0.169 OA
BRANCH  20  21
ATOM     21  O   UNL     1       9.975  -5.077  26.409  0.00  0.00    -0.245 OA
ATOM     22  H   UNL     1      10.844  -5.505  26.512  0.00  0.00    +0.253 HD
ENDBRANCH  20  21
ENDBRANCH   1  20
BRANCH   6  23
ATOM     23  C   UNL     1       6.670  -1.214  27.323  0.00  0.00    +0.069 C 
BRANCH  23  24
ATOM     24  C   UNL     1       5.501  -1.916  26.668  0.00  0.00    -0.045 A 
ATOM     25  C   UNL     1       5.335  -1.967  25.279  0.00  0.00    +0.004 A 
ATOM     26  C   UNL     1       4.295  -2.705  24.713  0.00  0.00    +0.000 A 
ATOM     27  C   UNL     1       3.388  -3.374  25.528  0.00  0.00    +0.000 A 
ATOM     28  C   UNL     1       3.499  -3.280  26.912  0.00  0.00    +0.000 A 
ATOM     29  C   UNL     1       4.544  -2.548  27.480  0.00  0.00    +0.004 A 
ENDBRANCH  23  24
ENDBRANCH   6  23
BRANCH   1  30
ATOM     30  C   UNL     1       8.156  -4.425  23.656  0.00  0.00    +0.138 C 
BRANCH  30  31
ATOM     31  C   UNL     1       6.974  -5.234  24.156  0.00  0.00    -0.040 A 
ATOM     32  C   UNL     1       6.019  -5.694  23.231  0.00  0.00    +0.005 A 
ATOM     33  C   UNL     1       4.871  -6.372  23.653  0.00  0.00    +0.015 A 
ATOM     34  C   UNL     1       4.661  -6.588  25.012  0.00  0.00    +0.018 A 
ATOM     35 BR   UNL     1       3.101  -7.482  25.596  0.00  0.00    -0.050 Br
ATOM     36  C   UNL     1       5.587  -6.136  25.945  0.00  0.00    +0.015 A 
ATOM     37  C   UNL     1       6.733  -5.458  25.518  0.00  0.00    +0.005 A 
ENDBRANCH  30  31
ENDBRANCH   1  30
TORSDOF 8
ENDMDL
MODEL 3
REMARK VINA RESULT:      -7.0      3.178      4.250
REMARK  Name = 
REMARK  8 active torsions:
REMARK  status: ('A' for Active; 'I' for Inactive)
REMARK    1  A    between atoms: O_1  and  O_2
REMARK    2  A    between atoms: O_2  and  C_3
REMARK    3  A    between atoms: C_3  and  C_4
REMARK    4  A    between atoms: C_4  and  C_5
REMARK    5  A    between atoms: C_14  and  C_16
REMARK    6  A    between atoms: C_16  and  C_17
REMARK    7  A    between atoms: C_24  and  C_29
REMARK    8  A    between atoms: C_32  and  O_33
REMARK                            x       y       z     vdW  Elec       q    Type
REMARK                         _______ _______ _______ _____ _____    ______ ____
ROOT
ATOM      1  C   UNL     1       8.530  -3.751  24.291  0.00  0.00    +0.381 C 
ATOM      2  C   UNL     1       9.594  -2.719  23.856  0.00  0.00    +0.391 C 
ATOM      3  O   UNL     1      10.479  -2.867  23.023  0.00  0.00    -0.239 OA
ATOM      4  N   UNL     1       9.292  -1.585  24.553  0.00  0.00    -0.123 N 
ATOM      5  C   UNL     1       8.330  -1.876  25.460  0.00  0.00    +0.320 C 
ATOM      6  C   UNL     1       7.966  -0.770  26.458  0.00  0.00    +0.192 C 
ATOM      7  N   UNL     1       8.142   0.551  25.814  0.00  0.00    -0.327 N 
ATOM      8  H   UNL     1       7.954   1.355  26.407  0.00  0.00    +0.147 HD
ATOM      9  C   UNL     1       9.179   0.740  24.901  0.00  0.00    +0.073 C 
ATOM     10  C   UNL     1       9.766  -0.319  24.306  0.00  0.00    +0.223 C 
ATOM     11  N   UNL     1       7.850  -3.081  25.451  0.00  0.00    -0.033 NA
ENDROOT
BRANCH   9  12
ATOM     12  C   UNL     1       9.523   2.128  24.512  0.00  0.00    -0.001 A 
ATOM     13  C   UNL     1      10.672   2.422  23.760  0.00  0.00    +0.013 A 
ATOM     14  C   UNL     1      10.943   3.736  23.363  0.00  0.00    +0.046 A 
ATOM     15  C   UNL     1      10.082   4.764  23.720  0.00  0.00    +0.117 A 
ATOM     16  C   UNL     1       8.949   4.502  24.476  0.00  0.00    +0.046 A 
ATOM     17  C   UNL     1       8.670   3.188  24.868  0.00  0.00    +0.013 A 
BRANCH  15  18
ATOM     18  O   UNL     1      10.385   6.023  23.296  0.00  0.00    -0.507 OA
ATOM     19  H   UNL     1       9.704   6.634  23.624  0.00  0.00    +0.292 HD
ENDBRANCH  15  18
ENDBRANCH   9  12
BRANCH   1  20
ATOM     20  O   UNL     1       9.107  -5.037  24.521  0.00  0.00    -0.169 OA
BRANCH  20  21
ATOM     21  O   UNL     1      10.491  -4.820  24.931  0.00  0.00    -0.245 OA
ATOM     22  H   UNL     1      10.892  -5.180  24.119  0.00  0.00    +0.253 HD
ENDBRANCH  20  21
ENDBRANCH   1  20
BRANCH   6  23
ATOM     23  C   UNL     1       6.590  -0.936  27.123  0.00  0.00    +0.069 C 
BRANCH  23  24
ATOM     24  C   UNL     1       5.803   0.315  27.445  0.00  0.00    -0.045 A 
ATOM     25  C   UNL     1       6.090   1.120  28.554  0.00  0.00    +0.004 A 
ATOM     26  C   UNL     1       5.402   2.316  28.762  0.00  0.00    +0.000 A 
ATOM     27  C   UNL     1       4.395   2.706  27.884  0.00  0.00    +0.000 A 
ATOM     28  C   UNL     1       4.052   1.885  26.814  0.00  0.00    +0.000 A 
ATOM     29  C   UNL     1       4.746   0.692  26.600  0.00  0.00    +0.004 A 
ENDBRANCH  23  24
ENDBRANCH   6  23
BRANCH   1  30
ATOM     30  C   UNL     1       7.570  -3.864  23.069  0.00  0.00    +0.138 C 
BRANCH  30  31
ATOM     31  C   UNL     1       6.183  -4.453  23.245  0.00  0.00    -0.040 A 
ATOM     32  C   UNL     1       5.094  -3.587  23.457  0.00  0.00    +0.005 A 
ATOM     33  C   UNL     1       3.812  -4.087  23.707  0.00  0.00    +0.015 A 
ATOM     34  C   UNL     1       3.608  -5.463  23.759  0.00  0.00    +0.018 A 
ATOM     35 BR   UNL     1       1.884  -6.149  24.119  0.00  0.00    -0.050 Br
ATOM     36  C   UNL     1       4.670  -6.336  23.559  0.00  0.00    +0.015 A 
ATOM     37  C   UNL     1       5.950  -5.833  23.310  0.00  0.00    +0.005 A 
ENDBRANCH  30  31
ENDBRANCH   1  30
TORSDOF 8
ENDMDL
MODEL 4
REMARK VINA RESULT:      -6.9      3.205      4.424
REMARK  Name = 
REMARK  8 active torsions:
REMARK  status: ('A' for Active; 'I' for Inactive)
REMARK    1  A    between atoms: O_1  and  O_2
REMARK    2  A    between atoms: O_2  and  C_3
REMARK    3  A    between atoms: C_3  and  C_4
REMARK    4  A    between atoms: C_4  and  C_5
REMARK    5  A    between atoms: C_14  and  C_16
REMARK    6  A    between atoms: C_16  and  C_17
REMARK    7  A    between atoms: C_24  and  C_29
REMARK    8  A    between atoms: C_32  and  O_33
REMARK                            x       y       z     vdW  Elec       q    Type
REMARK                         _______ _______ _______ _____ _____    ______ ____
ROOT
ATOM      1  C   UNL     1       8.812  -3.635  24.260  0.00  0.00    +0.381 C 
ATOM      2  C   UNL     1       9.813  -2.543  23.820  0.00  0.00    +0.391 C 
ATOM      3  O   UNL     1      10.703  -2.642  22.985  0.00  0.00    -0.239 OA
ATOM      4  N   UNL     1       9.448  -1.427  24.515  0.00  0.00    -0.123 N 
ATOM      5  C   UNL     1       8.506  -1.771  25.425  0.00  0.00    +0.320 C 
ATOM      6  C   UNL     1       8.081  -0.685  26.421  0.00  0.00    +0.192 C 
ATOM      7  N   UNL     1       8.178   0.642  25.773  0.00  0.00    -0.327 N 
ATOM      8  H   UNL     1       7.945   1.435  26.365  0.00  0.00    +0.147 HD
ATOM      9  C   UNL     1       9.200   0.889  24.857  0.00  0.00    +0.073 C 
ATOM     10  C   UNL     1       9.846  -0.136  24.263  0.00  0.00    +0.223 C 
ATOM     11  N   UNL     1       8.097  -3.002  25.420  0.00  0.00    -0.033 NA
ENDROOT
BRANCH   9  12
ATOM     12  C   UNL     1       9.462   2.293  24.463  0.00  0.00    -0.001 A 
ATOM     13  C   UNL     1       8.613   3.341  24.854  0.00  0.00    +0.013 A 
ATOM     14  C   UNL     1       8.913   4.664  24.512  0.00  0.00    +0.046 A 
ATOM     15  C   UNL     1      10.051   4.951  23.772  0.00  0.00    +0.117 A 
ATOM     16  C   UNL     1      10.899   3.932  23.360  0.00  0.00    +0.046 A 
ATOM     17  C   UNL     1      10.605   2.609  23.708  0.00  0.00    +0.013 A 
BRANCH  15  18
ATOM     18  O   UNL     1      10.306   6.256  23.476  0.00  0.00    -0.507 OA
ATOM     19  H   UNL     1       9.859   6.818  24.131  0.00  0.00    +0.292 HD
ENDBRANCH  15  18
ENDBRANCH   9  12
BRANCH   1  20
ATOM     20  O   UNL     1       9.464  -4.883  24.492  0.00  0.00    -0.169 OA
BRANCH  20  21
ATOM     21  O   UNL     1       9.263  -5.219  25.898  0.00  0.00    -0.245 OA
ATOM     22  H   UNL     1       9.874  -4.546  26.249  0.00  0.00    +0.253 HD
ENDBRANCH  20  21
ENDBRANCH   1  20
BRANCH   6  23
ATOM     23  C   UNL     1       6.719  -0.929  27.090  0.00  0.00    +0.069 C 
BRANCH  23  24
ATOM     24  C   UNL     1       5.875   0.277  27.440  0.00  0.00    -0.045 A 
ATOM     25  C   UNL     1       4.794   0.694  26.653  0.00  0.00    +0.004 A 
ATOM     26  C   UNL     1       3.983   1.753  27.062  0.00  0.00    +0.000 A 
ATOM     27  C   UNL     1       4.261   2.431  28.245  0.00  0.00    +0.000 A 
ATOM     28  C   UNL     1       5.370   2.071  29.005  0.00  0.00    +0.000 A 
ATOM     29  C   UNL     1       6.178   1.006  28.602  0.00  0.00    +0.004 A 
ENDBRANCH  23  24
ENDBRANCH   6  23
BRANCH   1  30
ATOM     30  C   UNL     1       7.858  -3.806  23.042  0.00  0.00    +0.138 C 
BRANCH  30  31
ATOM     31  C   UNL     1       6.467  -4.378  23.242  0.00  0.00    -0.040 A 
ATOM     32  C   UNL     1       6.297  -5.775  23.263  0.00  0.00    +0.005 A 
ATOM     33  C   UNL     1       5.025  -6.347  23.361  0.00  0.00    +0.015 A 
ATOM     34  C   UNL     1       3.904  -5.525  23.429  0.00  0.00    +0.018 A 
ATOM     35 BR   UNL     1       2.178  -6.288  23.539  0.00  0.00    -0.050 Br
ATOM     36  C   UNL     1       4.047  -4.143  23.403  0.00  0.00    +0.015 A 
ATOM     37  C   UNL     1       5.321  -3.574  23.304  0.00  0.00    +0.005 A 
ENDBRANCH  30  31
ENDBRANCH   1  30
TORSDOF 8
ENDMDL
MODEL 5
REMARK VINA RESULT:      -6.9      4.552      8.432
REMARK  Name = 
REMARK  8 active torsions:
REMARK  status: ('A' for Active; 'I' for Inactive)
REMARK    1  A    between atoms: O_1  and  O_2
REMARK    2  A    between atoms: O_2  and  C_3
REMARK    3  A    between atoms: C_3  and  C_4
REMARK    4  A    between atoms: C_4  and  C_5
REMARK    5  A    between atoms: C_14  and  C_16
REMARK    6  A    between atoms: C_16  and  C_17
REMARK    7  A    between atoms: C_24  and  C_29
REMARK    8  A    between atoms: C_32  and  O_33
REMARK                            x       y       z     vdW  Elec       q    Type
REMARK                         _______ _______ _______ _____ _____    ______ ____
ROOT
ATOM      1  C   UNL     1       5.755   1.363  26.832  0.00  0.00    +0.381 C 
ATOM      2  C   UNL     1       4.948   0.101  26.453  0.00  0.00    +0.391 C 
ATOM      3  O   UNL     1       3.736  -0.057  26.523  0.00  0.00    -0.239 OA
ATOM      4  N   UNL     1       5.871  -0.774  25.960  0.00  0.00    -0.123 N 
ATOM      5  C   UNL     1       7.109  -0.268  26.178  0.00  0.00    +0.320 C 
ATOM      6  C   UNL     1       8.295  -1.180  25.842  0.00  0.00    +0.192 C 
ATOM      7  N   UNL     1       7.934  -2.059  24.707  0.00  0.00    -0.327 N 
ATOM      8  H   UNL     1       8.648  -2.727  24.428  0.00  0.00    +0.147 HD
ATOM      9  C   UNL     1       6.627  -2.533  24.591  0.00  0.00    +0.073 C 
ATOM     10  C   UNL     1       5.617  -1.914  25.237  0.00  0.00    +0.223 C 
ATOM     11  N   UNL     1       7.182   0.912  26.712  0.00  0.00    -0.033 NA
ENDROOT
BRANCH   9  12
ATOM     12  C   UNL     1       6.368  -3.642  23.642  0.00  0.00    -0.001 A 
ATOM     13  C   UNL     1       5.128  -4.298  23.593  0.00  0.00    +0.013 A 
ATOM     14  C   UNL     1       4.895  -5.307  22.652  0.00  0.00    +0.046 A 
ATOM     15  C   UNL     1       5.895  -5.674  21.763  0.00  0.00    +0.117 A 
ATOM     16  C   UNL     1       7.134  -5.052  21.800  0.00  0.00    +0.046 A 
ATOM     17  C   UNL     1       7.367  -4.038  22.736  0.00  0.00    +0.013 A 
BRANCH  15  18
ATOM     18  O   UNL     1       5.613  -6.652  20.857  0.00  0.00    -0.507 OA
ATOM     19  H   UNL     1       5.957  -7.497  21.191  0.00  0.00    +0.292 HD
ENDBRANCH  15  18
ENDBRANCH   9  12
BRANCH   1  20
ATOM     20  O   UNL     1       5.338   1.896  28.090  0.00  0.00    -0.169 OA
BRANCH  20  21
ATOM     21  O   UNL     1       5.245   0.777  29.022  0.00  0.00    -0.245 OA
ATOM     22  H   UNL     1       5.518   0.094  28.384  0.00  0.00    +0.253 HD
ENDBRANCH  20  21
ENDBRANCH   1  20
BRANCH   6  23
ATOM     23  C   UNL     1       9.627  -0.444  25.632  0.00  0.00    +0.069 C 
BRANCH  23  24
ATOM     24  C   UNL     1       9.829   0.298  24.328  0.00  0.00    -0.045 A 
ATOM     25  C   UNL     1       9.614  -0.299  23.081  0.00  0.00    +0.004 A 
ATOM     26  C   UNL     1       9.719   0.447  21.907  0.00  0.00    +0.000 A 
ATOM     27  C   UNL     1      10.074   1.791  21.962  0.00  0.00    +0.000 A 
ATOM     28  C   UNL     1      10.355   2.384  23.189  0.00  0.00    +0.000 A 
ATOM     29  C   UNL     1      10.242   1.640  24.366  0.00  0.00    +0.004 A 
ENDBRANCH  23  24
ENDBRANCH   6  23
BRANCH   1  30
ATOM     30  C   UNL     1       5.402   2.402  25.726  0.00  0.00    +0.138 C 
BRANCH  30  31
ATOM     31  C   UNL     1       6.482   3.307  25.163  0.00  0.00    -0.040 A 
ATOM     32  C   UNL     1       7.340   3.982  26.050  0.00  0.00    +0.005 A 
ATOM     33  C   UNL     1       8.295   4.890  25.582  0.00  0.00    +0.015 A 
ATOM     34  C   UNL     1       8.394   5.140  24.216  0.00  0.00    +0.018 A 
ATOM     35 BR   UNL     1       9.666   6.382  23.573  0.00  0.00    -0.050 Br
ATOM     36  C   UNL     1       7.552   4.489  23.322  0.00  0.00    +0.015 A 
ATOM     37  C   UNL     1       6.599   3.583  23.795  0.00  0.00    +0.005 A 
ENDBRANCH  30  31
ENDBRANCH   1  30
TORSDOF 8
ENDMDL
MODEL 6
REMARK VINA RESULT:      -6.6      2.751      3.659
REMARK  Name = 
REMARK  8 active torsions:
REMARK  status: ('A' for Active; 'I' for Inactive)
REMARK    1  A    between atoms: O_1  and  O_2
REMARK    2  A    between atoms: O_2  and  C_3
REMARK    3  A    between atoms: C_3  and  C_4
REMARK    4  A    between atoms: C_4  and  C_5
REMARK    5  A    between atoms: C_14  and  C_16
REMARK    6  A    between atoms: C_16  and  C_17
REMARK    7  A    between atoms: C_24  and  C_29
REMARK    8  A    between atoms: C_32  and  O_33
REMARK                            x       y       z     vdW  Elec       q    Type
REMARK                         _______ _______ _______ _____ _____    ______ ____
ROOT
ATOM      1  C   UNL     1       7.119  -4.682  25.595  0.00  0.00    +0.381 C 
ATOM      2  C   UNL     1       8.461  -3.959  25.344  0.00  0.00    +0.391 C 
ATOM      3  O   UNL     1       9.511  -4.452  24.954  0.00  0.00    -0.239 OA
ATOM      4  N   UNL     1       8.203  -2.641  25.588  0.00  0.00    -0.123 N 
ATOM      5  C   UNL     1       6.964  -2.533  26.123  0.00  0.00    +0.320 C 
ATOM      6  C   UNL     1       6.547  -1.144  26.621  0.00  0.00    +0.192 C 
ATOM      7  N   UNL     1       7.197  -0.107  25.787  0.00  0.00    -0.327 N 
ATOM      8  H   UNL     1       7.007   0.854  26.059  0.00  0.00    +0.147 HD
ATOM      9  C   UNL     1       8.486  -0.322  25.300  0.00  0.00    +0.073 C 
ATOM     10  C   UNL     1       8.990  -1.572  25.233  0.00  0.00    +0.223 C 
ATOM     11  N   UNL     1       6.265  -3.621  26.229  0.00  0.00    -0.033 NA
ENDROOT
BRANCH   9  12
ATOM     12  C   UNL     1       9.224   0.835  24.742  0.00  0.00    -0.001 A 
ATOM     13  C   UNL     1      10.549   0.720  24.292  0.00  0.00    +0.013 A 
ATOM     14  C   UNL     1      11.203   1.817  23.721  0.00  0.00    +0.046 A 
ATOM     15  C   UNL     1      10.549   3.035  23.605  0.00  0.00    +0.117 A 
ATOM     16  C   UNL     1       9.245   3.180  24.056  0.00  0.00    +0.046 A 
ATOM     17  C   UNL     1       8.586   2.082  24.620  0.00  0.00    +0.013 A 
BRANCH  15  18
ATOM     18  O   UNL     1      11.226   4.068  23.029  0.00  0.00    -0.507 OA
ATOM     19  H   UNL     1      10.627   4.533  22.422  0.00  0.00    +0.292 HD
ENDBRANCH  15  18
ENDBRANCH   9  12
BRANCH   1  20
ATOM     20  O   UNL     1       7.304  -5.897  26.322  0.00  0.00    -0.169 OA
BRANCH  20  21
ATOM     21  O   UNL     1       8.231  -5.610  27.412  0.00  0.00    -0.245 OA
ATOM     22  H   UNL     1       8.833  -6.354  27.228  0.00  0.00    +0.253 HD
ENDBRANCH  20  21
ENDBRANCH   1  20
BRANCH   6  23
ATOM     23  C   UNL     1       5.030  -0.942  26.756  0.00  0.00    +0.069 C 
BRANCH  23  24
ATOM     24  C   UNL     1       4.387  -1.261  28.088  0.00  0.00    -0.045 A 
ATOM     25  C   UNL     1       4.446  -0.386  29.181  0.00  0.00    +0.004 A 
ATOM     26  C   UNL     1       3.760  -0.675  30.360  0.00  0.00    +0.000 A 
ATOM     27  C   UNL     1       3.035  -1.858  30.477  0.00  0.00    +0.000 A 
ATOM     28  C   UNL     1       3.022  -2.768  29.425  0.00  0.00    +0.000 A 
ATOM     29  C   UNL     1       3.700  -2.477  28.240  0.00  0.00    +0.004 A 
ENDBRANCH  23  24
ENDBRANCH   6  23
BRANCH   1  30
ATOM     30  C   UNL     1       6.597  -5.045  24.173  0.00  0.00    +0.138 C 
BRANCH  30  31
ATOM     31  C   UNL     1       5.178  -5.552  23.992  0.00  0.00    -0.040 A 
ATOM     32  C   UNL     1       4.207  -4.690  23.452  0.00  0.00    +0.005 A 
ATOM     33  C   UNL     1       2.870  -5.085  23.343  0.00  0.00    +0.015 A 
ATOM     34  C   UNL     1       2.487  -6.348  23.786  0.00  0.00    +0.018 A 
ATOM     35 BR   UNL     1       0.679  -6.884  23.666  0.00  0.00    -0.050 Br
ATOM     36  C   UNL     1       3.429  -7.214  24.330  0.00  0.00    +0.015 A 
ATOM     37  C   UNL     1       4.764  -6.815  24.437  0.00  0.00    +0.005 A 
ENDBRANCH  30  31
ENDBRANCH   1  30
TORSDOF 8
ENDMDL
MODEL 7
REMARK VINA RESULT:      -6.6      4.140      6.178
REMARK  Name = 
REMARK  8 active torsions:
REMARK  status: ('A' for Active; 'I' for Inactive)
REMARK    1  A    between atoms: O_1  and  O_2
REMARK    2  A    between atoms: O_2  and  C_3
REMARK    3  A    between atoms: C_3  and  C_4
REMARK    4  A    between atoms: C_4  and  C_5
REMARK    5  A    between atoms: C_14  and  C_16
REMARK    6  A    between atoms: C_16  and  C_17
REMARK    7  A    between atoms: C_24  and  C_29
REMARK    8  A    between atoms: C_32  and  O_33
REMARK                            x       y       z     vdW  Elec       q    Type
REMARK                         _______ _______ _______ _____ _____    ______ ____
ROOT
ATOM      1  C   UNL     1       4.738   1.400  26.199  0.00  0.00    +0.381 C 
ATOM      2  C   UNL     1       5.485   2.751  26.281  0.00  0.00    +0.391 C 
ATOM      3  O   UNL     1       5.373   3.611  27.145  0.00  0.00    -0.239 OA
ATOM      4  N   UNL     1       6.343   2.745  25.221  0.00  0.00    -0.123 N 
ATOM      5  C   UNL     1       6.062   1.675  24.440  0.00  0.00    +0.320 C 
ATOM      6  C   UNL     1       6.811   1.580  23.105  0.00  0.00    +0.192 C 
ATOM      7  N   UNL     1       8.154   2.184  23.251  0.00  0.00    -0.327 N 
ATOM      8  H   UNL     1       8.721   2.198  22.407  0.00  0.00    +0.147 HD
ATOM      9  C   UNL     1       8.324   3.296  24.075  0.00  0.00    +0.073 C 
ATOM     10  C   UNL     1       7.411   3.587  25.025  0.00  0.00    +0.223 C 
ATOM     11  N   UNL     1       5.138   0.863  24.855  0.00  0.00    -0.033 NA
ENDROOT
BRANCH   9  12
ATOM     12  C   UNL     1       9.589   4.061  23.965  0.00  0.00    -0.001 A 
ATOM     13  C   UNL     1      10.765   3.478  23.466  0.00  0.00    +0.013 A 
ATOM     14  C   UNL     1      11.930   4.239  23.325  0.00  0.00    +0.046 A 
ATOM     15  C   UNL     1      11.935   5.579  23.686  0.00  0.00    +0.117 A 
ATOM     16  C   UNL     1      10.790   6.175  24.196  0.00  0.00    +0.046 A 
ATOM     17  C   UNL     1       9.622   5.418  24.332  0.00  0.00    +0.013 A 
BRANCH  15  18
ATOM     18  O   UNL     1      13.091   6.280  23.515  0.00  0.00    -0.507 OA
ATOM     19  H   UNL     1      12.923   7.214  23.721  0.00  0.00    +0.292 HD
ENDBRANCH  15  18
ENDBRANCH   9  12
BRANCH   1  20
ATOM     20  O   UNL     1       3.342   1.555  26.455  0.00  0.00    -0.169 OA
BRANCH  20  21
ATOM     21  O   UNL     1       2.889   2.713  25.692  0.00  0.00    -0.245 OA
ATOM     22  H   UNL     1       3.722   2.841  25.203  0.00  0.00    +0.253 HD
ENDBRANCH  20  21
ENDBRANCH   1  20
BRANCH   6  23
ATOM     23  C   UNL     1       6.849   0.171  22.493  0.00  0.00    +0.069 C 
BRANCH  23  24
ATOM     24  C   UNL     1       7.958  -0.762  22.929  0.00  0.00    -0.045 A 
ATOM     25  C   UNL     1       9.180  -0.297  23.428  0.00  0.00    +0.004 A 
ATOM     26  C   UNL     1      10.139  -1.189  23.909  0.00  0.00    +0.000 A 
ATOM     27  C   UNL     1       9.903  -2.560  23.865  0.00  0.00    +0.000 A 
ATOM     28  C   UNL     1       8.721  -3.042  23.311  0.00  0.00    +0.000 A 
ATOM     29  C   UNL     1       7.757  -2.149  22.838  0.00  0.00    +0.004 A 
ENDBRANCH  23  24
ENDBRANCH   6  23
BRANCH   1  30
ATOM     30  C   UNL     1       5.348   0.544  27.348  0.00  0.00    +0.138 C 
BRANCH  30  31
ATOM     31  C   UNL     1       5.976  -0.803  27.039  0.00  0.00    -0.040 A 
ATOM     32  C   UNL     1       5.170  -1.956  27.065  0.00  0.00    +0.005 A 
ATOM     33  C   UNL     1       5.719  -3.227  26.869  0.00  0.00    +0.015 A 
ATOM     34  C   UNL     1       7.088  -3.358  26.654  0.00  0.00    +0.018 A 
ATOM     35 BR   UNL     1       7.846  -5.073  26.411  0.00  0.00    -0.050 Br
ATOM     36  C   UNL     1       7.905  -2.234  26.631  0.00  0.00    +0.015 A 
ATOM     37  C   UNL     1       7.351  -0.965  26.828  0.00  0.00    +0.005 A 
ENDBRANCH  30  31
ENDBRANCH   1  30
TORSDOF 8
ENDMDL
MODEL 8
REMARK VINA RESULT:      -6.6      4.501      8.704
REMARK  Name = 
REMARK  8 active torsions:
REMARK  status: ('A' for Active; 'I' for Inactive)
REMARK    1  A    between atoms: O_1  and  O_2
REMARK    2  A    between atoms: O_2  and  C_3
REMARK    3  A    between atoms: C_3  and  C_4
REMARK    4  A    between atoms: C_4  and  C_5
REMARK    5  A    between atoms: C_14  and  C_16
REMARK    6  A    between atoms: C_16  and  C_17
REMARK    7  A    between atoms: C_24  and  C_29
REMARK    8  A    between atoms: C_32  and  O_33
REMARK                            x       y       z     vdW  Elec       q    Type
REMARK                         _______ _______ _______ _____ _____    ______ ____
ROOT
ATOM      1  C   UNL     1       6.911   1.074  27.216  0.00  0.00    +0.381 C 
ATOM      2  C   UNL     1       6.095  -0.184  27.591  0.00  0.00    +0.391 C 
ATOM      3  O   UNL     1       5.137  -0.250  28.350  0.00  0.00    -0.239 OA
ATOM      4  N   UNL     1       6.631  -1.190  26.842  0.00  0.00    -0.123 N 
ATOM      5  C   UNL     1       7.754  -0.731  26.238  0.00  0.00    +0.320 C 
ATOM      6  C   UNL     1       8.598  -1.761  25.478  0.00  0.00    +0.192 C 
ATOM      7  N   UNL     1       7.711  -2.809  24.921  0.00  0.00    -0.327 N 
ATOM      8  H   UNL     1       8.182  -3.560  24.423  0.00  0.00    +0.147 HD
ATOM      9  C   UNL     1       6.587  -3.213  25.640  0.00  0.00    +0.073 C 
ATOM     10  C   UNL     1       6.076  -2.425  26.609  0.00  0.00    +0.223 C 
ATOM     11  N   UNL     1       8.052   0.519  26.410  0.00  0.00    -0.033 NA
ENDROOT
BRANCH   9  12
ATOM     12  C   UNL     1       5.901  -4.459  25.221  0.00  0.00    -0.001 A 
ATOM     13  C   UNL     1       5.619  -5.489  26.132  0.00  0.00    +0.013 A 
ATOM     14  C   UNL     1       4.924  -6.631  25.719  0.00  0.00    +0.046 A 
ATOM     15  C   UNL     1       4.515  -6.759  24.400  0.00  0.00    +0.117 A 
ATOM     16  C   UNL     1       4.794  -5.761  23.476  0.00  0.00    +0.046 A 
ATOM     17  C   UNL     1       5.483  -4.615  23.888  0.00  0.00    +0.013 A 
BRANCH  15  18
ATOM     18  O   UNL     1       3.829  -7.883  24.052  0.00  0.00    -0.507 OA
ATOM     19  H   UNL     1       4.278  -8.655  24.434  0.00  0.00    +0.292 HD
ENDBRANCH  15  18
ENDBRANCH   9  12
BRANCH   1  20
ATOM     20  O   UNL     1       7.237   1.852  28.367  0.00  0.00    -0.169 OA
BRANCH  20  21
ATOM     21  O   UNL     1       7.953   0.977  29.290  0.00  0.00    -0.245 OA
ATOM     22  H   UNL     1       7.965   1.607  30.033  0.00  0.00    +0.253 HD
ENDBRANCH  20  21
ENDBRANCH   1  20
BRANCH   6  23
ATOM     23  C   UNL     1       9.549  -1.161  24.430  0.00  0.00    +0.069 C 
BRANCH  23  24
ATOM     24  C   UNL     1       9.006  -0.087  23.513  0.00  0.00    -0.045 A 
ATOM     25  C   UNL     1       7.693  -0.106  23.026  0.00  0.00    +0.004 A 
ATOM     26  C   UNL     1       7.203   0.953  22.260  0.00  0.00    +0.000 A 
ATOM     27  C   UNL     1       8.029   2.027  21.942  0.00  0.00    +0.000 A 
ATOM     28  C   UNL     1       9.355   2.029  22.362  0.00  0.00    +0.000 A 
ATOM     29  C   UNL     1       9.845   0.975  23.136  0.00  0.00    +0.004 A 
ENDBRANCH  23  24
ENDBRANCH   6  23
BRANCH   1  30
ATOM     30  C   UNL     1       5.951   1.912  26.321  0.00  0.00    +0.138 C 
BRANCH  30  31
ATOM     31  C   UNL     1       6.509   2.994  25.415  0.00  0.00    -0.040 A 
ATOM     32  C   UNL     1       7.830   3.437  25.611  0.00  0.00    +0.005 A 
ATOM     33  C   UNL     1       8.360   4.488  24.857  0.00  0.00    +0.015 A 
ATOM     34  C   UNL     1       7.566   5.117  23.901  0.00  0.00    +0.018 A 
ATOM     35 BR   UNL     1       8.265   6.554  22.891  0.00  0.00    -0.050 Br
ATOM     36  C   UNL     1       6.257   4.701  23.695  0.00  0.00    +0.015 A 
ATOM     37  C   UNL     1       5.731   3.650  24.452  0.00  0.00    +0.005 A 
ENDBRANCH  30  31
ENDBRANCH   1  30
TORSDOF 8
ENDMDL
MODEL 9
REMARK VINA RESULT:      -6.3      3.975      7.029
REMARK  Name = 
REMARK  8 active torsions:
REMARK  status: ('A' for Active; 'I' for Inactive)
REMARK    1  A    between atoms: O_1  and  O_2
REMARK    2  A    between atoms: O_2  and  C_3
REMARK    3  A    between atoms: C_3  and  C_4
REMARK    4  A    between atoms: C_4  and  C_5
REMARK    5  A    between atoms: C_14  and  C_16
REMARK    6  A    between atoms: C_16  and  C_17
REMARK    7  A    between atoms: C_24  and  C_29
REMARK    8  A    between atoms: C_32  and  O_33
REMARK                            x       y       z     vdW  Elec       q    Type
REMARK                         _______ _______ _______ _____ _____    ______ ____
ROOT
ATOM      1  C   UNL     1       8.758  -1.299  23.755  0.00  0.00    +0.381 C 
ATOM      2  C   UNL     1       7.384  -0.789  23.265  0.00  0.00    +0.391 C 
ATOM      3  O   UNL     1       6.322  -1.399  23.261  0.00  0.00    -0.239 OA
ATOM      4  N   UNL     1       7.597   0.508  22.900  0.00  0.00    -0.123 N 
ATOM      5  C   UNL     1       8.928   0.755  22.932  0.00  0.00    +0.320 C 
ATOM      6  C   UNL     1       9.389   2.116  22.395  0.00  0.00    +0.192 C 
ATOM      7  N   UNL     1       8.340   3.127  22.653  0.00  0.00    -0.327 N 
ATOM      8  H   UNL     1       8.539   4.061  22.304  0.00  0.00    +0.147 HD
ATOM      9  C   UNL     1       6.996   2.761  22.579  0.00  0.00    +0.073 C 
ATOM     10  C   UNL     1       6.637   1.464  22.669  0.00  0.00    +0.223 C 
ATOM     11  N   UNL     1       9.700  -0.201  23.348  0.00  0.00    -0.033 NA
ENDROOT
BRANCH   9  12
ATOM     12  C   UNL     1       5.980   3.839  22.531  0.00  0.00    -0.001 A 
ATOM     13  C   UNL     1       4.606   3.557  22.467  0.00  0.00    +0.013 A 
ATOM     14  C   UNL     1       3.667   4.593  22.476  0.00  0.00    +0.046 A 
ATOM     15  C   UNL     1       4.088   5.914  22.539  0.00  0.00    +0.117 A 
ATOM     16  C   UNL     1       5.441   6.220  22.587  0.00  0.00    +0.046 A 
ATOM     17  C   UNL     1       6.381   5.185  22.586  0.00  0.00    +0.013 A 
BRANCH  15  18
ATOM     18  O   UNL     1       3.133   6.886  22.559  0.00  0.00    -0.507 OA
ATOM     19  H   UNL     1       2.486   6.674  23.252  0.00  0.00    +0.292 HD
ENDBRANCH  15  18
ENDBRANCH   9  12
BRANCH   1  20
ATOM     20  O   UNL     1       9.035  -2.613  23.272  0.00  0.00    -0.169 OA
BRANCH  20  21
ATOM     21  O   UNL     1      10.484  -2.782  23.287  0.00  0.00    -0.245 OA
ATOM     22  H   UNL     1      10.603  -2.702  22.324  0.00  0.00    +0.253 HD
ENDBRANCH  20  21
ENDBRANCH   1  20
BRANCH   6  23
ATOM     23  C   UNL     1      10.780   2.556  22.880  0.00  0.00    +0.069 C 
BRANCH  23  24
ATOM     24  C   UNL     1      10.928   3.958  23.428  0.00  0.00    -0.045 A 
ATOM     25  C   UNL     1       9.880   4.631  24.068  0.00  0.00    +0.004 A 
ATOM     26  C   UNL     1      10.087   5.885  24.643  0.00  0.00    +0.000 A 
ATOM     27  C   UNL     1      11.333   6.499  24.557  0.00  0.00    +0.000 A 
ATOM     28  C   UNL     1      12.366   5.872  23.867  0.00  0.00    +0.000 A 
ATOM     29  C   UNL     1      12.164   4.613  23.298  0.00  0.00    +0.004 A 
ENDBRANCH  23  24
ENDBRANCH   6  23
BRANCH   1  30
ATOM     30  C   UNL     1       8.620  -1.371  25.304  0.00  0.00    +0.138 C 
BRANCH  30  31
ATOM     31  C   UNL     1       7.948  -2.568  25.951  0.00  0.00    -0.040 A 
ATOM     32  C   UNL     1       6.639  -2.433  26.448  0.00  0.00    +0.005 A 
ATOM     33  C   UNL     1       6.011  -3.482  27.126  0.00  0.00    +0.015 A 
ATOM     34  C   UNL     1       6.693  -4.680  27.322  0.00  0.00    +0.018 A 
ATOM     35 BR   UNL     1       5.862  -6.097  28.257  0.00  0.00    -0.050 Br
ATOM     36  C   UNL     1       7.989  -4.834  26.846  0.00  0.00    +0.015 A 
ATOM     37  C   UNL     1       8.614  -3.782  26.170  0.00  0.00    +0.005 A 
ENDBRANCH  30  31
ENDBRANCH   1  30
TORSDOF 8
ENDMDL
