MODEL 1
REMARK VINA RESULT:      -6.3      0.000      0.000
REMARK  Name = 
REMARK  32 active torsions:
REMARK  status: ('A' for Active; 'I' for Inactive)
REMARK    1  A    between atoms: C_1  and  C_2
REMARK    2  A    between atoms: C_2  and  C_3
REMARK    3  A    between atoms: C_2  and  C_4
REMARK    4  A    between atoms: C_2  and  C_40
REMARK    5  A    between atoms: C_4  and  O_5
REMARK    6  A    between atoms: O_5  and  P_6
REMARK    7  A    between atoms: P_6  and  O_7
REMARK    8  A    between atoms: P_6  and  O_9
REMARK    9  A    between atoms: O_9  and  P_10
REMARK   10  A    between atoms: P_10  and  O_11
REMARK   11  A    between atoms: P_10  and  O_13
REMARK   12  A    between atoms: O_13  and  C_14
REMARK   13  A    between atoms: C_14  and  C_15
REMARK   14  A    between atoms: C_18  and  N_30
REMARK   15  A    between atoms: C_20  and  O_22
REMARK   16  A    between atoms: C_23  and  O_25
REMARK   17  A    between atoms: O_25  and  P_26
REMARK   18  A    between atoms: P_26  and  O_27
REMARK   19  A    between atoms: P_26  and  O_28
REMARK   20  A    between atoms: C_40  and  O_42
REMARK   21  A    between atoms: C_40  and  C_43
REMARK   22  A    between atoms: N_45  and  C_46
REMARK   23  A    between atoms: C_46  and  C_47
REMARK   24  A    between atoms: C_47  and  C_48
REMARK   25  A    between atoms: N_50  and  C_51
REMARK   26  A    between atoms: C_51  and  C_52
REMARK   27  A    between atoms: C_52  and  S_53
REMARK   28  A    between atoms: S_53  and  C_54
REMARK   29  A    between atoms: C_54  and  C_55
REMARK   30  A    between atoms: N_57  and  C_58
REMARK   31  A    between atoms: C_58  and  C_59
REMARK   32  A    between atoms: C_59  and  C_60
REMARK                            x       y       z     vdW  Elec       q    Type
REMARK                         _______ _______ _______ _____ _____    ______ ____
ROOT
ATOM      1  O   UNL     1       2.861  -5.946  26.037  0.00  0.00    -0.286 OA
ENDROOT
BRANCH   1   2
ATOM      2  P   UNL     1       3.236  -6.493  24.516  0.00  0.00    +0.483 P 
ATOM      3  O   UNL     1       3.749  -7.932  24.696  0.00  0.00    -0.227 OA
BRANCH   2   4
ATOM      4  O   UNL     1       1.643  -7.145  24.346  0.00  0.00    -0.302 OA
ATOM      5  H   UNL     1       1.058  -6.424  24.659  0.00  0.00    +0.222 HD
ENDBRANCH   2   4
BRANCH   2   6
ATOM      6  O   UNL     1       4.830  -5.842  24.686  0.00  0.00    -0.186 OA
BRANCH   6   7
ATOM      7  P   UNL     1       4.488  -4.969  23.250  0.00  0.00    +0.483 P 
ATOM      8  O   UNL     1       3.009  -4.990  22.939  0.00  0.00    -0.227 OA
BRANCH   7   9
ATOM      9  O   UNL     1       5.355  -5.759  22.156  0.00  0.00    -0.302 OA
ATOM     10  H   UNL     1       5.767  -6.581  22.488  0.00  0.00    +0.222 HD
ENDBRANCH   7   9
BRANCH   7  11
ATOM     11  O   UNL     1       5.065  -3.474  22.909  0.00  0.00    -0.284 OA
BRANCH  11  12
ATOM     12  C   UNL     1       6.539  -3.622  22.854  0.00  0.00    +0.206 C 
BRANCH  12  13
ATOM     13  C   UNL     1       7.522  -2.827  23.732  0.00  0.00    +0.179 C 
ATOM     14  C   UNL     1       8.955  -3.092  23.386  0.00  0.00    +0.194 C 
ATOM     15  C   UNL     1       9.476  -1.749  22.856  0.00  0.00    +0.196 C 
ATOM     16  C   UNL     1       8.276  -0.805  22.843  0.00  0.00    +0.253 C 
ATOM     17  O   UNL     1       7.266  -1.411  23.655  0.00  0.00    -0.346 OA
BRANCH  16  18
ATOM     18  N   UNL     1       8.591   0.522  23.355  0.00  0.00    -0.286 N 
ATOM     19  C   UNL     1       7.862   1.665  23.089  0.00  0.00    +0.167 A 
ATOM     20  N   UNL     1       6.830   1.803  22.237  0.00  0.00    -0.216 NA
ATOM     21  C   UNL     1       6.345   3.068  22.295  0.00  0.00    +0.225 A 
ATOM     22  N   UNL     1       6.740   4.093  23.081  0.00  0.00    -0.219 NA
ATOM     23  C   UNL     1       7.791   3.899  23.909  0.00  0.00    +0.147 A 
ATOM     24  N   UNL     1       8.191   4.943  24.738  0.00  0.00    -0.341 N 
ATOM     25  H   UNL     1       8.736   4.630  25.536  0.00  0.00    +0.144 HD
ATOM     26  H   UNL     1       7.442   5.599  24.922  0.00  0.00    +0.144 HD
ATOM     27  C   UNL     1       8.413   2.640  23.911  0.00  0.00    +0.147 A 
ATOM     28  N   UNL     1       9.490   2.142  24.606  0.00  0.00    -0.231 NA
ATOM     29  C   UNL     1       9.586   0.880  24.230  0.00  0.00    +0.203 A 
ENDBRANCH  16  18
BRANCH  15  30
ATOM     30  O   UNL     1      10.027  -1.956  21.556  0.00  0.00    -0.385 OA
ATOM     31  H   UNL     1       9.612  -1.314  20.942  0.00  0.00    +0.210 HD
ENDBRANCH  15  30
BRANCH  14  32
ATOM     32  O   UNL     1       9.741  -3.532  24.538  0.00  0.00    -0.278 OA
BRANCH  32  33
ATOM     33  P   UNL     1       8.720  -4.737  25.242  0.00  0.00    +0.473 P 
ATOM     34  O   UNL     1       7.805  -5.816  25.873  0.00  0.00    -0.228 OA
BRANCH  33  35
ATOM     35  O   UNL     1       9.045  -3.971  26.649  0.00  0.00    -0.303 OA
ATOM     36  H   UNL     1       8.631  -4.516  27.345  0.00  0.00    +0.222 HD
ENDBRANCH  33  35
BRANCH  33  37
ATOM     37  O   UNL     1      10.092  -5.630  25.294  0.00  0.00    -0.303 OA
ATOM     38  H   UNL     1       9.962  -6.528  24.944  0.00  0.00    +0.222 HD
ENDBRANCH  33  37
ENDBRANCH  32  33
ENDBRANCH  14  32
ENDBRANCH  12  13
ENDBRANCH  11  12
ENDBRANCH   7  11
ENDBRANCH   6   7
ENDBRANCH   2   6
ENDBRANCH   1   2
BRANCH   1  39
ATOM     39  C   UNL     1       2.615  -6.957  27.011  0.00  0.00    +0.181 C 
BRANCH  39  41
ATOM     40  C   UNL     1       2.484  -5.247  28.828  0.00  0.00    +0.016 C 
ATOM     41  C   UNL     1       3.124  -6.599  28.425  0.00  0.00    +0.024 C 
ATOM     42  C   UNL     1       2.664  -7.647  29.453  0.00  0.00    +0.016 C 
BRANCH  41  43
ATOM     43  C   UNL     1       4.691  -6.487  28.420  0.00  0.00    +0.208 C 
BRANCH  43  44
ATOM     44  C   UNL     1       5.253  -5.036  28.393  0.00  0.00    +0.242 C 
ATOM     45  N   UNL     1       5.302  -4.458  27.135  0.00  0.00    -0.313 N 
ATOM     46  H   UNL     1       4.654  -4.868  26.466  0.00  0.00    +0.149 HD
ATOM     47  O   UNL     1       5.699  -4.449  29.374  0.00  0.00    -0.273 OA
BRANCH  45  48
ATOM     48  C   UNL     1       5.694  -3.063  27.052  0.00  0.00    +0.113 C 
BRANCH  48  49
ATOM     49  C   UNL     1       4.790  -2.203  26.183  0.00  0.00    +0.114 C 
BRANCH  49  50
ATOM     50  C   UNL     1       4.044  -1.216  27.060  0.00  0.00    +0.215 C 
ATOM     51  N   UNL     1       4.760  -0.777  28.151  0.00  0.00    -0.314 N 
ATOM     52  H   UNL     1       5.756  -0.957  28.197  0.00  0.00    +0.149 HD
ATOM     53  O   UNL     1       2.900  -0.839  26.828  0.00  0.00    -0.276 OA
BRANCH  51  54
ATOM     54  C   UNL     1       4.208   0.246  29.026  0.00  0.00    +0.115 C 
BRANCH  54  55
ATOM     55  C   UNL     1       5.225   1.323  29.396  0.00  0.00    +0.088 C 
BRANCH  55  56
ATOM     56  S   UNL     1       6.843   1.182  28.534  0.00  0.00    -0.150 S 
BRANCH  56  57
ATOM     57  C   UNL     1       6.711   2.500  27.278  0.00  0.00    +0.164 C 
BRANCH  57  58
ATOM     58  C   UNL     1       5.712   2.173  26.179  0.00  0.00    +0.223 C 
ATOM     59  N   UNL     1       4.875   3.211  25.815  0.00  0.00    -0.314 N 
ATOM     60  H   UNL     1       4.780   4.004  26.441  0.00  0.00    +0.149 HD
ATOM     61  O   UNL     1       5.671   1.074  25.630  0.00  0.00    -0.275 OA
BRANCH  59  62
ATOM     62  C   UNL     1       3.793   2.957  24.878  0.00  0.00    +0.109 C 
BRANCH  62  63
ATOM     63  C   UNL     1       2.899   4.173  24.621  0.00  0.00    +0.056 C 
BRANCH  63  64
ATOM     64  C   UNL     1       2.841   4.578  23.179  0.00  0.00    -0.021 A 
ATOM     65  C   UNL     1       2.183   3.878  22.114  0.00  0.00    +0.003 A 
ATOM     66  C   UNL     1       2.385   4.610  20.944  0.00  0.00    +0.047 A 
ATOM     67  C   UNL     1       1.878   4.211  19.702  0.00  0.00    +0.026 A 
ATOM     68  C   UNL     1       1.136   3.027  19.655  0.00  0.00    +0.002 A 
ATOM     69  C   UNL     1       0.912   2.276  20.806  0.00  0.00    +0.001 A 
ATOM     70  N   UNL     1       3.126   5.718  21.281  0.00  0.00    -0.360 N 
ATOM     71  H   UNL     1       3.416   6.433  20.628  0.00  0.00    +0.165 HD
ATOM     72  C   UNL     1       1.429   2.688  22.039  0.00  0.00    +0.010 A 
ATOM     73  C   UNL     1       3.398   5.713  22.622  0.00  0.00    +0.087 A 
ENDBRANCH  63  64
ENDBRANCH  62  63
ENDBRANCH  59  62
ENDBRANCH  57  58
ENDBRANCH  56  57
ENDBRANCH  55  56
ENDBRANCH  54  55
ENDBRANCH  51  54
ENDBRANCH  49  50
ENDBRANCH  48  49
ENDBRANCH  45  48
ENDBRANCH  43  44
BRANCH  43  74
ATOM     74  O   UNL     1       5.272  -7.216  27.326  0.00  0.00    -0.382 OA
ATOM     75  H   UNL     1       5.376  -8.140  27.606  0.00  0.00    +0.210 HD
ENDBRANCH  43  74
ENDBRANCH  41  43
ENDBRANCH  39  41
ENDBRANCH   1  39
TORSDOF 30
ENDMDL
MODEL 2
REMARK VINA RESULT:      -6.0      2.397      3.513
REMARK  Name = 
REMARK  32 active torsions:
REMARK  status: ('A' for Active; 'I' for Inactive)
REMARK    1  A    between atoms: C_1  and  C_2
REMARK    2  A    between atoms: C_2  and  C_3
REMARK    3  A    between atoms: C_2  and  C_4
REMARK    4  A    between atoms: C_2  and  C_40
REMARK    5  A    between atoms: C_4  and  O_5
REMARK    6  A    between atoms: O_5  and  P_6
REMARK    7  A    between atoms: P_6  and  O_7
REMARK    8  A    between atoms: P_6  and  O_9
REMARK    9  A    between atoms: O_9  and  P_10
REMARK   10  A    between atoms: P_10  and  O_11
REMARK   11  A    between atoms: P_10  and  O_13
REMARK   12  A    between atoms: O_13  and  C_14
REMARK   13  A    between atoms: C_14  and  C_15
REMARK   14  A    between atoms: C_18  and  N_30
REMARK   15  A    between atoms: C_20  and  O_22
REMARK   16  A    between atoms: C_23  and  O_25
REMARK   17  A    between atoms: O_25  and  P_26
REMARK   18  A    between atoms: P_26  and  O_27
REMARK   19  A    between atoms: P_26  and  O_28
REMARK   20  A    between atoms: C_40  and  O_42
REMARK   21  A    between atoms: C_40  and  C_43
REMARK   22  A    between atoms: N_45  and  C_46
REMARK   23  A    between atoms: C_46  and  C_47
REMARK   24  A    between atoms: C_47  and  C_48
REMARK   25  A    between atoms: N_50  and  C_51
REMARK   26  A    between atoms: C_51  and  C_52
REMARK   27  A    between atoms: C_52  and  S_53
REMARK   28  A    between atoms: S_53  and  C_54
REMARK   29  A    between atoms: C_54  and  C_55
REMARK   30  A    between atoms: N_57  and  C_58
REMARK   31  A    between atoms: C_58  and  C_59
REMARK   32  A    between atoms: C_59  and  C_60
REMARK                            x       y       z     vdW  Elec       q    Type
REMARK                         _______ _______ _______ _____ _____    ______ ____
ROOT
ATOM      1  O   UNL     1       1.710  -6.587  25.777  0.00  0.00    -0.286 OA
ENDROOT
BRANCH   1   2
ATOM      2  P   UNL     1       2.339  -7.165  24.354  0.00  0.00    +0.483 P 
ATOM      3  O   UNL     1       2.681  -8.642  24.611  0.00  0.00    -0.227 OA
BRANCH   2   4
ATOM      4  O   UNL     1       0.764  -7.677  23.853  0.00  0.00    -0.302 OA
ATOM      5  H   UNL     1       0.190  -6.912  24.063  0.00  0.00    +0.222 HD
ENDBRANCH   2   4
BRANCH   2   6
ATOM      6  O   UNL     1       3.914  -6.653  24.855  0.00  0.00    -0.186 OA
BRANCH   6   7
ATOM      7  P   UNL     1       3.976  -5.813  23.362  0.00  0.00    +0.483 P 
ATOM      8  O   UNL     1       2.670  -5.938  22.611  0.00  0.00    -0.227 OA
BRANCH   7   9
ATOM      9  O   UNL     1       5.188  -6.546  22.608  0.00  0.00    -0.302 OA
ATOM     10  H   UNL     1       5.579  -6.027  21.879  0.00  0.00    +0.222 HD
ENDBRANCH   7   9
BRANCH   7  11
ATOM     11  O   UNL     1       4.532  -4.283  23.176  0.00  0.00    -0.284 OA
BRANCH  11  12
ATOM     12  C   UNL     1       5.956  -4.328  23.584  0.00  0.00    +0.206 C 
BRANCH  12  13
ATOM     13  C   UNL     1       6.612  -3.327  24.553  0.00  0.00    +0.179 C 
ATOM     14  C   UNL     1       7.565  -3.980  25.506  0.00  0.00    +0.194 C 
ATOM     15  C   UNL     1       8.937  -3.403  25.132  0.00  0.00    +0.196 C 
ATOM     16  C   UNL     1       8.704  -2.512  23.914  0.00  0.00    +0.253 C 
ATOM     17  O   UNL     1       7.294  -2.278  23.839  0.00  0.00    -0.346 OA
BRANCH  16  18
ATOM     18  N   UNL     1       9.413  -1.242  23.996  0.00  0.00    -0.286 N 
ATOM     19  C   UNL     1       9.421  -0.277  23.007  0.00  0.00    +0.167 A 
ATOM     20  N   UNL     1       8.904  -0.364  21.768  0.00  0.00    -0.216 NA
ATOM     21  C   UNL     1       9.067   0.812  21.112  0.00  0.00    +0.225 A 
ATOM     22  N   UNL     1       9.615   1.962  21.558  0.00  0.00    -0.219 NA
ATOM     23  C   UNL     1      10.130   1.987  22.808  0.00  0.00    +0.147 A 
ATOM     24  N   UNL     1      10.676   3.175  23.282  0.00  0.00    -0.341 N 
ATOM     25  H   UNL     1      10.728   3.212  24.296  0.00  0.00    +0.144 HD
ATOM     26  H   UNL     1      10.300   3.989  22.811  0.00  0.00    +0.144 HD
ATOM     27  C   UNL     1      10.063   0.814  23.577  0.00  0.00    +0.147 A 
ATOM     28  N   UNL     1      10.502   0.515  24.846  0.00  0.00    -0.231 NA
ATOM     29  C   UNL     1      10.121  -0.731  25.055  0.00  0.00    +0.203 A 
ENDBRANCH  16  18
BRANCH  15  30
ATOM     30  O   UNL     1       9.827  -4.485  24.859  0.00  0.00    -0.385 OA
ATOM     31  H   UNL     1      10.159  -4.384  23.942  0.00  0.00    +0.210 HD
ENDBRANCH  15  30
BRANCH  14  32
ATOM     32  O   UNL     1       7.248  -3.693  26.904  0.00  0.00    -0.278 OA
BRANCH  32  33
ATOM     33  P   UNL     1       7.017  -5.276  27.562  0.00  0.00    +0.473 P 
ATOM     34  O   UNL     1       6.810  -6.693  28.151  0.00  0.00    -0.228 OA
BRANCH  33  35
ATOM     35  O   UNL     1       8.398  -5.641  26.767  0.00  0.00    -0.303 OA
ATOM     36  H   UNL     1       8.672  -6.515  27.107  0.00  0.00    +0.222 HD
ENDBRANCH  33  35
BRANCH  33  37
ATOM     37  O   UNL     1       6.077  -5.506  26.241  0.00  0.00    -0.303 OA
ATOM     38  H   UNL     1       5.871  -6.445  26.092  0.00  0.00    +0.222 HD
ENDBRANCH  33  37
ENDBRANCH  32  33
ENDBRANCH  14  32
ENDBRANCH  12  13
ENDBRANCH  11  12
ENDBRANCH   7  11
ENDBRANCH   6   7
ENDBRANCH   2   6
ENDBRANCH   1   2
BRANCH   1  39
ATOM     39  C   UNL     1       1.474  -7.564  26.787  0.00  0.00    +0.181 C 
BRANCH  39  41
ATOM     40  C   UNL     1       0.530  -5.876  28.369  0.00  0.00    +0.016 C 
ATOM     41  C   UNL     1       1.576  -7.010  28.226  0.00  0.00    +0.024 C 
ATOM     42  C   UNL     1       1.216  -8.095  29.256  0.00  0.00    +0.016 C 
BRANCH  41  43
ATOM     43  C   UNL     1       3.023  -6.462  28.491  0.00  0.00    +0.208 C 
BRANCH  43  44
ATOM     44  C   UNL     1       3.206  -4.933  28.267  0.00  0.00    +0.242 C 
ATOM     45  N   UNL     1       3.431  -4.564  26.950  0.00  0.00    -0.313 N 
ATOM     46  H   UNL     1       3.093  -5.239  26.268  0.00  0.00    +0.149 HD
ATOM     47  O   UNL     1       3.233  -4.101  29.168  0.00  0.00    -0.273 OA
BRANCH  45  48
ATOM     48  C   UNL     1       3.481  -3.144  26.651  0.00  0.00    +0.113 C 
BRANCH  48  49
ATOM     49  C   UNL     1       2.124  -2.496  26.431  0.00  0.00    +0.114 C 
BRANCH  49  50
ATOM     50  C   UNL     1       2.100  -1.141  27.110  0.00  0.00    +0.215 C 
ATOM     51  N   UNL     1       2.979  -1.022  28.164  0.00  0.00    -0.314 N 
ATOM     52  H   UNL     1       3.699  -1.724  28.292  0.00  0.00    +0.149 HD
ATOM     53  O   UNL     1       1.363  -0.224  26.762  0.00  0.00    -0.276 OA
BRANCH  51  54
ATOM     54  C   UNL     1       3.136   0.252  28.848  0.00  0.00    +0.115 C 
BRANCH  54  55
ATOM     55  C   UNL     1       4.196   1.144  28.207  0.00  0.00    +0.088 C 
BRANCH  55  56
ATOM     56  S   UNL     1       5.820   0.329  27.926  0.00  0.00    -0.150 S 
BRANCH  56  57
ATOM     57  C   UNL     1       5.720  -0.099  26.154  0.00  0.00    +0.164 C 
BRANCH  57  58
ATOM     58  C   UNL     1       6.351   0.953  25.254  0.00  0.00    +0.223 C 
ATOM     59  N   UNL     1       5.695   1.176  24.059  0.00  0.00    -0.314 N 
ATOM     60  H   UNL     1       5.029   0.484  23.730  0.00  0.00    +0.149 HD
ATOM     61  O   UNL     1       7.355   1.584  25.580  0.00  0.00    -0.275 OA
BRANCH  59  62
ATOM     62  C   UNL     1       6.297   2.055  23.070  0.00  0.00    +0.109 C 
BRANCH  62  63
ATOM     63  C   UNL     1       5.761   3.488  23.107  0.00  0.00    +0.056 C 
BRANCH  63  64
ATOM     64  C   UNL     1       6.836   4.531  23.030  0.00  0.00    -0.021 A 
ATOM     65  C   UNL     1       7.531   5.132  24.131  0.00  0.00    +0.003 A 
ATOM     66  C   UNL     1       8.442   6.048  23.601  0.00  0.00    +0.047 A 
ATOM     67  C   UNL     1       9.291   6.821  24.399  0.00  0.00    +0.026 A 
ATOM     68  C   UNL     1       9.211   6.652  25.784  0.00  0.00    +0.002 A 
ATOM     69  C   UNL     1       8.318   5.744  26.345  0.00  0.00    +0.001 A 
ATOM     70  N   UNL     1       8.316   5.999  22.232  0.00  0.00    -0.360 N 
ATOM     71  H   UNL     1       8.861   6.554  21.588  0.00  0.00    +0.165 HD
ATOM     72  C   UNL     1       7.473   4.980  25.531  0.00  0.00    +0.010 A 
ATOM     73  C   UNL     1       7.361   5.086  21.879  0.00  0.00    +0.087 A 
ENDBRANCH  63  64
ENDBRANCH  62  63
ENDBRANCH  59  62
ENDBRANCH  57  58
ENDBRANCH  56  57
ENDBRANCH  55  56
ENDBRANCH  54  55
ENDBRANCH  51  54
ENDBRANCH  49  50
ENDBRANCH  48  49
ENDBRANCH  45  48
ENDBRANCH  43  44
BRANCH  43  74
ATOM     74  O   UNL     1       4.006  -7.154  27.701  0.00  0.00    -0.382 OA
ATOM     75  H   UNL     1       3.661  -8.041  27.508  0.00  0.00    +0.210 HD
ENDBRANCH  43  74
ENDBRANCH  41  43
ENDBRANCH  39  41
ENDBRANCH   1  39
TORSDOF 30
ENDMDL
MODEL 3
REMARK VINA RESULT:      -5.7      3.544      8.403
REMARK  Name = 
REMARK  32 active torsions:
REMARK  status: ('A' for Active; 'I' for Inactive)
REMARK    1  A    between atoms: C_1  and  C_2
REMARK    2  A    between atoms: C_2  and  C_3
REMARK    3  A    between atoms: C_2  and  C_4
REMARK    4  A    between atoms: C_2  and  C_40
REMARK    5  A    between atoms: C_4  and  O_5
REMARK    6  A    between atoms: O_5  and  P_6
REMARK    7  A    between atoms: P_6  and  O_7
REMARK    8  A    between atoms: P_6  and  O_9
REMARK    9  A    between atoms: O_9  and  P_10
REMARK   10  A    between atoms: P_10  and  O_11
REMARK   11  A    between atoms: P_10  and  O_13
REMARK   12  A    between atoms: O_13  and  C_14
REMARK   13  A    between atoms: C_14  and  C_15
REMARK   14  A    between atoms: C_18  and  N_30
REMARK   15  A    between atoms: C_20  and  O_22
REMARK   16  A    between atoms: C_23  and  O_25
REMARK   17  A    between atoms: O_25  and  P_26
REMARK   18  A    between atoms: P_26  and  O_27
REMARK   19  A    between atoms: P_26  and  O_28
REMARK   20  A    between atoms: C_40  and  O_42
REMARK   21  A    between atoms: C_40  and  C_43
REMARK   22  A    between atoms: N_45  and  C_46
REMARK   23  A    between atoms: C_46  and  C_47
REMARK   24  A    between atoms: C_47  and  C_48
REMARK   25  A    between atoms: N_50  and  C_51
REMARK   26  A    between atoms: C_51  and  C_52
REMARK   27  A    between atoms: C_52  and  S_53
REMARK   28  A    between atoms: S_53  and  C_54
REMARK   29  A    between atoms: C_54  and  C_55
REMARK   30  A    between atoms: N_57  and  C_58
REMARK   31  A    between atoms: C_58  and  C_59
REMARK   32  A    between atoms: C_59  and  C_60
REMARK                            x       y       z     vdW  Elec       q    Type
REMARK                         _______ _______ _______ _____ _____    ______ ____
ROOT
ATOM      1  O   UNL     1       9.036  -1.254  24.517  0.00  0.00    -0.286 OA
ENDROOT
BRANCH   1   2
ATOM      2  P   UNL     1       9.766  -0.514  23.223  0.00  0.00    +0.483 P 
ATOM      3  O   UNL     1      11.099   0.044  23.750  0.00  0.00    -0.227 OA
BRANCH   2   4
ATOM      4  O   UNL     1      10.599  -1.981  22.841  0.00  0.00    -0.302 OA
ATOM      5  H   UNL     1      10.237  -2.632  23.479  0.00  0.00    +0.222 HD
ENDBRANCH   2   4
BRANCH   2   6
ATOM      6  O   UNL     1       8.933   0.953  23.606  0.00  0.00    -0.186 OA
BRANCH   6   7
ATOM      7  P   UNL     1       8.794   1.166  21.910  0.00  0.00    +0.483 P 
ATOM      8  O   UNL     1       9.139  -0.106  21.171  0.00  0.00    -0.227 OA
BRANCH   7   9
ATOM      9  O   UNL     1       9.847   2.343  21.628  0.00  0.00    -0.302 OA
ATOM     10  H   UNL     1      10.490   2.489  22.350  0.00  0.00    +0.222 HD
ENDBRANCH   7   9
BRANCH   7  11
ATOM     11  O   UNL     1       7.517   1.867  21.162  0.00  0.00    -0.284 OA
BRANCH  11  12
ATOM     12  C   UNL     1       7.565   3.297  21.552  0.00  0.00    +0.206 C 
BRANCH  12  13
ATOM     13  C   UNL     1       7.128   3.834  22.927  0.00  0.00    +0.179 C 
ATOM     14  C   UNL     1       6.905   5.315  22.928  0.00  0.00    +0.194 C 
ATOM     15  C   UNL     1       5.403   5.476  23.198  0.00  0.00    +0.196 C 
ATOM     16  C   UNL     1       4.828   4.063  23.247  0.00  0.00    +0.253 C 
ATOM     17  O   UNL     1       5.937   3.171  23.393  0.00  0.00    -0.346 OA
BRANCH  16  18
ATOM     18  N   UNL     1       3.889   3.869  24.344  0.00  0.00    -0.286 N 
ATOM     19  C   UNL     1       4.197   4.019  25.682  0.00  0.00    +0.167 A 
ATOM     20  N   UNL     1       5.406   4.240  26.229  0.00  0.00    -0.216 NA
ATOM     21  C   UNL     1       5.290   4.382  27.574  0.00  0.00    +0.225 A 
ATOM     22  N   UNL     1       4.175   4.361  28.335  0.00  0.00    -0.219 NA
ATOM     23  C   UNL     1       2.989   4.122  27.732  0.00  0.00    +0.147 A 
ATOM     24  N   UNL     1       1.833   4.121  28.507  0.00  0.00    -0.341 N 
ATOM     25  H   UNL     1       0.989   4.269  27.961  0.00  0.00    +0.144 HD
ATOM     26  H   UNL     1       1.935   4.665  29.355  0.00  0.00    +0.144 HD
ATOM     27  C   UNL     1       2.980   3.913  26.343  0.00  0.00    +0.147 A 
ATOM     28  N   UNL     1       1.965   3.635  25.457  0.00  0.00    -0.231 NA
ATOM     29  C   UNL     1       2.547   3.588  24.274  0.00  0.00    +0.203 A 
ENDBRANCH  16  18
BRANCH  15  30
ATOM     30  O   UNL     1       4.835   6.265  22.153  0.00  0.00    -0.385 OA
ATOM     31  H   UNL     1       4.250   5.688  21.617  0.00  0.00    +0.210 HD
ENDBRANCH  15  30
BRANCH  14  32
ATOM     32  O   UNL     1       7.690   6.003  23.952  0.00  0.00    -0.278 OA
BRANCH  32  33
ATOM     33  P   UNL     1       9.153   5.080  23.976  0.00  0.00    +0.473 P 
ATOM     34  O   UNL     1      10.463   4.254  23.998  0.00  0.00    -0.228 OA
BRANCH  33  35
ATOM     35  O   UNL     1       9.495   5.944  25.321  0.00  0.00    -0.303 OA
ATOM     36  H   UNL     1      10.452   5.820  25.474  0.00  0.00    +0.222 HD
ENDBRANCH  33  35
BRANCH  33  37
ATOM     37  O   UNL     1       9.708   6.244  22.965  0.00  0.00    -0.303 OA
ATOM     38  H   UNL     1      10.586   6.034  22.605  0.00  0.00    +0.222 HD
ENDBRANCH  33  37
ENDBRANCH  32  33
ENDBRANCH  14  32
ENDBRANCH  12  13
ENDBRANCH  11  12
ENDBRANCH   7  11
ENDBRANCH   6   7
ENDBRANCH   2   6
ENDBRANCH   1   2
BRANCH   1  39
ATOM     39  C   UNL     1       7.705  -0.830  24.798  0.00  0.00    +0.181 C 
BRANCH  39  41
ATOM     40  C   UNL     1       6.547  -1.891  26.741  0.00  0.00    +0.016 C 
ATOM     41  C   UNL     1       7.405  -0.677  26.306  0.00  0.00    +0.024 C 
ATOM     42  C   UNL     1       8.705  -0.718  27.129  0.00  0.00    +0.016 C 
BRANCH  41  43
ATOM     43  C   UNL     1       6.634   0.666  26.567  0.00  0.00    +0.208 C 
BRANCH  43  44
ATOM     44  C   UNL     1       5.098   0.608  26.325  0.00  0.00    +0.242 C 
ATOM     45  N   UNL     1       4.342   0.358  27.459  0.00  0.00    -0.313 N 
ATOM     46  H   UNL     1       4.808   0.605  28.329  0.00  0.00    +0.149 HD
ATOM     47  O   UNL     1       4.568   0.693  25.221  0.00  0.00    -0.273 OA
BRANCH  45  48
ATOM     48  C   UNL     1       2.898   0.418  27.330  0.00  0.00    +0.113 C 
BRANCH  48  49
ATOM     49  C   UNL     1       2.164  -0.802  27.864  0.00  0.00    +0.114 C 
BRANCH  49  50
ATOM     50  C   UNL     1       2.679  -2.043  27.161  0.00  0.00    +0.215 C 
ATOM     51  N   UNL     1       2.771  -3.153  27.972  0.00  0.00    -0.314 N 
ATOM     52  H   UNL     1       2.323  -3.143  28.881  0.00  0.00    +0.149 HD
ATOM     53  O   UNL     1       2.993  -2.066  25.976  0.00  0.00    -0.276 OA
BRANCH  51  54
ATOM     54  C   UNL     1       3.157  -4.440  27.413  0.00  0.00    +0.115 C 
BRANCH  54  55
ATOM     55  C   UNL     1       1.969  -5.232  26.873  0.00  0.00    +0.088 C 
BRANCH  55  56
ATOM     56  S   UNL     1       2.329  -6.994  26.488  0.00  0.00    -0.150 S 
BRANCH  56  57
ATOM     57  C   UNL     1       1.406  -7.230  24.930  0.00  0.00    +0.164 C 
BRANCH  57  58
ATOM     58  C   UNL     1       2.123  -6.646  23.723  0.00  0.00    +0.223 C 
ATOM     59  N   UNL     1       3.500  -6.756  23.746  0.00  0.00    -0.314 N 
ATOM     60  H   UNL     1       3.960  -6.954  24.628  0.00  0.00    +0.149 HD
ATOM     61  O   UNL     1       1.521  -6.141  22.777  0.00  0.00    -0.275 OA
BRANCH  59  62
ATOM     62  C   UNL     1       4.284  -6.102  22.710  0.00  0.00    +0.109 C 
BRANCH  62  63
ATOM     63  C   UNL     1       4.654  -4.653  23.035  0.00  0.00    +0.056 C 
BRANCH  63  64
ATOM     64  C   UNL     1       6.109  -4.462  23.342  0.00  0.00    -0.021 A 
ATOM     65  C   UNL     1       6.778  -4.781  24.569  0.00  0.00    +0.003 A 
ATOM     66  C   UNL     1       8.122  -4.438  24.415  0.00  0.00    +0.047 A 
ATOM     67  C   UNL     1       9.071  -4.615  25.428  0.00  0.00    +0.026 A 
ATOM     68  C   UNL     1       8.635  -5.165  26.636  0.00  0.00    +0.002 A 
ATOM     69  C   UNL     1       7.302  -5.523  26.821  0.00  0.00    +0.001 A 
ATOM     70  N   UNL     1       8.270  -3.940  23.142  0.00  0.00    -0.360 N 
ATOM     71  H   UNL     1       9.145  -3.618  22.751  0.00  0.00    +0.165 HD
ATOM     72  C   UNL     1       6.366  -5.336  25.798  0.00  0.00    +0.010 A 
ATOM     73  C   UNL     1       7.070  -3.957  22.486  0.00  0.00    +0.087 A 
ENDBRANCH  63  64
ENDBRANCH  62  63
ENDBRANCH  59  62
ENDBRANCH  57  58
ENDBRANCH  56  57
ENDBRANCH  55  56
ENDBRANCH  54  55
ENDBRANCH  51  54
ENDBRANCH  49  50
ENDBRANCH  48  49
ENDBRANCH  45  48
ENDBRANCH  43  44
BRANCH  43  74
ATOM     74  O   UNL     1       7.172   1.748  25.789  0.00  0.00    -0.382 OA
ATOM     75  H   UNL     1       7.878   2.165  26.309  0.00  0.00    +0.210 HD
ENDBRANCH  43  74
ENDBRANCH  41  43
ENDBRANCH  39  41
ENDBRANCH   1  39
TORSDOF 30
ENDMDL
MODEL 4
REMARK VINA RESULT:      -5.6      2.246      3.530
REMARK  Name = 
REMARK  32 active torsions:
REMARK  status: ('A' for Active; 'I' for Inactive)
REMARK    1  A    between atoms: C_1  and  C_2
REMARK    2  A    between atoms: C_2  and  C_3
REMARK    3  A    between atoms: C_2  and  C_4
REMARK    4  A    between atoms: C_2  and  C_40
REMARK    5  A    between atoms: C_4  and  O_5
REMARK    6  A    between atoms: O_5  and  P_6
REMARK    7  A    between atoms: P_6  and  O_7
REMARK    8  A    between atoms: P_6  and  O_9
REMARK    9  A    between atoms: O_9  and  P_10
REMARK   10  A    between atoms: P_10  and  O_11
REMARK   11  A    between atoms: P_10  and  O_13
REMARK   12  A    between atoms: O_13  and  C_14
REMARK   13  A    between atoms: C_14  and  C_15
REMARK   14  A    between atoms: C_18  and  N_30
REMARK   15  A    between atoms: C_20  and  O_22
REMARK   16  A    between atoms: C_23  and  O_25
REMARK   17  A    between atoms: O_25  and  P_26
REMARK   18  A    between atoms: P_26  and  O_27
REMARK   19  A    between atoms: P_26  and  O_28
REMARK   20  A    between atoms: C_40  and  O_42
REMARK   21  A    between atoms: C_40  and  C_43
REMARK   22  A    between atoms: N_45  and  C_46
REMARK   23  A    between atoms: C_46  and  C_47
REMARK   24  A    between atoms: C_47  and  C_48
REMARK   25  A    between atoms: N_50  and  C_51
REMARK   26  A    between atoms: C_51  and  C_52
REMARK   27  A    between atoms: C_52  and  S_53
REMARK   28  A    between atoms: S_53  and  C_54
REMARK   29  A    between atoms: C_54  and  C_55
REMARK   30  A    between atoms: N_57  and  C_58
REMARK   31  A    between atoms: C_58  and  C_59
REMARK   32  A    between atoms: C_59  and  C_60
REMARK                            x       y       z     vdW  Elec       q    Type
REMARK                         _______ _______ _______ _____ _____    ______ ____
ROOT
ATOM      1  O   UNL     1       2.442  -6.890  26.148  0.00  0.00    -0.286 OA
ENDROOT
BRANCH   1   2
ATOM      2  P   UNL     1       2.073  -7.802  24.811  0.00  0.00    +0.483 P 
ATOM      3  O   UNL     1       2.310  -9.266  25.217  0.00  0.00    -0.227 OA
BRANCH   2   4
ATOM      4  O   UNL     1       0.443  -7.974  25.365  0.00  0.00    -0.302 OA
ATOM      5  H   UNL     1       0.316  -8.944  25.428  0.00  0.00    +0.222 HD
ENDBRANCH   2   4
BRANCH   2   6
ATOM      6  O   UNL     1       3.704  -7.630  24.258  0.00  0.00    -0.186 OA
BRANCH   6   7
ATOM      7  P   UNL     1       3.108  -6.335  23.306  0.00  0.00    +0.483 P 
ATOM      8  O   UNL     1       1.741  -6.652  22.746  0.00  0.00    -0.227 OA
BRANCH   7   9
ATOM      9  O   UNL     1       4.225  -6.213  22.160  0.00  0.00    -0.302 OA
ATOM     10  H   UNL     1       5.052  -6.697  22.352  0.00  0.00    +0.222 HD
ENDBRANCH   7   9
BRANCH   7  11
ATOM     11  O   UNL     1       3.127  -4.761  23.759  0.00  0.00    -0.284 OA
BRANCH  11  12
ATOM     12  C   UNL     1       4.345  -4.185  23.140  0.00  0.00    +0.206 C 
BRANCH  12  13
ATOM     13  C   UNL     1       5.529  -3.605  23.935  0.00  0.00    +0.179 C 
ATOM     14  C   UNL     1       6.559  -4.635  24.280  0.00  0.00    +0.194 C 
ATOM     15  C   UNL     1       7.809  -4.203  23.503  0.00  0.00    +0.196 C 
ATOM     16  C   UNL     1       7.395  -2.987  22.677  0.00  0.00    +0.253 C 
ATOM     17  O   UNL     1       6.157  -2.522  23.222  0.00  0.00    -0.346 OA
BRANCH  16  18
ATOM     18  N   UNL     1       8.383  -1.916  22.707  0.00  0.00    -0.286 N 
ATOM     19  C   UNL     1       8.750  -1.212  23.837  0.00  0.00    +0.167 A 
ATOM     20  N   UNL     1       8.202  -1.281  25.064  0.00  0.00    -0.216 NA
ATOM     21  C   UNL     1       8.875  -0.473  25.921  0.00  0.00    +0.225 A 
ATOM     22  N   UNL     1       9.963   0.292  25.686  0.00  0.00    -0.219 NA
ATOM     23  C   UNL     1      10.463   0.332  24.431  0.00  0.00    +0.147 A 
ATOM     24  N   UNL     1      11.597   1.100  24.186  0.00  0.00    -0.341 N 
ATOM     25  H   UNL     1      12.091   0.823  23.343  0.00  0.00    +0.144 HD
ATOM     26  H   UNL     1      12.154   1.244  25.020  0.00  0.00    +0.144 HD
ATOM     27  C   UNL     1       9.826  -0.430  23.438  0.00  0.00    +0.147 A 
ATOM     28  N   UNL     1      10.071  -0.587  22.093  0.00  0.00    -0.231 NA
ATOM     29  C   UNL     1       9.174  -1.462  21.682  0.00  0.00    +0.203 A 
ENDBRANCH  16  18
BRANCH  15  30
ATOM     30  O   UNL     1       8.244  -5.296  22.693  0.00  0.00    -0.385 OA
ATOM     31  H   UNL     1       7.877  -6.123  23.073  0.00  0.00    +0.210 HD
ENDBRANCH  15  30
BRANCH  14  32
ATOM     32  O   UNL     1       6.837  -4.697  25.714  0.00  0.00    -0.278 OA
BRANCH  32  33
ATOM     33  P   UNL     1       8.544  -4.972  25.746  0.00  0.00    +0.473 P 
ATOM     34  O   UNL     1      10.073  -5.218  25.774  0.00  0.00    -0.228 OA
BRANCH  33  35
ATOM     35  O   UNL     1       8.193  -6.060  26.913  0.00  0.00    -0.303 OA
ATOM     36  H   UNL     1       8.970  -6.649  26.965  0.00  0.00    +0.222 HD
ENDBRANCH  33  35
BRANCH  33  37
ATOM     37  O   UNL     1       8.560  -3.708  26.788  0.00  0.00    -0.303 OA
ATOM     38  H   UNL     1       8.325  -2.870  26.357  0.00  0.00    +0.222 HD
ENDBRANCH  33  37
ENDBRANCH  32  33
ENDBRANCH  14  32
ENDBRANCH  12  13
ENDBRANCH  11  12
ENDBRANCH   7  11
ENDBRANCH   6   7
ENDBRANCH   2   6
ENDBRANCH   1   2
BRANCH   1  39
ATOM     39  C   UNL     1       1.910  -7.365  27.382  0.00  0.00    +0.181 C 
BRANCH  39  41
ATOM     40  C   UNL     1       1.309  -5.032  28.044  0.00  0.00    +0.016 C 
ATOM     41  C   UNL     1       1.989  -6.336  28.532  0.00  0.00    +0.024 C 
ATOM     42  C   UNL     1       1.204  -6.828  29.760  0.00  0.00    +0.016 C 
BRANCH  41  43
ATOM     43  C   UNL     1       3.488  -6.068  28.912  0.00  0.00    +0.208 C 
BRANCH  43  44
ATOM     44  C   UNL     1       3.939  -4.581  28.826  0.00  0.00    +0.242 C 
ATOM     45  N   UNL     1       4.574  -4.236  27.644  0.00  0.00    -0.313 N 
ATOM     46  H   UNL     1       4.349  -4.846  26.861  0.00  0.00    +0.149 HD
ATOM     47  O   UNL     1       3.830  -3.771  29.742  0.00  0.00    -0.273 OA
BRANCH  45  48
ATOM     48  C   UNL     1       4.905  -2.837  27.443  0.00  0.00    +0.113 C 
BRANCH  48  49
ATOM     49  C   UNL     1       3.933  -2.078  26.554  0.00  0.00    +0.114 C 
BRANCH  49  50
ATOM     50  C   UNL     1       3.229  -1.015  27.374  0.00  0.00    +0.215 C 
ATOM     51  N   UNL     1       3.876  -0.684  28.543  0.00  0.00    -0.314 N 
ATOM     52  H   UNL     1       4.832  -0.990  28.687  0.00  0.00    +0.149 HD
ATOM     53  O   UNL     1       2.171  -0.493  27.036  0.00  0.00    -0.276 OA
BRANCH  51  54
ATOM     54  C   UNL     1       3.368   0.390  29.384  0.00  0.00    +0.115 C 
BRANCH  54  55
ATOM     55  C   UNL     1       3.946   1.755  29.017  0.00  0.00    +0.088 C 
BRANCH  55  56
ATOM     56  S   UNL     1       5.648   2.064  29.638  0.00  0.00    -0.150 S 
BRANCH  56  57
ATOM     57  C   UNL     1       6.665   1.509  28.227  0.00  0.00    +0.164 C 
BRANCH  57  58
ATOM     58  C   UNL     1       6.154   2.024  26.891  0.00  0.00    +0.223 C 
ATOM     59  N   UNL     1       5.862   1.048  25.957  0.00  0.00    -0.314 N 
ATOM     60  H   UNL     1       6.237   0.114  26.091  0.00  0.00    +0.149 HD
ATOM     61  O   UNL     1       5.980   3.220  26.666  0.00  0.00    -0.275 OA
BRANCH  59  62
ATOM     62  C   UNL     1       5.504   1.441  24.603  0.00  0.00    +0.109 C 
BRANCH  62  63
ATOM     63  C   UNL     1       6.708   1.655  23.683  0.00  0.00    +0.056 C 
BRANCH  63  64
ATOM     64  C   UNL     1       6.811   3.052  23.148  0.00  0.00    -0.021 A 
ATOM     65  C   UNL     1       7.810   4.027  23.475  0.00  0.00    +0.003 A 
ATOM     66  C   UNL     1       7.520   5.184  22.750  0.00  0.00    +0.047 A 
ATOM     67  C   UNL     1       8.296   6.345  22.832  0.00  0.00    +0.026 A 
ATOM     68  C   UNL     1       9.408   6.323  23.677  0.00  0.00    +0.002 A 
ATOM     69  C   UNL     1       9.729   5.184  24.410  0.00  0.00    +0.001 A 
ATOM     70  N   UNL     1       6.396   4.922  22.002  0.00  0.00    -0.360 N 
ATOM     71  H   UNL     1       5.961   5.583  21.373  0.00  0.00    +0.165 HD
ATOM     72  C   UNL     1       8.939   4.032  24.320  0.00  0.00    +0.010 A 
ATOM     73  C   UNL     1       5.967   3.643  22.227  0.00  0.00    +0.087 A 
ENDBRANCH  63  64
ENDBRANCH  62  63
ENDBRANCH  59  62
ENDBRANCH  57  58
ENDBRANCH  56  57
ENDBRANCH  55  56
ENDBRANCH  54  55
ENDBRANCH  51  54
ENDBRANCH  49  50
ENDBRANCH  48  49
ENDBRANCH  45  48
ENDBRANCH  43  44
BRANCH  43  74
ATOM     74  O   UNL     1       4.388  -6.858  28.116  0.00  0.00    -0.382 OA
ATOM     75  H   UNL     1       3.853  -7.397  27.510  0.00  0.00    +0.210 HD
ENDBRANCH  43  74
ENDBRANCH  41  43
ENDBRANCH  39  41
ENDBRANCH   1  39
TORSDOF 30
ENDMDL
MODEL 5
REMARK VINA RESULT:      -5.4      2.512      6.822
REMARK  Name = 
REMARK  32 active torsions:
REMARK  status: ('A' for Active; 'I' for Inactive)
REMARK    1  A    between atoms: C_1  and  C_2
REMARK    2  A    between atoms: C_2  and  C_3
REMARK    3  A    between atoms: C_2  and  C_4
REMARK    4  A    between atoms: C_2  and  C_40
REMARK    5  A    between atoms: C_4  and  O_5
REMARK    6  A    between atoms: O_5  and  P_6
REMARK    7  A    between atoms: P_6  and  O_7
REMARK    8  A    between atoms: P_6  and  O_9
REMARK    9  A    between atoms: O_9  and  P_10
REMARK   10  A    between atoms: P_10  and  O_11
REMARK   11  A    between atoms: P_10  and  O_13
REMARK   12  A    between atoms: O_13  and  C_14
REMARK   13  A    between atoms: C_14  and  C_15
REMARK   14  A    between atoms: C_18  and  N_30
REMARK   15  A    between atoms: C_20  and  O_22
REMARK   16  A    between atoms: C_23  and  O_25
REMARK   17  A    between atoms: O_25  and  P_26
REMARK   18  A    between atoms: P_26  and  O_27
REMARK   19  A    between atoms: P_26  and  O_28
REMARK   20  A    between atoms: C_40  and  O_42
REMARK   21  A    between atoms: C_40  and  C_43
REMARK   22  A    between atoms: N_45  and  C_46
REMARK   23  A    between atoms: C_46  and  C_47
REMARK   24  A    between atoms: C_47  and  C_48
REMARK   25  A    between atoms: N_50  and  C_51
REMARK   26  A    between atoms: C_51  and  C_52
REMARK   27  A    between atoms: C_52  and  S_53
REMARK   28  A    between atoms: S_53  and  C_54
REMARK   29  A    between atoms: C_54  and  C_55
REMARK   30  A    between atoms: N_57  and  C_58
REMARK   31  A    between atoms: C_58  and  C_59
REMARK   32  A    between atoms: C_59  and  C_60
REMARK                            x       y       z     vdW  Elec       q    Type
REMARK                         _______ _______ _______ _____ _____    ______ ____
ROOT
ATOM      1  O   UNL     1       8.172  -3.653  23.535  0.00  0.00    -0.286 OA
ENDROOT
BRANCH   1   2
ATOM      2  P   UNL     1       7.780  -5.110  24.226  0.00  0.00    +0.483 P 
ATOM      3  O   UNL     1       9.032  -5.993  24.095  0.00  0.00    -0.227 OA
BRANCH   2   4
ATOM      4  O   UNL     1       8.396  -4.566  25.749  0.00  0.00    -0.302 OA
ATOM      5  H   UNL     1       7.644  -4.689  26.365  0.00  0.00    +0.222 HD
ENDBRANCH   2   4
BRANCH   2   6
ATOM      6  O   UNL     1       7.164  -5.655  22.704  0.00  0.00    -0.186 OA
BRANCH   6   7
ATOM      7  P   UNL     1       5.620  -5.576  23.445  0.00  0.00    +0.483 P 
ATOM      8  O   UNL     1       5.722  -5.073  24.867  0.00  0.00    -0.227 OA
BRANCH   7   9
ATOM      9  O   UNL     1       5.127  -7.101  23.370  0.00  0.00    -0.302 OA
ATOM     10  H   UNL     1       5.009  -7.528  24.240  0.00  0.00    +0.222 HD
ENDBRANCH   7   9
BRANCH   7  11
ATOM     11  O   UNL     1       4.290  -4.910  22.758  0.00  0.00    -0.284 OA
BRANCH  11  12
ATOM     12  C   UNL     1       3.170  -5.818  23.103  0.00  0.00    +0.206 C 
BRANCH  12  13
ATOM     13  C   UNL     1       2.116  -5.520  24.185  0.00  0.00    +0.179 C 
ATOM     14  C   UNL     1       2.327  -6.314  25.437  0.00  0.00    +0.194 C 
ATOM     15  C   UNL     1       2.662  -5.265  26.505  0.00  0.00    +0.196 C 
ATOM     16  C   UNL     1       2.714  -3.923  25.779  0.00  0.00    +0.253 C 
ATOM     17  O   UNL     1       2.081  -4.117  24.510  0.00  0.00    -0.346 OA
BRANCH  16  18
ATOM     18  N   UNL     1       2.043  -2.855  26.508  0.00  0.00    -0.286 N 
ATOM     19  C   UNL     1       2.583  -2.171  27.580  0.00  0.00    +0.167 A 
ATOM     20  N   UNL     1       3.737  -2.426  28.221  0.00  0.00    -0.216 NA
ATOM     21  C   UNL     1       3.947  -1.498  29.189  0.00  0.00    +0.225 A 
ATOM     22  N   UNL     1       3.194  -0.424  29.510  0.00  0.00    -0.219 NA
ATOM     23  C   UNL     1       2.038  -0.225  28.839  0.00  0.00    +0.147 A 
ATOM     24  N   UNL     1       1.268   0.891  29.149  0.00  0.00    -0.341 N 
ATOM     25  H   UNL     1       0.623   1.148  28.408  0.00  0.00    +0.144 HD
ATOM     26  H   UNL     1       1.816   1.637  29.562  0.00  0.00    +0.144 HD
ATOM     27  C   UNL     1       1.683  -1.145  27.839  0.00  0.00    +0.147 A 
ATOM     28  N   UNL     1       0.590  -1.232  27.009  0.00  0.00    -0.231 NA
ATOM     29  C   UNL     1       0.824  -2.282  26.244  0.00  0.00    +0.203 A 
ENDBRANCH  16  18
BRANCH  15  30
ATOM     30  O   UNL     1       3.909  -5.612  27.109  0.00  0.00    -0.385 OA
ATOM     31  H   UNL     1       4.602  -5.589  26.415  0.00  0.00    +0.210 HD
ENDBRANCH  15  30
BRANCH  14  32
ATOM     32  O   UNL     1       1.145  -7.084  25.823  0.00  0.00    -0.278 OA
BRANCH  32  33
ATOM     33  P   UNL     1       1.570  -8.685  25.327  0.00  0.00    +0.473 P 
ATOM     34  O   UNL     1       1.950 -10.120  24.883  0.00  0.00    -0.228 OA
BRANCH  33  35
ATOM     35  O   UNL     1       1.285  -9.079  26.888  0.00  0.00    -0.303 OA
ATOM     36  H   UNL     1       2.121  -9.460  27.218  0.00  0.00    +0.222 HD
ENDBRANCH  33  35
BRANCH  33  37
ATOM     37  O   UNL     1       3.103  -8.192  25.626  0.00  0.00    -0.303 OA
ATOM     38  H   UNL     1       3.679  -8.282  24.849  0.00  0.00    +0.222 HD
ENDBRANCH  33  37
ENDBRANCH  32  33
ENDBRANCH  14  32
ENDBRANCH  12  13
ENDBRANCH  11  12
ENDBRANCH   7  11
ENDBRANCH   6   7
ENDBRANCH   2   6
ENDBRANCH   1   2
BRANCH   1  39
ATOM     39  C   UNL     1       9.377  -3.054  24.005  0.00  0.00    +0.181 C 
BRANCH  39  41
ATOM     40  C   UNL     1      10.445  -1.053  22.958  0.00  0.00    +0.016 C 
ATOM     41  C   UNL     1       9.361  -1.510  23.966  0.00  0.00    +0.024 C 
ATOM     42  C   UNL     1       8.008  -0.990  23.448  0.00  0.00    +0.016 C 
BRANCH  41  43
ATOM     43  C   UNL     1       9.658  -0.933  25.396  0.00  0.00    +0.208 C 
BRANCH  43  44
ATOM     44  C   UNL     1       8.451  -0.945  26.380  0.00  0.00    +0.242 C 
ATOM     45  N   UNL     1       8.142   0.288  26.931  0.00  0.00    -0.313 N 
ATOM     46  H   UNL     1       8.466   1.080  26.381  0.00  0.00    +0.149 HD
ATOM     47  O   UNL     1       7.850  -1.958  26.723  0.00  0.00    -0.273 OA
BRANCH  45  48
ATOM     48  C   UNL     1       6.951   0.374  27.756  0.00  0.00    +0.113 C 
BRANCH  48  49
ATOM     49  C   UNL     1       6.833   1.657  28.563  0.00  0.00    +0.114 C 
BRANCH  49  50
ATOM     50  C   UNL     1       6.543   2.814  27.626  0.00  0.00    +0.215 C 
ATOM     51  N   UNL     1       5.780   3.815  28.184  0.00  0.00    -0.314 N 
ATOM     52  H   UNL     1       5.636   3.830  29.187  0.00  0.00    +0.149 HD
ATOM     53  O   UNL     1       6.946   2.861  26.468  0.00  0.00    -0.276 OA
BRANCH  51  54
ATOM     54  C   UNL     1       5.506   5.032  27.435  0.00  0.00    +0.115 C 
BRANCH  54  55
ATOM     55  C   UNL     1       4.125   5.029  26.784  0.00  0.00    +0.088 C 
BRANCH  55  56
ATOM     56  S   UNL     1       2.946   3.802  27.482  0.00  0.00    -0.150 S 
BRANCH  56  57
ATOM     57  C   UNL     1       3.208   2.368  26.384  0.00  0.00    +0.164 C 
BRANCH  57  58
ATOM     58  C   UNL     1       3.246   2.748  24.912  0.00  0.00    +0.223 C 
ATOM     59  N   UNL     1       4.487   2.657  24.312  0.00  0.00    -0.314 N 
ATOM     60  H   UNL     1       5.313   2.614  24.901  0.00  0.00    +0.149 HD
ATOM     61  O   UNL     1       2.239   3.082  24.290  0.00  0.00    -0.275 OA
BRANCH  59  62
ATOM     62  C   UNL     1       4.656   3.136  22.949  0.00  0.00    +0.109 C 
BRANCH  62  63
ATOM     63  C   UNL     1       5.306   4.518  22.854  0.00  0.00    +0.056 C 
BRANCH  63  64
ATOM     64  C   UNL     1       6.708   4.557  23.385  0.00  0.00    -0.021 A 
ATOM     65  C   UNL     1       7.804   3.725  22.982  0.00  0.00    +0.003 A 
ATOM     66  C   UNL     1       8.916   4.104  23.735  0.00  0.00    +0.047 A 
ATOM     67  C   UNL     1      10.168   3.493  23.600  0.00  0.00    +0.026 A 
ATOM     68  C   UNL     1      10.289   2.464  22.662  0.00  0.00    +0.002 A 
ATOM     69  C   UNL     1       9.200   2.066  21.891  0.00  0.00    +0.001 A 
ATOM     70  N   UNL     1       8.519   5.133  24.556  0.00  0.00    -0.360 N 
ATOM     71  H   UNL     1       9.124   5.610  25.210  0.00  0.00    +0.165 HD
ATOM     72  C   UNL     1       7.955   2.685  22.042  0.00  0.00    +0.010 A 
ATOM     73  C   UNL     1       7.197   5.419  24.349  0.00  0.00    +0.087 A 
ENDBRANCH  63  64
ENDBRANCH  62  63
ENDBRANCH  59  62
ENDBRANCH  57  58
ENDBRANCH  56  57
ENDBRANCH  55  56
ENDBRANCH  54  55
ENDBRANCH  51  54
ENDBRANCH  49  50
ENDBRANCH  48  49
ENDBRANCH  45  48
ENDBRANCH  43  44
BRANCH  43  74
ATOM     74  O   UNL     1      10.172   0.408  25.331  0.00  0.00    -0.382 OA
ATOM     75  H   UNL     1       9.448   1.015  25.554  0.00  0.00    +0.210 HD
ENDBRANCH  43  74
ENDBRANCH  41  43
ENDBRANCH  39  41
ENDBRANCH   1  39
TORSDOF 30
ENDMDL
MODEL 6
REMARK VINA RESULT:      -5.3      2.567      7.426
REMARK  Name = 
REMARK  32 active torsions:
REMARK  status: ('A' for Active; 'I' for Inactive)
REMARK    1  A    between atoms: C_1  and  C_2
REMARK    2  A    between atoms: C_2  and  C_3
REMARK    3  A    between atoms: C_2  and  C_4
REMARK    4  A    between atoms: C_2  and  C_40
REMARK    5  A    between atoms: C_4  and  O_5
REMARK    6  A    between atoms: O_5  and  P_6
REMARK    7  A    between atoms: P_6  and  O_7
REMARK    8  A    between atoms: P_6  and  O_9
REMARK    9  A    between atoms: O_9  and  P_10
REMARK   10  A    between atoms: P_10  and  O_11
REMARK   11  A    between atoms: P_10  and  O_13
REMARK   12  A    between atoms: O_13  and  C_14
REMARK   13  A    between atoms: C_14  and  C_15
REMARK   14  A    between atoms: C_18  and  N_30
REMARK   15  A    between atoms: C_20  and  O_22
REMARK   16  A    between atoms: C_23  and  O_25
REMARK   17  A    between atoms: O_25  and  P_26
REMARK   18  A    between atoms: P_26  and  O_27
REMARK   19  A    between atoms: P_26  and  O_28
REMARK   20  A    between atoms: C_40  and  O_42
REMARK   21  A    between atoms: C_40  and  C_43
REMARK   22  A    between atoms: N_45  and  C_46
REMARK   23  A    between atoms: C_46  and  C_47
REMARK   24  A    between atoms: C_47  and  C_48
REMARK   25  A    between atoms: N_50  and  C_51
REMARK   26  A    between atoms: C_51  and  C_52
REMARK   27  A    between atoms: C_52  and  S_53
REMARK   28  A    between atoms: S_53  and  C_54
REMARK   29  A    between atoms: C_54  and  C_55
REMARK   30  A    between atoms: N_57  and  C_58
REMARK   31  A    between atoms: C_58  and  C_59
REMARK   32  A    between atoms: C_59  and  C_60
REMARK                            x       y       z     vdW  Elec       q    Type
REMARK                         _______ _______ _______ _____ _____    ______ ____
ROOT
ATOM      1  O   UNL     1       8.859  -3.428  23.250  0.00  0.00    -0.286 OA
ENDROOT
BRANCH   1   2
ATOM      2  P   UNL     1       7.862  -4.664  23.734  0.00  0.00    +0.483 P 
ATOM      3  O   UNL     1       8.602  -5.967  23.390  0.00  0.00    -0.227 OA
BRANCH   2   4
ATOM      4  O   UNL     1       8.639  -4.699  25.280  0.00  0.00    -0.302 OA
ATOM      5  H   UNL     1       8.920  -3.771  25.424  0.00  0.00    +0.222 HD
ENDBRANCH   2   4
BRANCH   2   6
ATOM      6  O   UNL     1       7.085  -4.628  22.189  0.00  0.00    -0.186 OA
BRANCH   6   7
ATOM      7  P   UNL     1       5.703  -5.220  23.013  0.00  0.00    +0.483 P 
ATOM      8  O   UNL     1       5.821  -5.000  24.504  0.00  0.00    -0.227 OA
BRANCH   7   9
ATOM      9  O   UNL     1       5.713  -6.776  22.622  0.00  0.00    -0.302 OA
ATOM     10  H   UNL     1       6.252  -7.335  23.214  0.00  0.00    +0.222 HD
ENDBRANCH   7   9
BRANCH   7  11
ATOM     11  O   UNL     1       4.154  -4.921  22.569  0.00  0.00    -0.284 OA
BRANCH  11  12
ATOM     12  C   UNL     1       3.359  -6.039  23.129  0.00  0.00    +0.206 C 
BRANCH  12  13
ATOM     13  C   UNL     1       2.176  -5.860  24.099  0.00  0.00    +0.179 C 
ATOM     14  C   UNL     1       2.057  -6.982  25.083  0.00  0.00    +0.194 C 
ATOM     15  C   UNL     1       2.330  -6.328  26.444  0.00  0.00    +0.196 C 
ATOM     16  C   UNL     1       2.683  -4.872  26.152  0.00  0.00    +0.253 C 
ATOM     17  O   UNL     1       2.267  -4.609  24.808  0.00  0.00    -0.346 OA
BRANCH  16  18
ATOM     18  N   UNL     1       2.037  -3.936  27.062  0.00  0.00    -0.286 N 
ATOM     19  C   UNL     1       2.582  -3.485  28.249  0.00  0.00    +0.167 A 
ATOM     20  N   UNL     1       3.716  -3.897  28.842  0.00  0.00    -0.216 NA
ATOM     21  C   UNL     1       3.942  -3.175  29.969  0.00  0.00    +0.225 A 
ATOM     22  N   UNL     1       3.221  -2.154  30.479  0.00  0.00    -0.219 NA
ATOM     23  C   UNL     1       2.083  -1.790  29.846  0.00  0.00    +0.147 A 
ATOM     24  N   UNL     1       1.346  -0.725  30.353  0.00  0.00    -0.341 N 
ATOM     25  H   UNL     1       0.723  -0.310  29.666  0.00  0.00    +0.144 HD
ATOM     26  H   UNL     1       1.913  -0.090  30.903  0.00  0.00    +0.144 HD
ATOM     27  C   UNL     1       1.714  -2.493  28.687  0.00  0.00    +0.147 A 
ATOM     28  N   UNL     1       0.632  -2.384  27.844  0.00  0.00    -0.231 NA
ATOM     29  C   UNL     1       0.843  -3.279  26.898  0.00  0.00    +0.203 A 
ENDBRANCH  16  18
BRANCH  15  30
ATOM     30  O   UNL     1       3.394  -7.034  27.084  0.00  0.00    -0.385 OA
ATOM     31  H   UNL     1       3.831  -7.602  26.414  0.00  0.00    +0.210 HD
ENDBRANCH  15  30
BRANCH  14  32
ATOM     32  O   UNL     1       0.736  -7.608  25.067  0.00  0.00    -0.278 OA
BRANCH  32  33
ATOM     33  P   UNL     1       1.122  -9.286  25.223  0.00  0.00    +0.473 P 
ATOM     34  O   UNL     1       1.467 -10.790  25.363  0.00  0.00    -0.228 OA
BRANCH  33  35
ATOM     35  O   UNL     1       2.656  -8.804  24.937  0.00  0.00    -0.303 OA
ATOM     36  H   UNL     1       2.627  -8.334  24.081  0.00  0.00    +0.222 HD
ENDBRANCH  33  35
BRANCH  33  37
ATOM     37  O   UNL     1       0.738  -9.352  23.632  0.00  0.00    -0.303 OA
ATOM     38  H   UNL     1       0.257  -8.561  23.335  0.00  0.00    +0.222 HD
ENDBRANCH  33  37
ENDBRANCH  32  33
ENDBRANCH  14  32
ENDBRANCH  12  13
ENDBRANCH  11  12
ENDBRANCH   7  11
ENDBRANCH   6   7
ENDBRANCH   2   6
ENDBRANCH   1   2
BRANCH   1  39
ATOM     39  C   UNL     1       9.549  -2.749  24.295  0.00  0.00    +0.181 C 
BRANCH  39  41
ATOM     40  C   UNL     1      10.478  -0.475  23.838  0.00  0.00    +0.016 C 
ATOM     41  C   UNL     1       9.238  -1.238  24.369  0.00  0.00    +0.024 C 
ATOM     42  C   UNL     1       8.056  -0.879  23.452  0.00  0.00    +0.016 C 
BRANCH  41  43
ATOM     43  C   UNL     1       8.928  -0.824  25.851  0.00  0.00    +0.208 C 
BRANCH  43  44
ATOM     44  C   UNL     1       7.599  -1.388  26.433  0.00  0.00    +0.242 C 
ATOM     45  N   UNL     1       6.640  -0.430  26.721  0.00  0.00    -0.313 N 
ATOM     46  H   UNL     1       6.752   0.436  26.199  0.00  0.00    +0.149 HD
ATOM     47  O   UNL     1       7.410  -2.570  26.703  0.00  0.00    -0.273 OA
BRANCH  45  48
ATOM     48  C   UNL     1       5.333  -0.896  27.145  0.00  0.00    +0.113 C 
BRANCH  48  49
ATOM     49  C   UNL     1       4.448   0.177  27.760  0.00  0.00    +0.114 C 
BRANCH  49  50
ATOM     50  C   UNL     1       4.201   1.269  26.737  0.00  0.00    +0.215 C 
ATOM     51  N   UNL     1       3.786   2.465  27.279  0.00  0.00    -0.314 N 
ATOM     52  H   UNL     1       3.862   2.612  28.279  0.00  0.00    +0.149 HD
ATOM     53  O   UNL     1       4.352   1.109  25.530  0.00  0.00    -0.276 OA
BRANCH  51  54
ATOM     54  C   UNL     1       3.604   3.631  26.427  0.00  0.00    +0.115 C 
BRANCH  54  55
ATOM     55  C   UNL     1       2.156   3.822  25.984  0.00  0.00    +0.088 C 
BRANCH  55  56
ATOM     56  S   UNL     1       1.953   4.608  24.334  0.00  0.00    -0.150 S 
BRANCH  56  57
ATOM     57  C   UNL     1       2.667   3.342  23.229  0.00  0.00    +0.164 C 
BRANCH  57  58
ATOM     58  C   UNL     1       4.109   3.635  22.845  0.00  0.00    +0.223 C 
ATOM     59  N   UNL     1       4.914   2.524  22.687  0.00  0.00    -0.314 N 
ATOM     60  H   UNL     1       4.608   1.638  23.078  0.00  0.00    +0.149 HD
ATOM     61  O   UNL     1       4.523   4.778  22.656  0.00  0.00    -0.275 OA
BRANCH  59  62
ATOM     62  C   UNL     1       6.340   2.703  22.463  0.00  0.00    +0.109 C 
BRANCH  62  63
ATOM     63  C   UNL     1       7.178   2.657  23.742  0.00  0.00    +0.056 C 
BRANCH  63  64
ATOM     64  C   UNL     1       8.554   3.230  23.577  0.00  0.00    -0.021 A 
ATOM     65  C   UNL     1       9.047   4.458  24.129  0.00  0.00    +0.003 A 
ATOM     66  C   UNL     1      10.374   4.598  23.721  0.00  0.00    +0.047 A 
ATOM     67  C   UNL     1      11.167   5.693  24.080  0.00  0.00    +0.026 A 
ATOM     68  C   UNL     1      10.587   6.676  24.888  0.00  0.00    +0.002 A 
ATOM     69  C   UNL     1       9.268   6.564  25.317  0.00  0.00    +0.001 A 
ATOM     70  N   UNL     1      10.683   3.495  22.959  0.00  0.00    -0.360 N 
ATOM     71  H   UNL     1      11.584   3.327  22.536  0.00  0.00    +0.165 HD
ATOM     72  C   UNL     1       8.488   5.463  24.945  0.00  0.00    +0.010 A 
ATOM     73  C   UNL     1       9.600   2.664  22.873  0.00  0.00    +0.087 A 
ENDBRANCH  63  64
ENDBRANCH  62  63
ENDBRANCH  59  62
ENDBRANCH  57  58
ENDBRANCH  56  57
ENDBRANCH  55  56
ENDBRANCH  54  55
ENDBRANCH  51  54
ENDBRANCH  49  50
ENDBRANCH  48  49
ENDBRANCH  45  48
ENDBRANCH  43  44
BRANCH  43  74
ATOM     74  O   UNL     1       8.919   0.605  26.013  0.00  0.00    -0.382 OA
ATOM     75  H   UNL     1       9.829   0.922  25.893  0.00  0.00    +0.210 HD
ENDBRANCH  43  74
ENDBRANCH  41  43
ENDBRANCH  39  41
ENDBRANCH   1  39
TORSDOF 30
ENDMDL
MODEL 7
REMARK VINA RESULT:      -5.1      3.952      9.049
REMARK  Name = 
REMARK  32 active torsions:
REMARK  status: ('A' for Active; 'I' for Inactive)
REMARK    1  A    between atoms: C_1  and  C_2
REMARK    2  A    between atoms: C_2  and  C_3
REMARK    3  A    between atoms: C_2  and  C_4
REMARK    4  A    between atoms: C_2  and  C_40
REMARK    5  A    between atoms: C_4  and  O_5
REMARK    6  A    between atoms: O_5  and  P_6
REMARK    7  A    between atoms: P_6  and  O_7
REMARK    8  A    between atoms: P_6  and  O_9
REMARK    9  A    between atoms: O_9  and  P_10
REMARK   10  A    between atoms: P_10  and  O_11
REMARK   11  A    between atoms: P_10  and  O_13
REMARK   12  A    between atoms: O_13  and  C_14
REMARK   13  A    between atoms: C_14  and  C_15
REMARK   14  A    between atoms: C_18  and  N_30
REMARK   15  A    between atoms: C_20  and  O_22
REMARK   16  A    between atoms: C_23  and  O_25
REMARK   17  A    between atoms: O_25  and  P_26
REMARK   18  A    between atoms: P_26  and  O_27
REMARK   19  A    between atoms: P_26  and  O_28
REMARK   20  A    between atoms: C_40  and  O_42
REMARK   21  A    between atoms: C_40  and  C_43
REMARK   22  A    between atoms: N_45  and  C_46
REMARK   23  A    between atoms: C_46  and  C_47
REMARK   24  A    between atoms: C_47  and  C_48
REMARK   25  A    between atoms: N_50  and  C_51
REMARK   26  A    between atoms: C_51  and  C_52
REMARK   27  A    between atoms: C_52  and  S_53
REMARK   28  A    between atoms: S_53  and  C_54
REMARK   29  A    between atoms: C_54  and  C_55
REMARK   30  A    between atoms: N_57  and  C_58
REMARK   31  A    between atoms: C_58  and  C_59
REMARK   32  A    between atoms: C_59  and  C_60
REMARK                            x       y       z     vdW  Elec       q    Type
REMARK                         _______ _______ _______ _____ _____    ______ ____
ROOT
ATOM      1  O   UNL     1       7.328   1.868  21.989  0.00  0.00    -0.286 OA
ENDROOT
BRANCH   1   2
ATOM      2  P   UNL     1       6.682   3.175  22.782  0.00  0.00    +0.483 P 
ATOM      3  O   UNL     1       7.464   3.300  24.100  0.00  0.00    -0.227 OA
BRANCH   2   4
ATOM      4  O   UNL     1       7.860   4.212  22.053  0.00  0.00    -0.302 OA
ATOM      5  H   UNL     1       7.717   5.077  22.492  0.00  0.00    +0.222 HD
ENDBRANCH   2   4
BRANCH   2   6
ATOM      6  O   UNL     1       5.505   2.138  23.510  0.00  0.00    -0.186 OA
BRANCH   6   7
ATOM      7  P   UNL     1       4.381   3.386  23.167  0.00  0.00    +0.483 P 
ATOM      8  O   UNL     1       3.817   3.245  21.772  0.00  0.00    -0.227 OA
BRANCH   7   9
ATOM      9  O   UNL     1       5.277   4.707  23.334  0.00  0.00    -0.302 OA
ATOM     10  H   UNL     1       4.975   5.467  22.799  0.00  0.00    +0.222 HD
ENDBRANCH   7   9
BRANCH   7  11
ATOM     11  O   UNL     1       3.169   3.849  24.168  0.00  0.00    -0.284 OA
BRANCH  11  12
ATOM     12  C   UNL     1       3.837   4.447  25.348  0.00  0.00    +0.206 C 
BRANCH  12  13
ATOM     13  C   UNL     1       4.574   3.636  26.430  0.00  0.00    +0.179 C 
ATOM     14  C   UNL     1       4.740   4.393  27.712  0.00  0.00    +0.194 C 
ATOM     15  C   UNL     1       3.898   3.611  28.729  0.00  0.00    +0.196 C 
ATOM     16  C   UNL     1       3.218   2.491  27.945  0.00  0.00    +0.253 C 
ATOM     17  O   UNL     1       3.905   2.388  26.694  0.00  0.00    -0.346 OA
BRANCH  16  18
ATOM     18  N   UNL     1       3.254   1.210  28.637  0.00  0.00    -0.286 N 
ATOM     19  C   UNL     1       2.629   0.059  28.201  0.00  0.00    +0.167 A 
ATOM     20  N   UNL     1       1.789  -0.077  27.159  0.00  0.00    -0.216 NA
ATOM     21  C   UNL     1       1.425  -1.377  27.019  0.00  0.00    +0.225 A 
ATOM     22  N   UNL     1       1.820  -2.449  27.739  0.00  0.00    -0.219 NA
ATOM     23  C   UNL     1       2.657  -2.251  28.783  0.00  0.00    +0.147 A 
ATOM     24  N   UNL     1       3.086  -3.353  29.514  0.00  0.00    -0.341 N 
ATOM     25  H   UNL     1       3.937  -3.174  30.039  0.00  0.00    +0.144 HD
ATOM     26  H   UNL     1       3.046  -4.212  28.979  0.00  0.00    +0.144 HD
ATOM     27  C   UNL     1       3.073  -0.938  29.060  0.00  0.00    +0.147 A 
ATOM     28  N   UNL     1       3.885  -0.413  30.038  0.00  0.00    -0.231 NA
ATOM     29  C   UNL     1       3.951   0.877  29.772  0.00  0.00    +0.203 A 
ENDBRANCH  16  18
BRANCH  15  30
ATOM     30  O   UNL     1       2.963   4.507  29.331  0.00  0.00    -0.385 OA
ATOM     31  H   UNL     1       2.768   4.183  30.236  0.00  0.00    +0.210 HD
ENDBRANCH  15  30
BRANCH  14  32
ATOM     32  O   UNL     1       6.134   4.469  28.145  0.00  0.00    -0.278 OA
BRANCH  32  33
ATOM     33  P   UNL     1       6.761   2.938  27.642  0.00  0.00    +0.473 P 
ATOM     34  O   UNL     1       7.322   1.567  27.191  0.00  0.00    -0.228 OA
BRANCH  33  35
ATOM     35  O   UNL     1       7.555   2.966  29.070  0.00  0.00    -0.303 OA
ATOM     36  H   UNL     1       7.755   3.907  29.240  0.00  0.00    +0.222 HD
ENDBRANCH  33  35
BRANCH  33  37
ATOM     37  O   UNL     1       7.894   3.841  26.878  0.00  0.00    -0.303 OA
ATOM     38  H   UNL     1       8.411   3.322  26.239  0.00  0.00    +0.222 HD
ENDBRANCH  33  37
ENDBRANCH  32  33
ENDBRANCH  14  32
ENDBRANCH  12  13
ENDBRANCH  11  12
ENDBRANCH   7  11
ENDBRANCH   6   7
ENDBRANCH   2   6
ENDBRANCH   1   2
BRANCH   1  39
ATOM     39  C   UNL     1       7.519   0.700  22.782  0.00  0.00    +0.181 C 
BRANCH  39  41
ATOM     40  C   UNL     1       9.807   1.094  21.858  0.00  0.00    +0.016 C 
ATOM     41  C   UNL     1       8.983   0.208  22.826  0.00  0.00    +0.024 C 
ATOM     42  C   UNL     1       9.579   0.394  24.233  0.00  0.00    +0.016 C 
BRANCH  41  43
ATOM     43  C   UNL     1       9.058  -1.299  22.395  0.00  0.00    +0.208 C 
BRANCH  43  44
ATOM     44  C   UNL     1       9.138  -2.322  23.566  0.00  0.00    +0.242 C 
ATOM     45  N   UNL     1       7.981  -2.430  24.319  0.00  0.00    -0.313 N 
ATOM     46  H   UNL     1       7.139  -2.137  23.829  0.00  0.00    +0.149 HD
ATOM     47  O   UNL     1      10.152  -2.941  23.874  0.00  0.00    -0.273 OA
BRANCH  45  48
ATOM     48  C   UNL     1       7.942  -3.456  25.345  0.00  0.00    +0.113 C 
BRANCH  48  49
ATOM     49  C   UNL     1       6.622  -3.551  26.095  0.00  0.00    +0.114 C 
BRANCH  49  50
ATOM     50  C   UNL     1       6.520  -4.911  26.758  0.00  0.00    +0.215 C 
ATOM     51  N   UNL     1       5.958  -4.884  28.015  0.00  0.00    -0.314 N 
ATOM     52  H   UNL     1       5.481  -4.047  28.329  0.00  0.00    +0.149 HD
ATOM     53  O   UNL     1       6.904  -5.950  26.231  0.00  0.00    -0.276 OA
BRANCH  51  54
ATOM     54  C   UNL     1       5.706  -6.125  28.732  0.00  0.00    +0.115 C 
BRANCH  54  55
ATOM     55  C   UNL     1       4.380  -6.775  28.347  0.00  0.00    +0.088 C 
BRANCH  55  56
ATOM     56  S   UNL     1       3.259  -7.135  29.760  0.00  0.00    -0.150 S 
BRANCH  56  57
ATOM     57  C   UNL     1       1.655  -6.539  29.123  0.00  0.00    +0.164 C 
BRANCH  57  58
ATOM     58  C   UNL     1       1.563  -6.596  27.606  0.00  0.00    +0.223 C 
ATOM     59  N   UNL     1       1.624  -5.372  26.966  0.00  0.00    -0.314 N 
ATOM     60  H   UNL     1       1.459  -4.529  27.507  0.00  0.00    +0.149 HD
ATOM     61  O   UNL     1       1.473  -7.655  26.989  0.00  0.00    -0.275 OA
BRANCH  59  62
ATOM     62  C   UNL     1       1.400  -5.307  25.531  0.00  0.00    +0.109 C 
BRANCH  62  63
ATOM     63  C   UNL     1       2.460  -4.504  24.775  0.00  0.00    +0.056 C 
BRANCH  63  64
ATOM     64  C   UNL     1       3.583  -5.344  24.245  0.00  0.00    -0.021 A 
ATOM     65  C   UNL     1       4.619  -4.927  23.346  0.00  0.00    +0.003 A 
ATOM     66  C   UNL     1       5.446  -6.027  23.120  0.00  0.00    +0.047 A 
ATOM     67  C   UNL     1       6.566  -5.977  22.283  0.00  0.00    +0.026 A 
ATOM     68  C   UNL     1       6.854  -4.760  21.659  0.00  0.00    +0.002 A 
ATOM     69  C   UNL     1       6.052  -3.641  21.867  0.00  0.00    +0.001 A 
ATOM     70  N   UNL     1       4.942  -7.072  23.860  0.00  0.00    -0.360 N 
ATOM     71  H   UNL     1       5.347  -7.997  23.894  0.00  0.00    +0.165 HD
ATOM     72  C   UNL     1       4.934  -3.710  22.705  0.00  0.00    +0.010 A 
ATOM     73  C   UNL     1       3.829  -6.670  24.545  0.00  0.00    +0.087 A 
ENDBRANCH  63  64
ENDBRANCH  62  63
ENDBRANCH  59  62
ENDBRANCH  57  58
ENDBRANCH  56  57
ENDBRANCH  55  56
ENDBRANCH  54  55
ENDBRANCH  51  54
ENDBRANCH  49  50
ENDBRANCH  48  49
ENDBRANCH  45  48
ENDBRANCH  43  44
BRANCH  43  74
ATOM     74  O   UNL     1      10.162  -1.544  21.507  0.00  0.00    -0.382 OA
ATOM     75  H   UNL     1       9.821  -2.020  20.733  0.00  0.00    +0.210 HD
ENDBRANCH  43  74
ENDBRANCH  41  43
ENDBRANCH  39  41
ENDBRANCH   1  39
TORSDOF 30
ENDMDL
MODEL 8
REMARK VINA RESULT:      -5.1      3.452      8.161
REMARK  Name = 
REMARK  32 active torsions:
REMARK  status: ('A' for Active; 'I' for Inactive)
REMARK    1  A    between atoms: C_1  and  C_2
REMARK    2  A    between atoms: C_2  and  C_3
REMARK    3  A    between atoms: C_2  and  C_4
REMARK    4  A    between atoms: C_2  and  C_40
REMARK    5  A    between atoms: C_4  and  O_5
REMARK    6  A    between atoms: O_5  and  P_6
REMARK    7  A    between atoms: P_6  and  O_7
REMARK    8  A    between atoms: P_6  and  O_9
REMARK    9  A    between atoms: O_9  and  P_10
REMARK   10  A    between atoms: P_10  and  O_11
REMARK   11  A    between atoms: P_10  and  O_13
REMARK   12  A    between atoms: O_13  and  C_14
REMARK   13  A    between atoms: C_14  and  C_15
REMARK   14  A    between atoms: C_18  and  N_30
REMARK   15  A    between atoms: C_20  and  O_22
REMARK   16  A    between atoms: C_23  and  O_25
REMARK   17  A    between atoms: O_25  and  P_26
REMARK   18  A    between atoms: P_26  and  O_27
REMARK   19  A    between atoms: P_26  and  O_28
REMARK   20  A    between atoms: C_40  and  O_42
REMARK   21  A    between atoms: C_40  and  C_43
REMARK   22  A    between atoms: N_45  and  C_46
REMARK   23  A    between atoms: C_46  and  C_47
REMARK   24  A    between atoms: C_47  and  C_48
REMARK   25  A    between atoms: N_50  and  C_51
REMARK   26  A    between atoms: C_51  and  C_52
REMARK   27  A    between atoms: C_52  and  S_53
REMARK   28  A    between atoms: S_53  and  C_54
REMARK   29  A    between atoms: C_54  and  C_55
REMARK   30  A    between atoms: N_57  and  C_58
REMARK   31  A    between atoms: C_58  and  C_59
REMARK   32  A    between atoms: C_59  and  C_60
REMARK                            x       y       z     vdW  Elec       q    Type
REMARK                         _______ _______ _______ _____ _____    ______ ____
ROOT
ATOM      1  O   UNL     1       9.300  -1.474  24.451  0.00  0.00    -0.286 OA
ENDROOT
BRANCH   1   2
ATOM      2  P   UNL     1       9.992  -0.667  23.177  0.00  0.00    +0.483 P 
ATOM      3  O   UNL     1      11.257   0.005  23.737  0.00  0.00    -0.227 OA
BRANCH   2   4
ATOM      4  O   UNL     1      10.962  -2.053  22.812  0.00  0.00    -0.302 OA
ATOM      5  H   UNL     1      11.119  -1.983  21.847  0.00  0.00    +0.222 HD
ENDBRANCH   2   4
BRANCH   2   6
ATOM      6  O   UNL     1       9.023   0.719  23.542  0.00  0.00    -0.186 OA
BRANCH   6   7
ATOM      7  P   UNL     1       8.977   0.974  21.848  0.00  0.00    +0.483 P 
ATOM      8  O   UNL     1       9.455  -0.248  21.099  0.00  0.00    -0.227 OA
BRANCH   7   9
ATOM      9  O   UNL     1       9.962   2.228  21.665  0.00  0.00    -0.302 OA
ATOM     10  H   UNL     1      10.476   2.216  20.834  0.00  0.00    +0.222 HD
ENDBRANCH   7   9
BRANCH   7  11
ATOM     11  O   UNL     1       7.704   1.611  21.036  0.00  0.00    -0.284 OA
BRANCH  11  12
ATOM     12  C   UNL     1       7.572   3.001  21.534  0.00  0.00    +0.206 C 
BRANCH  12  13
ATOM     13  C   UNL     1       6.964   3.377  22.898  0.00  0.00    +0.179 C 
ATOM     14  C   UNL     1       6.716   4.847  23.037  0.00  0.00    +0.194 C 
ATOM     15  C   UNL     1       5.190   4.971  23.140  0.00  0.00    +0.196 C 
ATOM     16  C   UNL     1       4.638   3.558  22.961  0.00  0.00    +0.253 C 
ATOM     17  O   UNL     1       5.738   2.661  23.140  0.00  0.00    -0.346 OA
BRANCH  16  18
ATOM     18  N   UNL     1       3.579   3.238  23.908  0.00  0.00    -0.286 N 
ATOM     19  C   UNL     1       3.726   3.215  25.281  0.00  0.00    +0.167 A 
ATOM     20  N   UNL     1       4.862   3.355  25.989  0.00  0.00    -0.216 NA
ATOM     21  C   UNL     1       4.589   3.328  27.317  0.00  0.00    +0.225 A 
ATOM     22  N   UNL     1       3.393   3.223  27.935  0.00  0.00    -0.219 NA
ATOM     23  C   UNL     1       2.287   3.073  27.173  0.00  0.00    +0.147 A 
ATOM     24  N   UNL     1       1.048   2.986  27.800  0.00  0.00    -0.341 N 
ATOM     25  H   UNL     1       0.273   3.209  27.183  0.00  0.00    +0.144 HD
ATOM     26  H   UNL     1       1.048   3.419  28.716  0.00  0.00    +0.144 HD
ATOM     27  C   UNL     1       2.441   3.040  25.777  0.00  0.00    +0.147 A 
ATOM     28  N   UNL     1       1.538   2.884  24.751  0.00  0.00    -0.231 NA
ATOM     29  C   UNL     1       2.255   2.981  23.647  0.00  0.00    +0.203 A 
ENDBRANCH  16  18
BRANCH  15  30
ATOM     30  O   UNL     1       4.736   5.870  22.128  0.00  0.00    -0.385 OA
ATOM     31  H   UNL     1       4.441   6.698  22.565  0.00  0.00    +0.210 HD
ENDBRANCH  15  30
BRANCH  14  32
ATOM     32  O   UNL     1       7.360   5.419  24.219  0.00  0.00    -0.278 OA
BRANCH  32  33
ATOM     33  P   UNL     1       9.012   4.958  23.996  0.00  0.00    +0.473 P 
ATOM     34  O   UNL     1      10.492   4.544  23.797  0.00  0.00    -0.228 OA
BRANCH  33  35
ATOM     35  O   UNL     1       9.293   5.910  25.294  0.00  0.00    -0.303 OA
ATOM     36  H   UNL     1       9.046   6.813  25.015  0.00  0.00    +0.222 HD
ENDBRANCH  33  35
BRANCH  33  37
ATOM     37  O   UNL     1       9.047   6.211  22.942  0.00  0.00    -0.303 OA
ATOM     38  H   UNL     1       8.227   6.282  22.425  0.00  0.00    +0.222 HD
ENDBRANCH  33  37
ENDBRANCH  32  33
ENDBRANCH  14  32
ENDBRANCH  12  13
ENDBRANCH  11  12
ENDBRANCH   7  11
ENDBRANCH   6   7
ENDBRANCH   2   6
ENDBRANCH   1   2
BRANCH   1  39
ATOM     39  C   UNL     1       7.953  -1.114  24.749  0.00  0.00    +0.181 C 
BRANCH  39  41
ATOM     40  C   UNL     1       7.065  -2.380  26.711  0.00  0.00    +0.016 C 
ATOM     41  C   UNL     1       7.653  -1.019  26.261  0.00  0.00    +0.024 C 
ATOM     42  C   UNL     1       8.948  -0.794  27.062  0.00  0.00    +0.016 C 
BRANCH  41  43
ATOM     43  C   UNL     1       6.632   0.142  26.535  0.00  0.00    +0.208 C 
BRANCH  43  44
ATOM     44  C   UNL     1       5.144  -0.299  26.663  0.00  0.00    +0.242 C 
ATOM     45  N   UNL     1       4.662  -0.336  27.962  0.00  0.00    -0.313 N 
ATOM     46  H   UNL     1       5.176   0.256  28.611  0.00  0.00    +0.149 HD
ATOM     47  O   UNL     1       4.448  -0.667  25.722  0.00  0.00    -0.273 OA
BRANCH  45  48
ATOM     48  C   UNL     1       3.249  -0.614  28.145  0.00  0.00    +0.113 C 
BRANCH  48  49
ATOM     49  C   UNL     1       2.942  -1.648  29.216  0.00  0.00    +0.114 C 
BRANCH  49  50
ATOM     50  C   UNL     1       3.576  -2.971  28.832  0.00  0.00    +0.215 C 
ATOM     51  N   UNL     1       3.910  -3.769  29.903  0.00  0.00    -0.314 N 
ATOM     52  H   UNL     1       3.550  -3.543  30.823  0.00  0.00    +0.149 HD
ATOM     53  O   UNL     1       3.782  -3.308  27.670  0.00  0.00    -0.276 OA
BRANCH  51  54
ATOM     54  C   UNL     1       4.437  -5.108  29.684  0.00  0.00    +0.115 C 
BRANCH  54  55
ATOM     55  C   UNL     1       3.696  -6.175  30.485  0.00  0.00    +0.088 C 
BRANCH  55  56
ATOM     56  S   UNL     1       2.741  -7.375  29.470  0.00  0.00    -0.150 S 
BRANCH  56  57
ATOM     57  C   UNL     1       2.122  -6.311  28.122  0.00  0.00    +0.164 C 
BRANCH  57  58
ATOM     58  C   UNL     1       1.898  -7.070  26.823  0.00  0.00    +0.223 C 
ATOM     59  N   UNL     1       2.967  -7.068  25.948  0.00  0.00    -0.314 N 
ATOM     60  H   UNL     1       3.701  -6.378  26.074  0.00  0.00    +0.149 HD
ATOM     61  O   UNL     1       0.854  -7.672  26.582  0.00  0.00    -0.275 OA
BRANCH  59  62
ATOM     62  C   UNL     1       2.804  -7.642  24.622  0.00  0.00    +0.109 C 
BRANCH  62  63
ATOM     63  C   UNL     1       2.587  -6.603  23.520  0.00  0.00    +0.056 C 
BRANCH  63  64
ATOM     64  C   UNL     1       3.516  -5.430  23.613  0.00  0.00    -0.021 A 
ATOM     65  C   UNL     1       4.817  -5.313  23.021  0.00  0.00    +0.003 A 
ATOM     66  C   UNL     1       5.323  -4.059  23.365  0.00  0.00    +0.047 A 
ATOM     67  C   UNL     1       6.583  -3.610  22.954  0.00  0.00    +0.026 A 
ATOM     68  C   UNL     1       7.349  -4.468  22.161  0.00  0.00    +0.002 A 
ATOM     69  C   UNL     1       6.872  -5.724  21.795  0.00  0.00    +0.001 A 
ATOM     70  N   UNL     1       4.366  -3.431  24.127  0.00  0.00    -0.360 N 
ATOM     71  H   UNL     1       4.460  -2.501  24.511  0.00  0.00    +0.165 HD
ATOM     72  C   UNL     1       5.611  -6.158  22.218  0.00  0.00    +0.010 A 
ATOM     73  C   UNL     1       3.274  -4.241  24.276  0.00  0.00    +0.087 A 
ENDBRANCH  63  64
ENDBRANCH  62  63
ENDBRANCH  59  62
ENDBRANCH  57  58
ENDBRANCH  56  57
ENDBRANCH  55  56
ENDBRANCH  54  55
ENDBRANCH  51  54
ENDBRANCH  49  50
ENDBRANCH  48  49
ENDBRANCH  45  48
ENDBRANCH  43  44
BRANCH  43  74
ATOM     74  O   UNL     1       6.712   1.168  25.531  0.00  0.00    -0.382 OA
ATOM     75  H   UNL     1       5.884   1.151  25.023  0.00  0.00    +0.210 HD
ENDBRANCH  43  74
ENDBRANCH  41  43
ENDBRANCH  39  41
ENDBRANCH   1  39
TORSDOF 30
ENDMDL
MODEL 9
REMARK VINA RESULT:      -5.1      3.849      9.306
REMARK  Name = 
REMARK  32 active torsions:
REMARK  status: ('A' for Active; 'I' for Inactive)
REMARK    1  A    between atoms: C_1  and  C_2
REMARK    2  A    between atoms: C_2  and  C_3
REMARK    3  A    between atoms: C_2  and  C_4
REMARK    4  A    between atoms: C_2  and  C_40
REMARK    5  A    between atoms: C_4  and  O_5
REMARK    6  A    between atoms: O_5  and  P_6
REMARK    7  A    between atoms: P_6  and  O_7
REMARK    8  A    between atoms: P_6  and  O_9
REMARK    9  A    between atoms: O_9  and  P_10
REMARK   10  A    between atoms: P_10  and  O_11
REMARK   11  A    between atoms: P_10  and  O_13
REMARK   12  A    between atoms: O_13  and  C_14
REMARK   13  A    between atoms: C_14  and  C_15
REMARK   14  A    between atoms: C_18  and  N_30
REMARK   15  A    between atoms: C_20  and  O_22
REMARK   16  A    between atoms: C_23  and  O_25
REMARK   17  A    between atoms: O_25  and  P_26
REMARK   18  A    between atoms: P_26  and  O_27
REMARK   19  A    between atoms: P_26  and  O_28
REMARK   20  A    between atoms: C_40  and  O_42
REMARK   21  A    between atoms: C_40  and  C_43
REMARK   22  A    between atoms: N_45  and  C_46
REMARK   23  A    between atoms: C_46  and  C_47
REMARK   24  A    between atoms: C_47  and  C_48
REMARK   25  A    between atoms: N_50  and  C_51
REMARK   26  A    between atoms: C_51  and  C_52
REMARK   27  A    between atoms: C_52  and  S_53
REMARK   28  A    between atoms: S_53  and  C_54
REMARK   29  A    between atoms: C_54  and  C_55
REMARK   30  A    between atoms: N_57  and  C_58
REMARK   31  A    between atoms: C_58  and  C_59
REMARK   32  A    between atoms: C_59  and  C_60
REMARK                            x       y       z     vdW  Elec       q    Type
REMARK                         _______ _______ _______ _____ _____    ______ ____
ROOT
ATOM      1  O   UNL     1       7.442   2.650  21.971  0.00  0.00    -0.286 OA
ENDROOT
BRANCH   1   2
ATOM      2  P   UNL     1       6.470   3.756  22.737  0.00  0.00    +0.483 P 
ATOM      3  O   UNL     1       7.231   4.186  24.002  0.00  0.00    -0.227 OA
BRANCH   2   4
ATOM      4  O   UNL     1       7.257   5.046  21.895  0.00  0.00    -0.302 OA
ATOM      5  H   UNL     1       6.845   5.033  21.006  0.00  0.00    +0.222 HD
ENDBRANCH   2   4
BRANCH   2   6
ATOM      6  O   UNL     1       5.682   2.465  23.578  0.00  0.00    -0.186 OA
BRANCH   6   7
ATOM      7  P   UNL     1       4.230   3.325  23.277  0.00  0.00    +0.483 P 
ATOM      8  O   UNL     1       3.912   3.357  21.800  0.00  0.00    -0.227 OA
BRANCH   7   9
ATOM      9  O   UNL     1       4.569   4.781  23.861  0.00  0.00    -0.302 OA
ATOM     10  H   UNL     1       5.416   4.831  24.346  0.00  0.00    +0.222 HD
ENDBRANCH   7   9
BRANCH   7  11
ATOM     11  O   UNL     1       2.831   3.109  24.101  0.00  0.00    -0.284 OA
BRANCH  11  12
ATOM     12  C   UNL     1       3.187   3.261  25.532  0.00  0.00    +0.206 C 
BRANCH  12  13
ATOM     13  C   UNL     1       3.599   2.096  26.451  0.00  0.00    +0.179 C 
ATOM     14  C   UNL     1       4.230   2.558  27.727  0.00  0.00    +0.194 C 
ATOM     15  C   UNL     1       3.248   2.118  28.822  0.00  0.00    +0.196 C 
ATOM     16  C   UNL     1       2.054   1.502  28.097  0.00  0.00    +0.253 C 
ATOM     17  O   UNL     1       2.475   1.247  26.753  0.00  0.00    -0.346 OA
BRANCH  16  18
ATOM     18  N   UNL     1       1.589   0.267  28.714  0.00  0.00    -0.286 N 
ATOM     19  C   UNL     1       1.160  -0.848  28.022  0.00  0.00    +0.167 A 
ATOM     20  N   UNL     1       0.971  -0.972  26.696  0.00  0.00    -0.216 NA
ATOM     21  C   UNL     1       0.595  -2.240  26.395  0.00  0.00    +0.225 A 
ATOM     22  N   UNL     1       0.443  -3.298  27.221  0.00  0.00    -0.219 NA
ATOM     23  C   UNL     1       0.634  -3.111  28.546  0.00  0.00    +0.147 A 
ATOM     24  N   UNL     1       0.502  -4.201  29.401  0.00  0.00    -0.341 N 
ATOM     25  H   UNL     1       0.973  -4.067  30.291  0.00  0.00    +0.144 HD
ATOM     26  H   UNL     1       0.652  -5.084  28.928  0.00  0.00    +0.144 HD
ATOM     27  C   UNL     1       0.986  -1.826  28.992  0.00  0.00    +0.147 A 
ATOM     28  N   UNL     1       1.226  -1.317  30.248  0.00  0.00    -0.231 NA
ATOM     29  C   UNL     1       1.558  -0.056  30.047  0.00  0.00    +0.203 A 
ENDBRANCH  16  18
BRANCH  15  30
ATOM     30  O   UNL     1       2.891   3.261  29.599  0.00  0.00    -0.385 OA
ATOM     31  H   UNL     1       3.266   3.149  30.498  0.00  0.00    +0.210 HD
ENDBRANCH  15  30
BRANCH  14  32
ATOM     32  O   UNL     1       5.549   1.968  27.950  0.00  0.00    -0.278 OA
BRANCH  32  33
ATOM     33  P   UNL     1       6.608   3.291  27.607  0.00  0.00    +0.473 P 
ATOM     34  O   UNL     1       7.555   4.478  27.300  0.00  0.00    -0.228 OA
BRANCH  33  35
ATOM     35  O   UNL     1       7.166   2.335  26.405  0.00  0.00    -0.303 OA
ATOM     36  H   UNL     1       6.568   1.563  26.387  0.00  0.00    +0.222 HD
ENDBRANCH  33  35
BRANCH  33  37
ATOM     37  O   UNL     1       7.568   2.601  28.740  0.00  0.00    -0.303 OA
ATOM     38  H   UNL     1       7.188   1.780  29.096  0.00  0.00    +0.222 HD
ENDBRANCH  33  37
ENDBRANCH  32  33
ENDBRANCH  14  32
ENDBRANCH  12  13
ENDBRANCH  11  12
ENDBRANCH   7  11
ENDBRANCH   6   7
ENDBRANCH   2   6
ENDBRANCH   1   2
BRANCH   1  39
ATOM     39  C   UNL     1       7.197   1.284  22.299  0.00  0.00    +0.181 C 
BRANCH  39  41
ATOM     40  C   UNL     1       9.445   0.557  21.485  0.00  0.00    +0.016 C 
ATOM     41  C   UNL     1       8.469   0.499  22.688  0.00  0.00    +0.024 C 
ATOM     42  C   UNL     1       9.177   1.163  23.882  0.00  0.00    +0.016 C 
BRANCH  41  43
ATOM     43  C   UNL     1       8.100  -0.989  23.028  0.00  0.00    +0.208 C 
BRANCH  43  44
ATOM     44  C   UNL     1       7.733  -1.258  24.517  0.00  0.00    +0.242 C 
ATOM     45  N   UNL     1       6.419  -0.973  24.849  0.00  0.00    -0.313 N 
ATOM     46  H   UNL     1       5.780  -0.985  24.057  0.00  0.00    +0.149 HD
ATOM     47  O   UNL     1       8.536  -1.617  25.373  0.00  0.00    -0.273 OA
BRANCH  45  48
ATOM     48  C   UNL     1       5.974  -1.321  26.186  0.00  0.00    +0.113 C 
BRANCH  48  49
ATOM     49  C   UNL     1       4.499  -1.674  26.290  0.00  0.00    +0.114 C 
BRANCH  49  50
ATOM     50  C   UNL     1       4.287  -2.599  27.473  0.00  0.00    +0.215 C 
ATOM     51  N   UNL     1       3.818  -3.849  27.134  0.00  0.00    -0.314 N 
ATOM     52  H   UNL     1       3.835  -4.141  26.164  0.00  0.00    +0.149 HD
ATOM     53  O   UNL     1       4.509  -2.271  28.634  0.00  0.00    -0.276 OA
BRANCH  51  54
ATOM     54  C   UNL     1       3.660  -4.874  28.155  0.00  0.00    +0.115 C 
BRANCH  54  55
ATOM     55  C   UNL     1       3.610  -6.286  27.576  0.00  0.00    +0.088 C 
BRANCH  55  56
ATOM     56  S   UNL     1       1.920  -6.904  27.200  0.00  0.00    -0.150 S 
BRANCH  56  57
ATOM     57  C   UNL     1       2.203  -7.849  25.663  0.00  0.00    +0.164 C 
BRANCH  57  58
ATOM     58  C   UNL     1       3.135  -7.137  24.694  0.00  0.00    +0.223 C 
ATOM     59  N   UNL     1       2.611  -6.007  24.096  0.00  0.00    -0.314 N 
ATOM     60  H   UNL     1       1.606  -5.867  24.111  0.00  0.00    +0.149 HD
ATOM     61  O   UNL     1       4.284  -7.520  24.482  0.00  0.00    -0.275 OA
BRANCH  59  62
ATOM     62  C   UNL     1       3.369  -5.340  23.049  0.00  0.00    +0.109 C 
BRANCH  62  63
ATOM     63  C   UNL     1       4.223  -4.174  23.550  0.00  0.00    +0.056 C 
BRANCH  63  64
ATOM     64  C   UNL     1       5.696  -4.390  23.370  0.00  0.00    -0.021 A 
ATOM     65  C   UNL     1       6.647  -4.722  24.390  0.00  0.00    +0.003 A 
ATOM     66  C   UNL     1       7.897  -4.827  23.779  0.00  0.00    +0.047 A 
ATOM     67  C   UNL     1       9.064  -5.139  24.485  0.00  0.00    +0.026 A 
ATOM     68  C   UNL     1       8.950  -5.356  25.861  0.00  0.00    +0.002 A 
ATOM     69  C   UNL     1       7.717  -5.265  26.501  0.00  0.00    +0.001 A 
ATOM     70  N   UNL     1       7.715  -4.580  22.438  0.00  0.00    -0.360 N 
ATOM     71  H   UNL     1       8.453  -4.596  21.748  0.00  0.00    +0.165 HD
ATOM     72  C   UNL     1       6.560  -4.948  25.779  0.00  0.00    +0.010 A 
ATOM     73  C   UNL     1       6.396  -4.325  22.180  0.00  0.00    +0.087 A 
ENDBRANCH  63  64
ENDBRANCH  62  63
ENDBRANCH  59  62
ENDBRANCH  57  58
ENDBRANCH  56  57
ENDBRANCH  55  56
ENDBRANCH  54  55
ENDBRANCH  51  54
ENDBRANCH  49  50
ENDBRANCH  48  49
ENDBRANCH  45  48
ENDBRANCH  43  44
BRANCH  43  74
ATOM     74  O   UNL     1       9.150  -1.896  22.652  0.00  0.00    -0.382 OA
ATOM     75  H   UNL     1       9.077  -2.055  21.697  0.00  0.00    +0.210 HD
ENDBRANCH  43  74
ENDBRANCH  41  43
ENDBRANCH  39  41
ENDBRANCH   1  39
TORSDOF 30
ENDMDL
