MODEL 1
REMARK VINA RESULT:      -6.7      0.000      0.000
REMARK  Name = 
REMARK  2 active torsions:
REMARK  status: ('A' for Active; 'I' for Inactive)
REMARK    1  A    between atoms: C_1  and  N_2
REMARK    2  A    between atoms: C_12  and  C_13
REMARK                            x       y       z     vdW  Elec       q    Type
REMARK                         _______ _______ _______ _____ _____    ______ ____
ROOT
ATOM      1  C   UNL     1       6.434  -6.237  22.110  0.00  0.00    +0.273 C 
ATOM      2  N   UNL     1       7.602  -5.556  22.624  0.00  0.00    -0.238 N 
ATOM      3  H   UNL     1       8.425  -6.141  22.712  0.00  0.00    +0.291 HD
ATOM      4  C   UNL     1       7.493  -4.477  23.478  0.00  0.00    +0.310 C 
ATOM      5  C   UNL     1       8.662  -4.202  24.393  0.00  0.00    +0.293 C 
ATOM      6  N   UNL     1       9.223  -2.907  23.967  0.00  0.00    -0.152 N 
ATOM      7  O   UNL     1      10.366  -2.968  23.398  0.00  0.00    -0.168 OA
ATOM      8  C   UNL     1       8.593  -1.752  24.164  0.00  0.00    +0.099 C 
ATOM      9  C   UNL     1       7.245  -1.781  24.811  0.00  0.00    +0.054 A 
ATOM     10  C   UNL     1       6.970  -0.839  25.814  0.00  0.00    +0.034 A 
ATOM     11  C   UNL     1       5.693  -0.769  26.371  0.00  0.00    +0.042 A 
ATOM     12  C   UNL     1       4.687  -1.630  25.946  0.00  0.00    +0.024 A 
ATOM     13  C   UNL     1       4.973  -2.595  24.982  0.00  0.00    +0.057 A 
ATOM     14 CL   UNL     1       5.350   0.397  27.590  0.00  0.00    -0.084 Cl
ATOM     15  C   UNL     1       6.254  -2.708  24.422  0.00  0.00    +0.185 A 
ATOM     16  N   UNL     1       6.414  -3.749  23.496  0.00  0.00    -0.044 NA
ENDROOT
BRANCH   8  17
ATOM     17  C   UNL     1       9.176  -0.440  23.721  0.00  0.00    +0.002 A 
ATOM     18  C   UNL     1       8.836   0.069  22.457  0.00  0.00    +0.010 A 
ATOM     19  C   UNL     1       9.353   1.291  22.011  0.00  0.00    +0.001 A 
ATOM     20  C   UNL     1      10.239   2.006  22.810  0.00  0.00    +0.000 A 
ATOM     21  C   UNL     1      10.589   1.513  24.065  0.00  0.00    +0.001 A 
ATOM     22  C   UNL     1      10.044   0.309  24.524  0.00  0.00    +0.010 A 
ENDBRANCH   8  17
TORSDOF 1
ENDMDL
MODEL 2
REMARK VINA RESULT:      -6.3      4.861      7.266
REMARK  Name = 
REMARK  2 active torsions:
REMARK  status: ('A' for Active; 'I' for Inactive)
REMARK    1  A    between atoms: C_1  and  N_2
REMARK    2  A    between atoms: C_12  and  C_13
REMARK                            x       y       z     vdW  Elec       q    Type
REMARK                         _______ _______ _______ _____ _____    ______ ____
ROOT
ATOM      1  C   UNL     1       4.815   5.747  25.058  0.00  0.00    +0.273 C 
ATOM      2  N   UNL     1       5.508   4.538  25.446  0.00  0.00    -0.238 N 
ATOM      3  H   UNL     1       5.141   4.093  26.279  0.00  0.00    +0.291 HD
ATOM      4  C   UNL     1       6.843   4.345  25.156  0.00  0.00    +0.310 C 
ATOM      5  C   UNL     1       7.612   3.399  26.047  0.00  0.00    +0.293 C 
ATOM      6  N   UNL     1       7.990   2.253  25.200  0.00  0.00    -0.152 N 
ATOM      7  O   UNL     1       7.381   1.159  25.458  0.00  0.00    -0.168 OA
ATOM      8  C   UNL     1       8.905   2.343  24.238  0.00  0.00    +0.099 C 
ATOM      9  C   UNL     1       9.543   3.672  23.988  0.00  0.00    +0.054 A 
ATOM     10  C   UNL     1      10.932   3.716  23.797  0.00  0.00    +0.034 A 
ATOM     11  C   UNL     1      11.551   4.920  23.462  0.00  0.00    +0.042 A 
ATOM     12  C   UNL     1      10.803   6.084  23.321  0.00  0.00    +0.024 A 
ATOM     13  C   UNL     1       9.430   6.049  23.556  0.00  0.00    +0.057 A 
ATOM     14 CL   UNL     1      13.253   4.971  23.212  0.00  0.00    -0.084 Cl
ATOM     15  C   UNL     1       8.783   4.859  23.919  0.00  0.00    +0.185 A 
ATOM     16  N   UNL     1       7.407   4.976  24.167  0.00  0.00    -0.044 NA
ENDROOT
BRANCH   8  17
ATOM     17  C   UNL     1       9.278   1.166  23.380  0.00  0.00    +0.002 A 
ATOM     18  C   UNL     1       8.855   1.132  22.042  0.00  0.00    +0.010 A 
ATOM     19  C   UNL     1       9.187   0.058  21.210  0.00  0.00    +0.001 A 
ATOM     20  C   UNL     1       9.923  -1.011  21.712  0.00  0.00    +0.000 A 
ATOM     21  C   UNL     1      10.346  -0.994  23.038  0.00  0.00    +0.001 A 
ATOM     22  C   UNL     1      10.044   0.097  23.860  0.00  0.00    +0.010 A 
ENDBRANCH   8  17
TORSDOF 1
ENDMDL
MODEL 3
REMARK VINA RESULT:      -6.2      0.981      1.505
REMARK  Name = 
REMARK  2 active torsions:
REMARK  status: ('A' for Active; 'I' for Inactive)
REMARK    1  A    between atoms: C_1  and  N_2
REMARK    2  A    between atoms: C_12  and  C_13
REMARK                            x       y       z     vdW  Elec       q    Type
REMARK                         _______ _______ _______ _____ _____    ______ ____
ROOT
ATOM      1  C   UNL     1       5.843  -5.767  23.508  0.00  0.00    +0.273 C 
ATOM      2  N   UNL     1       7.149  -5.160  23.637  0.00  0.00    -0.238 N 
ATOM      3  H   UNL     1       7.925  -5.805  23.538  0.00  0.00    +0.291 HD
ATOM      4  C   UNL     1       7.350  -4.036  24.413  0.00  0.00    +0.310 C 
ATOM      5  C   UNL     1       8.741  -3.814  24.956  0.00  0.00    +0.293 C 
ATOM      6  N   UNL     1       9.246  -2.590  24.306  0.00  0.00    -0.152 N 
ATOM      7  O   UNL     1      10.181  -2.771  23.453  0.00  0.00    -0.168 OA
ATOM      8  C   UNL     1       8.771  -1.380  24.588  0.00  0.00    +0.099 C 
ATOM      9  C   UNL     1       7.655  -1.269  25.578  0.00  0.00    +0.054 A 
ATOM     10  C   UNL     1       7.730  -0.262  26.552  0.00  0.00    +0.034 A 
ATOM     11  C   UNL     1       6.664  -0.061  27.429  0.00  0.00    +0.042 A 
ATOM     12  C   UNL     1       5.526  -0.857  27.352  0.00  0.00    +0.024 A 
ATOM     13  C   UNL     1       5.471  -1.887  26.414  0.00  0.00    +0.057 A 
ATOM     14 CL   UNL     1       6.747   1.184  28.613  0.00  0.00    -0.084 Cl
ATOM     15  C   UNL     1       6.537  -2.130  25.536  0.00  0.00    +0.185 A 
ATOM     16  N   UNL     1       6.367  -3.223  24.674  0.00  0.00    -0.044 NA
ENDROOT
BRANCH   8  17
ATOM     17  C   UNL     1       9.293  -0.142  23.915  0.00  0.00    +0.002 A 
ATOM     18  C   UNL     1      10.363   0.556  24.497  0.00  0.00    +0.010 A 
ATOM     19  C   UNL     1      10.880   1.709  23.897  0.00  0.00    +0.001 A 
ATOM     20  C   UNL     1      10.316   2.198  22.723  0.00  0.00    +0.000 A 
ATOM     21  C   UNL     1       9.251   1.519  22.136  0.00  0.00    +0.001 A 
ATOM     22  C   UNL     1       8.757   0.347  22.717  0.00  0.00    +0.010 A 
ENDBRANCH   8  17
TORSDOF 1
ENDMDL
MODEL 4
REMARK VINA RESULT:      -6.2      2.741      5.526
REMARK  Name = 
REMARK  2 active torsions:
REMARK  status: ('A' for Active; 'I' for Inactive)
REMARK    1  A    between atoms: C_1  and  N_2
REMARK    2  A    between atoms: C_12  and  C_13
REMARK                            x       y       z     vdW  Elec       q    Type
REMARK                         _______ _______ _______ _____ _____    ______ ____
ROOT
ATOM      1  C   UNL     1      11.579   4.147  23.347  0.00  0.00    +0.273 C 
ATOM      2  N   UNL     1      10.889   3.136  22.576  0.00  0.00    -0.238 N 
ATOM      3  H   UNL     1      11.002   3.222  21.572  0.00  0.00    +0.291 HD
ATOM      4  C   UNL     1       9.733   2.538  23.037  0.00  0.00    +0.310 C 
ATOM      5  C   UNL     1       8.792   1.969  22.003  0.00  0.00    +0.293 C 
ATOM      6  N   UNL     1       8.788   0.509  22.210  0.00  0.00    -0.152 N 
ATOM      7  O   UNL     1       9.361  -0.174  21.293  0.00  0.00    -0.168 OA
ATOM      8  C   UNL     1       8.224  -0.064  23.269  0.00  0.00    +0.099 C 
ATOM      9  C   UNL     1       7.604   0.818  24.306  0.00  0.00    +0.054 A 
ATOM     10  C   UNL     1       6.348   0.457  24.819  0.00  0.00    +0.034 A 
ATOM     11  C   UNL     1       5.782   1.197  25.858  0.00  0.00    +0.042 A 
ATOM     12  C   UNL     1       6.449   2.297  26.388  0.00  0.00    +0.024 A 
ATOM     13  C   UNL     1       7.674   2.681  25.847  0.00  0.00    +0.057 A 
ATOM     14 CL   UNL     1       4.251   0.746  26.498  0.00  0.00    -0.084 Cl
ATOM     15  C   UNL     1       8.257   1.973  24.786  0.00  0.00    +0.185 A 
ATOM     16  N   UNL     1       9.470   2.495  24.311  0.00  0.00    -0.044 NA
ENDROOT
BRANCH   8  17
ATOM     17  C   UNL     1       8.230  -1.553  23.469  0.00  0.00    +0.002 A 
ATOM     18  C   UNL     1       9.167  -2.123  24.347  0.00  0.00    +0.010 A 
ATOM     19  C   UNL     1       9.200  -3.505  24.564  0.00  0.00    +0.001 A 
ATOM     20  C   UNL     1       8.318  -4.340  23.885  0.00  0.00    +0.000 A 
ATOM     21  C   UNL     1       7.386  -3.789  23.008  0.00  0.00    +0.001 A 
ATOM     22  C   UNL     1       7.329  -2.405  22.818  0.00  0.00    +0.010 A 
ENDBRANCH   8  17
TORSDOF 1
ENDMDL
MODEL 5
REMARK VINA RESULT:      -6.2      4.677      6.595
REMARK  Name = 
REMARK  2 active torsions:
REMARK  status: ('A' for Active; 'I' for Inactive)
REMARK    1  A    between atoms: C_1  and  N_2
REMARK    2  A    between atoms: C_12  and  C_13
REMARK                            x       y       z     vdW  Elec       q    Type
REMARK                         _______ _______ _______ _____ _____    ______ ____
ROOT
ATOM      1  C   UNL     1       2.700   3.839  21.606  0.00  0.00    +0.273 C 
ATOM      2  N   UNL     1       3.403   2.995  22.548  0.00  0.00    -0.238 N 
ATOM      3  H   UNL     1       2.803   2.494  23.193  0.00  0.00    +0.291 HD
ATOM      4  C   UNL     1       4.683   3.293  22.970  0.00  0.00    +0.310 C 
ATOM      5  C   UNL     1       5.110   2.750  24.313  0.00  0.00    +0.293 C 
ATOM      6  N   UNL     1       6.185   1.779  24.041  0.00  0.00    -0.152 N 
ATOM      7  O   UNL     1       5.876   0.554  24.238  0.00  0.00    -0.168 OA
ATOM      8  C   UNL     1       7.395   2.145  23.628  0.00  0.00    +0.099 C 
ATOM      9  C   UNL     1       7.654   3.600  23.395  0.00  0.00    +0.054 A 
ATOM     10  C   UNL     1       8.858   4.143  23.870  0.00  0.00    +0.034 A 
ATOM     11  C   UNL     1       9.183   5.469  23.587  0.00  0.00    +0.042 A 
ATOM     12  C   UNL     1       8.320   6.265  22.840  0.00  0.00    +0.024 A 
ATOM     13  C   UNL     1       7.104   5.738  22.408  0.00  0.00    +0.057 A 
ATOM     14 CL   UNL     1      10.666   6.132  24.155  0.00  0.00    -0.084 Cl
ATOM     15  C   UNL     1       6.738   4.416  22.699  0.00  0.00    +0.185 A 
ATOM     16  N   UNL     1       5.470   4.030  22.240  0.00  0.00    -0.044 NA
ENDROOT
BRANCH   8  17
ATOM     17  C   UNL     1       8.480   1.143  23.351  0.00  0.00    +0.002 A 
ATOM     18  C   UNL     1       8.759   0.783  22.022  0.00  0.00    +0.010 A 
ATOM     19  C   UNL     1       9.766  -0.141  21.724  0.00  0.00    +0.001 A 
ATOM     20  C   UNL     1      10.489  -0.740  22.751  0.00  0.00    +0.000 A 
ATOM     21  C   UNL     1      10.222  -0.396  24.074  0.00  0.00    +0.001 A 
ATOM     22  C   UNL     1       9.239   0.554  24.370  0.00  0.00    +0.010 A 
ENDBRANCH   8  17
TORSDOF 1
ENDMDL
MODEL 6
REMARK VINA RESULT:      -6.0      2.164      2.367
REMARK  Name = 
REMARK  2 active torsions:
REMARK  status: ('A' for Active; 'I' for Inactive)
REMARK    1  A    between atoms: C_1  and  N_2
REMARK    2  A    between atoms: C_12  and  C_13
REMARK                            x       y       z     vdW  Elec       q    Type
REMARK                         _______ _______ _______ _____ _____    ______ ____
ROOT
ATOM      1  C   UNL     1       5.122  -6.531  26.444  0.00  0.00    +0.273 C 
ATOM      2  N   UNL     1       6.471  -6.062  26.220  0.00  0.00    -0.238 N 
ATOM      3  H   UNL     1       7.191  -6.757  26.383  0.00  0.00    +0.291 HD
ATOM      4  C   UNL     1       6.815  -4.737  26.397  0.00  0.00    +0.310 C 
ATOM      5  C   UNL     1       8.260  -4.435  26.711  0.00  0.00    +0.293 C 
ATOM      6  N   UNL     1       8.784  -3.684  25.556  0.00  0.00    -0.152 N 
ATOM      7  O   UNL     1       9.626  -4.315  24.830  0.00  0.00    -0.168 OA
ATOM      8  C   UNL     1       8.418  -2.434  25.288  0.00  0.00    +0.099 C 
ATOM      9  C   UNL     1       7.404  -1.786  26.176  0.00  0.00    +0.054 A 
ATOM     10  C   UNL     1       7.631  -0.463  26.588  0.00  0.00    +0.034 A 
ATOM     11  C   UNL     1       6.663   0.209  27.333  0.00  0.00    +0.042 A 
ATOM     12  C   UNL     1       5.473  -0.421  27.680  0.00  0.00    +0.024 A 
ATOM     13  C   UNL     1       5.267  -1.749  27.309  0.00  0.00    +0.057 A 
ATOM     14 CL   UNL     1       6.934   1.836  27.825  0.00  0.00    -0.084 Cl
ATOM     15  C   UNL     1       6.232  -2.460  26.582  0.00  0.00    +0.185 A 
ATOM     16  N   UNL     1       5.915  -3.800  26.314  0.00  0.00    -0.044 NA
ENDROOT
BRANCH   8  17
ATOM     17  C   UNL     1       8.957  -1.681  24.104  0.00  0.00    +0.002 A 
ATOM     18  C   UNL     1       8.359  -1.859  22.847  0.00  0.00    +0.010 A 
ATOM     19  C   UNL     1       8.829  -1.171  21.723  0.00  0.00    +0.001 A 
ATOM     20  C   UNL     1       9.922  -0.317  21.834  0.00  0.00    +0.000 A 
ATOM     21  C   UNL     1      10.529  -0.133  23.074  0.00  0.00    +0.001 A 
ATOM     22  C   UNL     1      10.037  -0.794  24.204  0.00  0.00    +0.010 A 
ENDBRANCH   8  17
TORSDOF 1
ENDMDL
MODEL 7
REMARK VINA RESULT:      -5.9      2.878      5.639
REMARK  Name = 
REMARK  2 active torsions:
REMARK  status: ('A' for Active; 'I' for Inactive)
REMARK    1  A    between atoms: C_1  and  N_2
REMARK    2  A    between atoms: C_12  and  C_13
REMARK                            x       y       z     vdW  Elec       q    Type
REMARK                         _______ _______ _______ _____ _____    ______ ____
ROOT
ATOM      1  C   UNL     1       3.348   0.366  27.491  0.00  0.00    +0.273 C 
ATOM      2  N   UNL     1       4.248  -0.766  27.445  0.00  0.00    -0.238 N 
ATOM      3  H   UNL     1       4.428  -1.197  28.344  0.00  0.00    +0.291 HD
ATOM      4  C   UNL     1       5.231  -0.870  26.481  0.00  0.00    +0.310 C 
ATOM      5  C   UNL     1       6.440  -1.709  26.817  0.00  0.00    +0.293 C 
ATOM      6  N   UNL     1       6.407  -2.863  25.900  0.00  0.00    -0.152 N 
ATOM      7  O   UNL     1       6.135  -3.987  26.446  0.00  0.00    -0.168 OA
ATOM      8  C   UNL     1       6.650  -2.751  24.597  0.00  0.00    +0.099 C 
ATOM      9  C   UNL     1       6.930  -1.390  24.042  0.00  0.00    +0.054 A 
ATOM     10  C   UNL     1       7.989  -1.249  23.132  0.00  0.00    +0.034 A 
ATOM     11  C   UNL     1       8.218  -0.019  22.517  0.00  0.00    +0.042 A 
ATOM     12  C   UNL     1       7.409   1.076  22.801  0.00  0.00    +0.024 A 
ATOM     13  C   UNL     1       6.386   0.947  23.739  0.00  0.00    +0.057 A 
ATOM     14 CL   UNL     1       9.506   0.151  21.389  0.00  0.00    -0.084 Cl
ATOM     15  C   UNL     1       6.147  -0.270  24.393  0.00  0.00    +0.185 A 
ATOM     16  N   UNL     1       5.115  -0.247  25.343  0.00  0.00    -0.044 NA
ENDROOT
BRANCH   8  17
ATOM     17  C   UNL     1       6.610  -3.936  23.673  0.00  0.00    +0.002 A 
ATOM     18  C   UNL     1       5.412  -4.249  23.011  0.00  0.00    +0.010 A 
ATOM     19  C   UNL     1       5.337  -5.340  22.139  0.00  0.00    +0.001 A 
ATOM     20  C   UNL     1       6.450  -6.151  21.938  0.00  0.00    +0.000 A 
ATOM     21  C   UNL     1       7.645  -5.855  22.590  0.00  0.00    +0.001 A 
ATOM     22  C   UNL     1       7.729  -4.744  23.435  0.00  0.00    +0.010 A 
ENDBRANCH   8  17
TORSDOF 1
ENDMDL
MODEL 8
REMARK VINA RESULT:      -5.9      3.259      4.513
REMARK  Name = 
REMARK  2 active torsions:
REMARK  status: ('A' for Active; 'I' for Inactive)
REMARK    1  A    between atoms: C_1  and  N_2
REMARK    2  A    between atoms: C_12  and  C_13
REMARK                            x       y       z     vdW  Elec       q    Type
REMARK                         _______ _______ _______ _____ _____    ______ ____
ROOT
ATOM      1  C   UNL     1       9.251  -2.591  23.366  0.00  0.00    +0.273 C 
ATOM      2  N   UNL     1       9.918  -1.316  23.515  0.00  0.00    -0.238 N 
ATOM      3  H   UNL     1      10.928  -1.359  23.445  0.00  0.00    +0.291 HD
ATOM      4  C   UNL     1       9.376  -0.301  24.278  0.00  0.00    +0.310 C 
ATOM      5  C   UNL     1      10.332   0.718  24.849  0.00  0.00    +0.293 C 
ATOM      6  N   UNL     1      10.010   1.997  24.192  0.00  0.00    -0.152 N 
ATOM      7  O   UNL     1      10.887   2.422  23.364  0.00  0.00    -0.168 OA
ATOM      8  C   UNL     1       8.891   2.672  24.444  0.00  0.00    +0.099 C 
ATOM      9  C   UNL     1       7.909   2.082  25.406  0.00  0.00    +0.054 A 
ATOM     10  C   UNL     1       7.331   2.928  26.365  0.00  0.00    +0.034 A 
ATOM     11  C   UNL     1       6.338   2.440  27.214  0.00  0.00    +0.042 A 
ATOM     12  C   UNL     1       5.917   1.117  27.124  0.00  0.00    +0.024 A 
ATOM     13  C   UNL     1       6.524   0.267  26.202  0.00  0.00    +0.057 A 
ATOM     14 CL   UNL     1       5.616   3.480  28.380  0.00  0.00    -0.084 Cl
ATOM     15  C   UNL     1       7.543   0.721  25.352  0.00  0.00    +0.185 A 
ATOM     16  N   UNL     1       8.094  -0.251  24.504  0.00  0.00    -0.044 NA
ENDROOT
BRANCH   8  17
ATOM     17  C   UNL     1       8.574   3.974  23.763  0.00  0.00    +0.002 A 
ATOM     18  C   UNL     1       9.293   5.127  24.120  0.00  0.00    +0.010 A 
ATOM     19  C   UNL     1       9.031   6.355  23.505  0.00  0.00    +0.001 A 
ATOM     20  C   UNL     1       8.028   6.456  22.545  0.00  0.00    +0.000 A 
ATOM     21  C   UNL     1       7.304   5.322  22.184  0.00  0.00    +0.001 A 
ATOM     22  C   UNL     1       7.590   4.087  22.774  0.00  0.00    +0.010 A 
ENDBRANCH   8  17
TORSDOF 1
ENDMDL
MODEL 9
REMARK VINA RESULT:      -5.8      5.508      7.369
REMARK  Name = 
REMARK  2 active torsions:
REMARK  status: ('A' for Active; 'I' for Inactive)
REMARK    1  A    between atoms: C_1  and  N_2
REMARK    2  A    between atoms: C_12  and  C_13
REMARK                            x       y       z     vdW  Elec       q    Type
REMARK                         _______ _______ _______ _____ _____    ______ ____
ROOT
ATOM      1  C   UNL     1       3.499   4.945  24.769  0.00  0.00    +0.273 C 
ATOM      2  N   UNL     1       4.613   5.382  23.956  0.00  0.00    -0.238 N 
ATOM      3  H   UNL     1       4.351   5.905  23.128  0.00  0.00    +0.291 HD
ATOM      4  C   UNL     1       5.798   4.674  23.913  0.00  0.00    +0.310 C 
ATOM      5  C   UNL     1       6.649   4.831  22.677  0.00  0.00    +0.293 C 
ATOM      6  N   UNL     1       7.887   5.503  23.112  0.00  0.00    -0.152 N 
ATOM      7  O   UNL     1       8.022   6.710  22.713  0.00  0.00    -0.168 OA
ATOM      8  C   UNL     1       8.806   4.900  23.861  0.00  0.00    +0.099 C 
ATOM      9  C   UNL     1       8.547   3.495  24.306  0.00  0.00    +0.054 A 
ATOM     10  C   UNL     1       9.597   2.568  24.219  0.00  0.00    +0.034 A 
ATOM     11  C   UNL     1       9.427   1.276  24.716  0.00  0.00    +0.042 A 
ATOM     12  C   UNL     1       8.221   0.894  25.294  0.00  0.00    +0.024 A 
ATOM     13  C   UNL     1       7.164   1.801  25.339  0.00  0.00    +0.057 A 
ATOM     14 CL   UNL     1      10.718   0.143  24.624  0.00  0.00    -0.084 Cl
ATOM     15  C   UNL     1       7.296   3.099  24.824  0.00  0.00    +0.185 A 
ATOM     16  N   UNL     1       6.142   3.893  24.896  0.00  0.00    -0.044 NA
ENDROOT
BRANCH   8  17
ATOM     17  C   UNL     1      10.062   5.599  24.300  0.00  0.00    +0.002 A 
ATOM     18  C   UNL     1      10.020   6.444  25.421  0.00  0.00    +0.010 A 
ATOM     19  C   UNL     1      11.169   7.107  25.864  0.00  0.00    +0.001 A 
ATOM     20  C   UNL     1      12.370   6.957  25.177  0.00  0.00    +0.000 A 
ATOM     21  C   UNL     1      12.426   6.126  24.062  0.00  0.00    +0.001 A 
ATOM     22  C   UNL     1      11.286   5.435  23.640  0.00  0.00    +0.010 A 
ENDBRANCH   8  17
TORSDOF 1
ENDMDL
