MODEL 1
REMARK VINA RESULT:      -5.9      0.000      0.000
REMARK  Name = 
REMARK  9 active torsions:
REMARK  status: ('A' for Active; 'I' for Inactive)
REMARK    1  A    between atoms: C_2  and  C_3
REMARK    2  A    between atoms: C_3  and  C_4
REMARK    3  A    between atoms: C_6  and  O_7
REMARK    4  A    between atoms: O_7  and  C_8
REMARK    5  A    between atoms: C_8  and  C_9
REMARK    6  A    between atoms: C_9  and  C_10
REMARK    7  A    between atoms: C_10  and  C_11
REMARK    8  A    between atoms: C_12  and  O_13
REMARK    9  A    between atoms: O_13  and  C_14
REMARK                            x       y       z     vdW  Elec       q    Type
REMARK                         _______ _______ _______ _____ _____    ______ ____
ROOT
ATOM      1  C   UNL     1       8.958  -1.991  23.347  0.00  0.00    -0.042 A 
ATOM      2  C   UNL     1       9.820  -2.840  24.045  0.00  0.00    +0.007 A 
ATOM      3  C   UNL     1       9.315  -3.912  24.785  0.00  0.00    +0.049 A 
ATOM      4  C   UNL     1       7.937  -4.152  24.841  0.00  0.00    +0.162 A 
ATOM      5  C   UNL     1       7.062  -3.304  24.133  0.00  0.00    +0.162 A 
ATOM      6  C   UNL     1       7.577  -2.223  23.407  0.00  0.00    +0.053 A 
ENDROOT
BRANCH   4   7
ATOM      7  O   UNL     1       7.357  -5.181  25.541  0.00  0.00    -0.491 OA
ATOM      8  C   UNL     1       7.554  -5.209  26.948  0.00  0.00    +0.277 C 
ENDBRANCH   4   7
BRANCH   1   9
ATOM      9  C   UNL     1       9.508  -0.841  22.535  0.00  0.00    +0.059 C 
BRANCH   9  10
ATOM     10  C   UNL     1       8.739   0.480  22.722  0.00  0.00    +0.096 C 
ATOM     11  N   UNL     1       9.406   1.369  23.651  0.00  0.00    -0.295 N 
ATOM     12  H   UNL     1       9.534   1.204  24.639  0.00  0.00    +0.151 HD
ATOM     13  C   UNL     1      10.202   2.276  22.977  0.00  0.00    +0.300 C 
ATOM     14  O   UNL     1      11.013   3.031  23.476  0.00  0.00    -0.253 OA
ATOM     15  N   UNL     1       9.915   2.164  21.628  0.00  0.00    -0.298 N 
ATOM     16  H   UNL     1      10.288   2.838  20.973  0.00  0.00    +0.150 HD
ATOM     17  C   UNL     1       8.782   1.300  21.425  0.00  0.00    +0.128 C 
ENDBRANCH   9  10
ENDBRANCH   1   9
BRANCH   5  18
ATOM     18  O   UNL     1       5.716  -3.566  24.245  0.00  0.00    -0.488 OA
BRANCH  18  19
ATOM     19  C   UNL     1       5.027  -3.833  23.022  0.00  0.00    +0.229 C 
BRANCH  19  20
ATOM     20  C   UNL     1       5.062  -5.338  22.763  0.00  0.00    +0.041 C 
BRANCH  20  21
ATOM     21  C   UNL     1       5.889  -5.666  21.522  0.00  0.00    -0.000 C 
ATOM     22  C   UNL     1       7.290  -6.132  21.883  0.00  0.00    +0.004 C 
ENDBRANCH  20  21
ENDBRANCH  19  20
ENDBRANCH  18  19
ENDBRANCH   5  18
TORSDOF 7
ENDMDL
MODEL 2
REMARK VINA RESULT:      -5.9      1.248      3.044
REMARK  Name = 
REMARK  9 active torsions:
REMARK  status: ('A' for Active; 'I' for Inactive)
REMARK    1  A    between atoms: C_2  and  C_3
REMARK    2  A    between atoms: C_3  and  C_4
REMARK    3  A    between atoms: C_6  and  O_7
REMARK    4  A    between atoms: O_7  and  C_8
REMARK    5  A    between atoms: C_8  and  C_9
REMARK    6  A    between atoms: C_9  and  C_10
REMARK    7  A    between atoms: C_10  and  C_11
REMARK    8  A    between atoms: C_12  and  O_13
REMARK    9  A    between atoms: O_13  and  C_14
REMARK                            x       y       z     vdW  Elec       q    Type
REMARK                         _______ _______ _______ _____ _____    ______ ____
ROOT
ATOM      1  C   UNL     1       9.298  -1.837  23.239  0.00  0.00    -0.042 A 
ATOM      2  C   UNL     1       8.278  -2.051  22.308  0.00  0.00    +0.007 A 
ATOM      3  C   UNL     1       7.538  -3.236  22.325  0.00  0.00    +0.049 A 
ATOM      4  C   UNL     1       7.809  -4.230  23.273  0.00  0.00    +0.162 A 
ATOM      5  C   UNL     1       8.831  -4.019  24.219  0.00  0.00    +0.162 A 
ATOM      6  C   UNL     1       9.576  -2.834  24.184  0.00  0.00    +0.053 A 
ENDROOT
BRANCH   4   7
ATOM      7  O   UNL     1       7.132  -5.422  23.361  0.00  0.00    -0.491 OA
ATOM      8  C   UNL     1       6.837  -6.100  22.147  0.00  0.00    +0.277 C 
ENDBRANCH   4   7
BRANCH   1   9
ATOM      9  C   UNL     1      10.086  -0.548  23.229  0.00  0.00    +0.059 C 
BRANCH   9  10
ATOM     10  C   UNL     1       9.210   0.718  23.209  0.00  0.00    +0.096 C 
ATOM     11  N   UNL     1       9.815   1.807  23.948  0.00  0.00    -0.295 N 
ATOM     12  H   UNL     1       9.974   1.829  24.945  0.00  0.00    +0.151 HD
ATOM     13  C   UNL     1      10.519   2.644  23.102  0.00  0.00    +0.300 C 
ATOM     14  O   UNL     1      11.270   3.538  23.437  0.00  0.00    -0.253 OA
ATOM     15  N   UNL     1      10.219   2.274  21.803  0.00  0.00    -0.298 N 
ATOM     16  H   UNL     1      10.522   2.851  21.030  0.00  0.00    +0.150 HD
ATOM     17  C   UNL     1       9.160   1.300  21.788  0.00  0.00    +0.128 C 
ENDBRANCH   9  10
ENDBRANCH   1   9
BRANCH   5  18
ATOM     18  O   UNL     1       9.075  -5.039  25.109  0.00  0.00    -0.488 OA
BRANCH  18  19
ATOM     19  C   UNL     1       8.884  -4.724  26.490  0.00  0.00    +0.229 C 
BRANCH  19  20
ATOM     20  C   UNL     1       7.461  -5.114  26.885  0.00  0.00    +0.041 C 
BRANCH  20  21
ATOM     21  C   UNL     1       6.595  -3.879  27.124  0.00  0.00    -0.000 C 
ATOM     22  C   UNL     1       5.493  -3.751  26.085  0.00  0.00    +0.004 C 
ENDBRANCH  20  21
ENDBRANCH  19  20
ENDBRANCH  18  19
ENDBRANCH   5  18
TORSDOF 7
ENDMDL
MODEL 3
REMARK VINA RESULT:      -5.8      1.364      1.945
REMARK  Name = 
REMARK  9 active torsions:
REMARK  status: ('A' for Active; 'I' for Inactive)
REMARK    1  A    between atoms: C_2  and  C_3
REMARK    2  A    between atoms: C_3  and  C_4
REMARK    3  A    between atoms: C_6  and  O_7
REMARK    4  A    between atoms: O_7  and  C_8
REMARK    5  A    between atoms: C_8  and  C_9
REMARK    6  A    between atoms: C_9  and  C_10
REMARK    7  A    between atoms: C_10  and  C_11
REMARK    8  A    between atoms: C_12  and  O_13
REMARK    9  A    between atoms: O_13  and  C_14
REMARK                            x       y       z     vdW  Elec       q    Type
REMARK                         _______ _______ _______ _____ _____    ______ ____
ROOT
ATOM      1  C   UNL     1       9.465  -1.472  24.280  0.00  0.00    -0.042 A 
ATOM      2  C   UNL     1       9.041  -1.180  25.579  0.00  0.00    +0.007 A 
ATOM      3  C   UNL     1       8.500  -2.180  26.391  0.00  0.00    +0.049 A 
ATOM      4  C   UNL     1       8.372  -3.491  25.915  0.00  0.00    +0.162 A 
ATOM      5  C   UNL     1       8.804  -3.794  24.609  0.00  0.00    +0.162 A 
ATOM      6  C   UNL     1       9.330  -2.781  23.798  0.00  0.00    +0.053 A 
ENDROOT
BRANCH   4   7
ATOM      7  O   UNL     1       7.854  -4.533  26.644  0.00  0.00    -0.491 OA
ATOM      8  C   UNL     1       6.601  -4.328  27.282  0.00  0.00    +0.277 C 
ENDBRANCH   4   7
BRANCH   1   9
ATOM      9  C   UNL     1      10.063  -0.391  23.410  0.00  0.00    +0.059 C 
BRANCH   9  10
ATOM     10  C   UNL     1       9.207   0.886  23.324  0.00  0.00    +0.096 C 
ATOM     11  N   UNL     1       9.837   2.008  23.989  0.00  0.00    -0.295 N 
ATOM     12  H   UNL     1      10.008   2.087  24.982  0.00  0.00    +0.151 HD
ATOM     13  C   UNL     1      10.544   2.781  23.088  0.00  0.00    +0.300 C 
ATOM     14  O   UNL     1      11.313   3.681  23.361  0.00  0.00    -0.253 OA
ATOM     15  N   UNL     1      10.224   2.339  21.816  0.00  0.00    -0.298 N 
ATOM     16  H   UNL     1      10.527   2.864  21.007  0.00  0.00    +0.150 HD
ATOM     17  C   UNL     1       9.150   1.382  21.871  0.00  0.00    +0.128 C 
ENDBRANCH   9  10
ENDBRANCH   1   9
BRANCH   5  18
ATOM     18  O   UNL     1       8.630  -5.089  24.180  0.00  0.00    -0.488 OA
BRANCH  18  19
ATOM     19  C   UNL     1       7.748  -5.268  23.070  0.00  0.00    +0.229 C 
BRANCH  19  20
ATOM     20  C   UNL     1       6.308  -5.205  23.577  0.00  0.00    +0.041 C 
BRANCH  20  21
ATOM     21  C   UNL     1       5.546  -4.049  22.932  0.00  0.00    -0.000 C 
ATOM     22  C   UNL     1       5.298  -2.916  23.915  0.00  0.00    +0.004 C 
ENDBRANCH  20  21
ENDBRANCH  19  20
ENDBRANCH  18  19
ENDBRANCH   5  18
TORSDOF 7
ENDMDL
MODEL 4
REMARK VINA RESULT:      -5.7      1.298      1.602
REMARK  Name = 
REMARK  9 active torsions:
REMARK  status: ('A' for Active; 'I' for Inactive)
REMARK    1  A    between atoms: C_2  and  C_3
REMARK    2  A    between atoms: C_3  and  C_4
REMARK    3  A    between atoms: C_6  and  O_7
REMARK    4  A    between atoms: O_7  and  C_8
REMARK    5  A    between atoms: C_8  and  C_9
REMARK    6  A    between atoms: C_9  and  C_10
REMARK    7  A    between atoms: C_10  and  C_11
REMARK    8  A    between atoms: C_12  and  O_13
REMARK    9  A    between atoms: O_13  and  C_14
REMARK                            x       y       z     vdW  Elec       q    Type
REMARK                         _______ _______ _______ _____ _____    ______ ____
ROOT
ATOM      1  C   UNL     1       9.057  -1.296  22.484  0.00  0.00    -0.042 A 
ATOM      2  C   UNL     1      10.045  -1.987  23.191  0.00  0.00    +0.007 A 
ATOM      3  C   UNL     1       9.697  -2.995  24.095  0.00  0.00    +0.049 A 
ATOM      4  C   UNL     1       8.354  -3.326  24.308  0.00  0.00    +0.162 A 
ATOM      5  C   UNL     1       7.353  -2.639  23.593  0.00  0.00    +0.162 A 
ATOM      6  C   UNL     1       7.712  -1.620  22.701  0.00  0.00    +0.053 A 
ENDROOT
BRANCH   4   7
ATOM      7  O   UNL     1       7.924  -4.302  25.174  0.00  0.00    -0.491 OA
ATOM      8  C   UNL     1       8.194  -4.115  26.557  0.00  0.00    +0.277 C 
ENDBRANCH   4   7
BRANCH   1   9
ATOM      9  C   UNL     1       9.438  -0.218  21.497  0.00  0.00    +0.059 C 
BRANCH   9  10
ATOM     10  C   UNL     1       9.941   1.081  22.153  0.00  0.00    +0.096 C 
ATOM     11  N   UNL     1       9.357   2.258  21.545  0.00  0.00    -0.295 N 
ATOM     12  H   UNL     1       9.515   2.575  20.598  0.00  0.00    +0.151 HD
ATOM     13  C   UNL     1       8.250   2.682  22.256  0.00  0.00    +0.300 C 
ATOM     14  O   UNL     1       7.451   3.529  21.905  0.00  0.00    -0.253 OA
ATOM     15  N   UNL     1       8.209   1.961  23.436  0.00  0.00    -0.298 N 
ATOM     16  H   UNL     1       7.555   2.218  24.163  0.00  0.00    +0.150 HD
ATOM     17  C   UNL     1       9.409   1.182  23.591  0.00  0.00    +0.128 C 
ENDBRANCH   9  10
ENDBRANCH   1   9
BRANCH   5  18
ATOM     18  O   UNL     1       6.049  -2.983  23.861  0.00  0.00    -0.488 OA
BRANCH  18  19
ATOM     19  C   UNL     1       5.308  -3.531  22.768  0.00  0.00    +0.229 C 
BRANCH  19  20
ATOM     20  C   UNL     1       5.156  -5.035  22.990  0.00  0.00    +0.041 C 
BRANCH  20  21
ATOM     21  C   UNL     1       5.711  -5.827  21.808  0.00  0.00    -0.000 C 
ATOM     22  C   UNL     1       7.230  -5.793  21.768  0.00  0.00    +0.004 C 
ENDBRANCH  20  21
ENDBRANCH  19  20
ENDBRANCH  18  19
ENDBRANCH   5  18
TORSDOF 7
ENDMDL
MODEL 5
REMARK VINA RESULT:      -5.2      1.883      2.276
REMARK  Name = 
REMARK  9 active torsions:
REMARK  status: ('A' for Active; 'I' for Inactive)
REMARK    1  A    between atoms: C_2  and  C_3
REMARK    2  A    between atoms: C_3  and  C_4
REMARK    3  A    between atoms: C_6  and  O_7
REMARK    4  A    between atoms: O_7  and  C_8
REMARK    5  A    between atoms: C_8  and  C_9
REMARK    6  A    between atoms: C_9  and  C_10
REMARK    7  A    between atoms: C_10  and  C_11
REMARK    8  A    between atoms: C_12  and  O_13
REMARK    9  A    between atoms: O_13  and  C_14
REMARK                            x       y       z     vdW  Elec       q    Type
REMARK                         _______ _______ _______ _____ _____    ______ ____
ROOT
ATOM      1  C   UNL     1       9.571  -0.840  24.579  0.00  0.00    -0.042 A 
ATOM      2  C   UNL     1       9.122  -0.703  25.895  0.00  0.00    +0.007 A 
ATOM      3  C   UNL     1       8.536  -1.783  26.561  0.00  0.00    +0.049 A 
ATOM      4  C   UNL     1       8.387  -3.018  25.920  0.00  0.00    +0.162 A 
ATOM      5  C   UNL     1       8.844  -3.166  24.595  0.00  0.00    +0.162 A 
ATOM      6  C   UNL     1       9.415  -2.074  23.932  0.00  0.00    +0.053 A 
ENDROOT
BRANCH   4   7
ATOM      7  O   UNL     1       7.825  -4.129  26.499  0.00  0.00    -0.491 OA
ATOM      8  C   UNL     1       6.476  -4.029  26.937  0.00  0.00    +0.277 C 
ENDBRANCH   4   7
BRANCH   1   9
ATOM      9  C   UNL     1      10.217   0.324  23.866  0.00  0.00    +0.059 C 
BRANCH   9  10
ATOM     10  C   UNL     1       9.773   0.484  22.400  0.00  0.00    +0.096 C 
ATOM     11  N   UNL     1       8.331   0.505  22.270  0.00  0.00    -0.295 N 
ATOM     12  H   UNL     1       7.708  -0.267  22.464  0.00  0.00    +0.151 HD
ATOM     13  C   UNL     1       7.858   1.804  22.240  0.00  0.00    +0.300 C 
ATOM     14  O   UNL     1       6.695   2.147  22.312  0.00  0.00    -0.253 OA
ATOM     15  N   UNL     1       8.951   2.644  22.125  0.00  0.00    -0.298 N 
ATOM     16  H   UNL     1       8.815   3.630  21.945  0.00  0.00    +0.150 HD
ATOM     17  C   UNL     1      10.149   1.883  21.888  0.00  0.00    +0.128 C 
ENDBRANCH   9  10
ENDBRANCH   1   9
BRANCH   5  18
ATOM     18  O   UNL     1       8.647  -4.391  24.002  0.00  0.00    -0.488 OA
BRANCH  18  19
ATOM     19  C   UNL     1       7.612  -4.452  23.020  0.00  0.00    +0.229 C 
BRANCH  19  20
ATOM     20  C   UNL     1       7.616  -5.847  22.395  0.00  0.00    +0.041 C 
BRANCH  20  21
ATOM     21  C   UNL     1       6.217  -6.250  21.934  0.00  0.00    -0.000 C 
ATOM     22  C   UNL     1       5.135  -5.450  22.640  0.00  0.00    +0.004 C 
ENDBRANCH  20  21
ENDBRANCH  19  20
ENDBRANCH  18  19
ENDBRANCH   5  18
TORSDOF 7
ENDMDL
MODEL 6
REMARK VINA RESULT:      -5.2      1.801      2.043
REMARK  Name = 
REMARK  9 active torsions:
REMARK  status: ('A' for Active; 'I' for Inactive)
REMARK    1  A    between atoms: C_2  and  C_3
REMARK    2  A    between atoms: C_3  and  C_4
REMARK    3  A    between atoms: C_6  and  O_7
REMARK    4  A    between atoms: O_7  and  C_8
REMARK    5  A    between atoms: C_8  and  C_9
REMARK    6  A    between atoms: C_9  and  C_10
REMARK    7  A    between atoms: C_10  and  C_11
REMARK    8  A    between atoms: C_12  and  O_13
REMARK    9  A    between atoms: O_13  and  C_14
REMARK                            x       y       z     vdW  Elec       q    Type
REMARK                         _______ _______ _______ _____ _____    ______ ____
ROOT
ATOM      1  C   UNL     1       8.146  -0.767  23.980  0.00  0.00    -0.042 A 
ATOM      2  C   UNL     1       9.471  -1.163  23.782  0.00  0.00    +0.007 A 
ATOM      3  C   UNL     1       9.837  -2.506  23.902  0.00  0.00    +0.049 A 
ATOM      4  C   UNL     1       8.881  -3.477  24.225  0.00  0.00    +0.162 A 
ATOM      5  C   UNL     1       7.541  -3.086  24.419  0.00  0.00    +0.162 A 
ATOM      6  C   UNL     1       7.189  -1.736  24.312  0.00  0.00    +0.053 A 
ENDROOT
BRANCH   4   7
ATOM      7  O   UNL     1       9.152  -4.816  24.361  0.00  0.00    -0.491 OA
ATOM      8  C   UNL     1       9.847  -5.229  25.530  0.00  0.00    +0.277 C 
ENDBRANCH   4   7
BRANCH   1   9
ATOM      9  C   UNL     1       7.751   0.684  23.835  0.00  0.00    +0.059 C 
BRANCH   9  10
ATOM     10  C   UNL     1       7.449   1.107  22.386  0.00  0.00    +0.096 C 
ATOM     11  N   UNL     1       6.524   2.220  22.327  0.00  0.00    -0.295 N 
ATOM     12  H   UNL     1       5.555   2.200  22.613  0.00  0.00    +0.151 HD
ATOM     13  C   UNL     1       7.203   3.419  22.217  0.00  0.00    +0.300 C 
ATOM     14  O   UNL     1       6.722   4.530  22.319  0.00  0.00    -0.253 OA
ATOM     15  N   UNL     1       8.534   3.125  21.979  0.00  0.00    -0.298 N 
ATOM     16  H   UNL     1       9.178   3.863  21.728  0.00  0.00    +0.150 HD
ATOM     17  C   UNL     1       8.705   1.716  21.744  0.00  0.00    +0.128 C 
ENDBRANCH   9  10
ENDBRANCH   1   9
BRANCH   5  18
ATOM     18  O   UNL     1       6.649  -4.075  24.763  0.00  0.00    -0.488 OA
BRANCH  18  19
ATOM     19  C   UNL     1       5.454  -4.139  23.982  0.00  0.00    +0.229 C 
BRANCH  19  20
ATOM     20  C   UNL     1       5.327  -5.547  23.404  0.00  0.00    +0.041 C 
BRANCH  20  21
ATOM     21  C   UNL     1       5.695  -5.572  21.922  0.00  0.00    -0.000 C 
ATOM     22  C   UNL     1       7.162  -5.903  21.708  0.00  0.00    +0.004 C 
ENDBRANCH  20  21
ENDBRANCH  19  20
ENDBRANCH  18  19
ENDBRANCH   5  18
TORSDOF 7
ENDMDL
MODEL 7
REMARK VINA RESULT:      -5.2      3.173      6.992
REMARK  Name = 
REMARK  9 active torsions:
REMARK  status: ('A' for Active; 'I' for Inactive)
REMARK    1  A    between atoms: C_2  and  C_3
REMARK    2  A    between atoms: C_3  and  C_4
REMARK    3  A    between atoms: C_6  and  O_7
REMARK    4  A    between atoms: O_7  and  C_8
REMARK    5  A    between atoms: C_8  and  C_9
REMARK    6  A    between atoms: C_9  and  C_10
REMARK    7  A    between atoms: C_10  and  C_11
REMARK    8  A    between atoms: C_12  and  O_13
REMARK    9  A    between atoms: O_13  and  C_14
REMARK                            x       y       z     vdW  Elec       q    Type
REMARK                         _______ _______ _______ _____ _____    ______ ____
ROOT
ATOM      1  C   UNL     1       8.589  -2.039  23.648  0.00  0.00    -0.042 A 
ATOM      2  C   UNL     1       9.951  -1.809  23.436  0.00  0.00    +0.007 A 
ATOM      3  C   UNL     1      10.386  -0.624  22.838  0.00  0.00    +0.049 A 
ATOM      4  C   UNL     1       9.465   0.351  22.438  0.00  0.00    +0.162 A 
ATOM      5  C   UNL     1       8.090   0.130  22.654  0.00  0.00    +0.162 A 
ATOM      6  C   UNL     1       7.664  -1.068  23.241  0.00  0.00    +0.053 A 
ENDROOT
BRANCH   4   7
ATOM      7  O   UNL     1       9.805   1.543  21.845  0.00  0.00    -0.491 OA
ATOM      8  C   UNL     1      10.483   2.503  22.644  0.00  0.00    +0.277 C 
ENDBRANCH   4   7
BRANCH   1   9
ATOM      9  C   UNL     1       8.122  -3.315  24.309  0.00  0.00    +0.059 C 
BRANCH   9  10
ATOM     10  C   UNL     1       9.020  -3.780  25.470  0.00  0.00    +0.096 C 
ATOM     11  N   UNL     1       8.314  -3.782  26.734  0.00  0.00    -0.295 N 
ATOM     12  H   UNL     1       7.965  -2.966  27.218  0.00  0.00    +0.151 HD
ATOM     13  C   UNL     1       7.811  -5.038  27.016  0.00  0.00    +0.300 C 
ATOM     14  O   UNL     1       7.034  -5.319  27.907  0.00  0.00    -0.253 OA
ATOM     15  N   UNL     1       8.347  -5.919  26.093  0.00  0.00    -0.298 N 
ATOM     16  H   UNL     1       8.216  -6.915  26.209  0.00  0.00    +0.150 HD
ATOM     17  C   UNL     1       9.361  -5.269  25.306  0.00  0.00    +0.128 C 
ENDBRANCH   9  10
ENDBRANCH   1   9
BRANCH   5  18
ATOM     18  O   UNL     1       7.226   1.106  22.217  0.00  0.00    -0.488 OA
BRANCH  18  19
ATOM     19  C   UNL     1       6.403   1.708  23.218  0.00  0.00    +0.229 C 
BRANCH  19  20
ATOM     20  C   UNL     1       6.932   3.113  23.502  0.00  0.00    +0.041 C 
BRANCH  20  21
ATOM     21  C   UNL     1       7.139   3.897  22.209  0.00  0.00    -0.000 C 
ATOM     22  C   UNL     1       6.864   5.380  22.396  0.00  0.00    +0.004 C 
ENDBRANCH  20  21
ENDBRANCH  19  20
ENDBRANCH  18  19
ENDBRANCH   5  18
TORSDOF 7
ENDMDL
MODEL 8
REMARK VINA RESULT:      -5.2      3.686      6.939
REMARK  Name = 
REMARK  9 active torsions:
REMARK  status: ('A' for Active; 'I' for Inactive)
REMARK    1  A    between atoms: C_2  and  C_3
REMARK    2  A    between atoms: C_3  and  C_4
REMARK    3  A    between atoms: C_6  and  O_7
REMARK    4  A    between atoms: O_7  and  C_8
REMARK    5  A    between atoms: C_8  and  C_9
REMARK    6  A    between atoms: C_9  and  C_10
REMARK    7  A    between atoms: C_10  and  C_11
REMARK    8  A    between atoms: C_12  and  O_13
REMARK    9  A    between atoms: O_13  and  C_14
REMARK                            x       y       z     vdW  Elec       q    Type
REMARK                         _______ _______ _______ _____ _____    ______ ____
ROOT
ATOM      1  C   UNL     1       8.107  -2.225  25.197  0.00  0.00    -0.042 A 
ATOM      2  C   UNL     1       6.984  -1.486  25.581  0.00  0.00    +0.007 A 
ATOM      3  C   UNL     1       6.460  -0.501  24.739  0.00  0.00    +0.049 A 
ATOM      4  C   UNL     1       7.053  -0.238  23.498  0.00  0.00    +0.162 A 
ATOM      5  C   UNL     1       8.180  -0.983  23.101  0.00  0.00    +0.162 A 
ATOM      6  C   UNL     1       8.706  -1.957  23.959  0.00  0.00    +0.053 A 
ENDROOT
BRANCH   4   7
ATOM      7  O   UNL     1       6.603   0.709  22.610  0.00  0.00    -0.491 OA
ATOM      8  C   UNL     1       6.280   1.992  23.128  0.00  0.00    +0.277 C 
ENDBRANCH   4   7
BRANCH   1   9
ATOM      9  C   UNL     1       8.662  -3.299  26.103  0.00  0.00    +0.059 C 
BRANCH   9  10
ATOM     10  C   UNL     1       8.240  -4.727  25.709  0.00  0.00    +0.096 C 
ATOM     11  N   UNL     1       8.311  -5.641  26.829  0.00  0.00    -0.295 N 
ATOM     12  H   UNL     1       9.154  -5.930  27.306  0.00  0.00    +0.151 HD
ATOM     13  C   UNL     1       7.077  -5.768  27.440  0.00  0.00    +0.300 C 
ATOM     14  O   UNL     1       6.852  -6.321  28.498  0.00  0.00    -0.253 OA
ATOM     15  N   UNL     1       6.144  -5.143  26.631  0.00  0.00    -0.298 N 
ATOM     16  H   UNL     1       5.158  -5.243  26.827  0.00  0.00    +0.150 HD
ATOM     17  C   UNL     1       6.741  -4.759  25.379  0.00  0.00    +0.128 C 
ENDBRANCH   9  10
ENDBRANCH   1   9
BRANCH   5  18
ATOM     18  O   UNL     1       8.740  -0.665  21.886  0.00  0.00    -0.488 OA
BRANCH  18  19
ATOM     19  C   UNL     1      10.021  -0.032  21.933  0.00  0.00    +0.229 C 
BRANCH  19  20
ATOM     20  C   UNL     1       9.818   1.480  21.860  0.00  0.00    +0.041 C 
BRANCH  20  21
ATOM     21  C   UNL     1      10.542   2.190  23.002  0.00  0.00    -0.000 C 
ATOM     22  C   UNL     1       9.822   2.011  24.328  0.00  0.00    +0.004 C 
ENDBRANCH  20  21
ENDBRANCH  19  20
ENDBRANCH  18  19
ENDBRANCH   5  18
TORSDOF 7
ENDMDL
MODEL 9
REMARK VINA RESULT:      -5.1      2.775      6.837
REMARK  Name = 
REMARK  9 active torsions:
REMARK  status: ('A' for Active; 'I' for Inactive)
REMARK    1  A    between atoms: C_2  and  C_3
REMARK    2  A    between atoms: C_3  and  C_4
REMARK    3  A    between atoms: C_6  and  O_7
REMARK    4  A    between atoms: O_7  and  C_8
REMARK    5  A    between atoms: C_8  and  C_9
REMARK    6  A    between atoms: C_9  and  C_10
REMARK    7  A    between atoms: C_10  and  C_11
REMARK    8  A    between atoms: C_12  and  O_13
REMARK    9  A    between atoms: O_13  and  C_14
REMARK                            x       y       z     vdW  Elec       q    Type
REMARK                         _______ _______ _______ _____ _____    ______ ____
ROOT
ATOM      1  C   UNL     1       9.396  -0.463  22.856  0.00  0.00    -0.042 A 
ATOM      2  C   UNL     1      10.415  -0.162  23.763  0.00  0.00    +0.007 A 
ATOM      3  C   UNL     1      10.725   1.166  24.069  0.00  0.00    +0.049 A 
ATOM      4  C   UNL     1      10.020   2.216  23.468  0.00  0.00    +0.162 A 
ATOM      5  C   UNL     1       8.986   1.921  22.558  0.00  0.00    +0.162 A 
ATOM      6  C   UNL     1       8.695   0.587  22.248  0.00  0.00    +0.053 A 
ENDROOT
BRANCH   4   7
ATOM      7  O   UNL     1      10.257   3.547  23.711  0.00  0.00    -0.491 OA
ATOM      8  C   UNL     1      11.541   4.056  23.375  0.00  0.00    +0.277 C 
ENDBRANCH   4   7
BRANCH   1   9
ATOM      9  C   UNL     1       9.054  -1.900  22.540  0.00  0.00    +0.059 C 
BRANCH   9  10
ATOM     10  C   UNL     1       7.861  -2.450  23.344  0.00  0.00    +0.096 C 
ATOM     11  N   UNL     1       6.627  -2.397  22.589  0.00  0.00    -0.295 N 
ATOM     12  H   UNL     1       6.149  -1.557  22.293  0.00  0.00    +0.151 HD
ATOM     13  C   UNL     1       6.378  -3.607  21.968  0.00  0.00    +0.300 C 
ATOM     14  O   UNL     1       5.522  -3.823  21.133  0.00  0.00    -0.253 OA
ATOM     15  N   UNL     1       7.287  -4.525  22.462  0.00  0.00    -0.298 N 
ATOM     16  H   UNL     1       7.186  -5.506  22.240  0.00  0.00    +0.150 HD
ATOM     17  C   UNL     1       8.026  -3.961  23.560  0.00  0.00    +0.128 C 
ENDBRANCH   9  10
ENDBRANCH   1   9
BRANCH   5  18
ATOM     18  O   UNL     1       8.345   2.989  21.975  0.00  0.00    -0.488 OA
BRANCH  18  19
ATOM     19  C   UNL     1       6.918   2.958  22.010  0.00  0.00    +0.229 C 
BRANCH  19  20
ATOM     20  C   UNL     1       6.438   3.899  23.115  0.00  0.00    +0.041 C 
BRANCH  20  21
ATOM     21  C   UNL     1       6.271   3.157  24.439  0.00  0.00    -0.000 C 
ATOM     22  C   UNL     1       5.613   1.800  24.248  0.00  0.00    +0.004 C 
ENDBRANCH  20  21
ENDBRANCH  19  20
ENDBRANCH  18  19
ENDBRANCH   5  18
TORSDOF 7
ENDMDL
