MODEL 1
REMARK VINA RESULT:      -7.7      0.000      0.000
REMARK  Name = 
REMARK  14 active torsions:
REMARK  status: ('A' for Active; 'I' for Inactive)
REMARK    1  A    between atoms: C_2  and  C_4
REMARK    2  A    between atoms: C_4  and  C_5
REMARK    3  A    between atoms: C_8  and  C_10
REMARK    4  A    between atoms: C_13  and  C_14
REMARK    5  A    between atoms: C_13  and  C_37
REMARK    6  A    between atoms: C_14  and  C_15
REMARK    7  A    between atoms: C_15  and  O_17
REMARK    8  A    between atoms: C_15  and  C_18
REMARK    9  A    between atoms: C_18  and  C_20
REMARK   10  A    between atoms: C_18  and  N_27
REMARK   11  A    between atoms: C_20  and  C_21
REMARK   12  A    between atoms: C_28  and  O_30
REMARK   13  A    between atoms: O_30  and  C_31
REMARK   14  A    between atoms: C_37  and  C_38
REMARK                            x       y       z     vdW  Elec       q    Type
REMARK                         _______ _______ _______ _____ _____    ______ ____
ROOT
ATOM      1  C   UNL     1       4.263  -0.790  26.918  0.00  0.00    +0.018 C 
ATOM      2  C   UNL     1       5.281  -0.647  25.828  0.00  0.00    +0.184 C 
ATOM      3  O   UNL     1       5.690  -1.580  25.145  0.00  0.00    -0.290 OA
ATOM      4  C   UNL     1       5.812   0.822  25.725  0.00  0.00    +0.101 C 
ATOM      5  N   UNL     1       4.939   1.441  26.764  0.00  0.00    -0.337 N 
ATOM      6  H   UNL     1       4.424   2.278  26.493  0.00  0.00    +0.147 HD
ATOM      7  C   UNL     1       4.131   0.467  27.347  0.00  0.00    +0.076 C 
ENDROOT
BRANCH   1  14
ATOM      8  C   UNL     1       4.716  -4.386  27.564  0.00  0.00    +0.029 C 
ATOM      9  C   UNL     1       3.508  -4.316  26.677  0.00  0.00    -0.040 A 
ATOM     10  C   UNL     1       2.941  -3.037  26.648  0.00  0.00    -0.036 A 
ATOM     11  C   UNL     1       1.747  -2.848  25.961  0.00  0.00    +0.004 A 
ATOM     12  C   UNL     1       1.203  -3.910  25.219  0.00  0.00    +0.000 A 
ATOM     13  C   UNL     1       1.833  -5.160  25.185  0.00  0.00    +0.000 A 
ATOM     14  C   UNL     1       3.699  -2.061  27.518  0.00  0.00    +0.054 C 
ATOM     15  C   UNL     1       2.978  -5.374  25.942  0.00  0.00    +0.004 A 
ATOM     16  C   UNL     1       4.794  -2.960  28.156  0.00  0.00    +0.021 C 
BRANCH   8  17
ATOM     17  C   UNL     1       5.925  -4.825  26.743  0.00  0.00    +0.103 C 
BRANCH  17  21
ATOM     18  N   UNL     1       8.138  -5.736  26.864  0.00  0.00    -0.329 N 
ATOM     19  H   UNL     1       8.347  -5.209  26.028  0.00  0.00    +0.145 HD
ATOM     20  H   UNL     1       8.892  -6.204  27.345  0.00  0.00    +0.145 HD
ATOM     21  C   UNL     1       6.941  -5.620  27.514  0.00  0.00    +0.211 C 
ATOM     22  O   UNL     1       6.751  -6.153  28.600  0.00  0.00    -0.276 OA
ENDBRANCH  17  21
ENDBRANCH   8  17
ENDBRANCH   1  14
BRANCH   4  23
ATOM     23  C   UNL     1       7.325   0.931  26.176  0.00  0.00    +0.067 C 
BRANCH  23  24
ATOM     24  C   UNL     1       7.910  -0.361  26.859  0.00  0.00    +0.138 C 
BRANCH  24  25
ATOM     25  O   UNL     1       8.480   0.025  28.123  0.00  0.00    -0.390 OA
ATOM     26  H   UNL     1       9.431   0.231  28.001  0.00  0.00    +0.210 HD
ENDBRANCH  24  25
BRANCH  24  27
ATOM     27  C   UNL     1       9.020  -1.173  26.100  0.00  0.00    +0.109 C 
BRANCH  27  28
ATOM     28  N   UNL     1       8.438  -2.419  25.449  0.00  0.00    -0.275 N 
ATOM     29  H   UNL     1       7.434  -2.478  25.569  0.00  0.00    +0.152 HD
ATOM     30  C   UNL     1       8.887  -3.344  24.539  0.00  0.00    +0.401 C 
ATOM     31  O   UNL     1      10.029  -3.473  24.133  0.00  0.00    -0.226 OA
BRANCH  30  32
ATOM     32  O   UNL     1       7.861  -4.165  24.137  0.00  0.00    -0.445 OA
BRANCH  32  33
ATOM     33  C   UNL     1       7.524  -4.240  22.719  0.00  0.00    +0.206 C 
ATOM     34  C   UNL     1       6.283  -3.493  22.232  0.00  0.00    +0.204 C 
ATOM     35  O   UNL     1       5.720  -4.232  21.126  0.00  0.00    -0.376 OA
ATOM     36  C   UNL     1       6.356  -5.510  21.050  0.00  0.00    +0.163 C 
ATOM     37  C   UNL     1       7.176  -5.669  22.316  0.00  0.00    +0.075 C 
ENDBRANCH  32  33
ENDBRANCH  30  32
ENDBRANCH  27  28
BRANCH  27  38
ATOM     38  C   UNL     1      10.086  -0.342  25.320  0.00  0.00    +0.060 C 
BRANCH  38  39
ATOM     39  C   UNL     1       9.812   0.403  24.027  0.00  0.00    -0.046 A 
ATOM     40  C   UNL     1      10.435   1.654  23.814  0.00  0.00    +0.004 A 
ATOM     41  C   UNL     1      10.300   2.338  22.599  0.00  0.00    +0.000 A 
ATOM     42  C   UNL     1       9.549   1.780  21.570  0.00  0.00    +0.000 A 
ATOM     43  C   UNL     1       8.916   0.559  21.770  0.00  0.00    +0.000 A 
ATOM     44  C   UNL     1       9.034  -0.110  22.992  0.00  0.00    +0.004 A 
ENDBRANCH  38  39
ENDBRANCH  27  38
ENDBRANCH  24  27
ENDBRANCH  23  24
ENDBRANCH   4  23
BRANCH   4  45
ATOM     45  C   UNL     1       5.718   1.461  24.330  0.00  0.00    +0.069 C 
BRANCH  45  46
ATOM     46  C   UNL     1       6.515   2.642  23.862  0.00  0.00    -0.045 A 
ATOM     47  C   UNL     1       7.269   3.374  24.792  0.00  0.00    +0.004 A 
ATOM     48  C   UNL     1       7.890   4.563  24.420  0.00  0.00    +0.000 A 
ATOM     49  C   UNL     1       7.770   5.028  23.113  0.00  0.00    +0.000 A 
ATOM     50  C   UNL     1       6.990   4.330  22.192  0.00  0.00    +0.000 A 
ATOM     51  C   UNL     1       6.353   3.147  22.568  0.00  0.00    +0.004 A 
ENDBRANCH  45  46
ENDBRANCH   4  45
TORSDOF 14
ENDMDL
MODEL 2
REMARK VINA RESULT:      -7.5      2.391      6.471
REMARK  Name = 
REMARK  14 active torsions:
REMARK  status: ('A' for Active; 'I' for Inactive)
REMARK    1  A    between atoms: C_2  and  C_4
REMARK    2  A    between atoms: C_4  and  C_5
REMARK    3  A    between atoms: C_8  and  C_10
REMARK    4  A    between atoms: C_13  and  C_14
REMARK    5  A    between atoms: C_13  and  C_37
REMARK    6  A    between atoms: C_14  and  C_15
REMARK    7  A    between atoms: C_15  and  O_17
REMARK    8  A    between atoms: C_15  and  C_18
REMARK    9  A    between atoms: C_18  and  C_20
REMARK   10  A    between atoms: C_18  and  N_27
REMARK   11  A    between atoms: C_20  and  C_21
REMARK   12  A    between atoms: C_28  and  O_30
REMARK   13  A    between atoms: O_30  and  C_31
REMARK   14  A    between atoms: C_37  and  C_38
REMARK                            x       y       z     vdW  Elec       q    Type
REMARK                         _______ _______ _______ _____ _____    ______ ____
ROOT
ATOM      1  C   UNL     1       7.119  -4.224  23.874  0.00  0.00    +0.018 C 
ATOM      2  C   UNL     1       8.495  -3.805  24.292  0.00  0.00    +0.184 C 
ATOM      3  O   UNL     1       9.361  -4.581  24.678  0.00  0.00    -0.290 OA
ATOM      4  C   UNL     1       8.660  -2.249  24.248  0.00  0.00    +0.101 C 
ATOM      5  N   UNL     1       7.318  -1.903  23.696  0.00  0.00    -0.337 N 
ATOM      6  H   UNL     1       7.300  -1.291  22.880  0.00  0.00    +0.147 HD
ATOM      7  C   UNL     1       6.562  -3.061  23.527  0.00  0.00    +0.076 C 
ENDROOT
BRANCH   1  14
ATOM      8  C   UNL     1       4.067  -6.254  23.523  0.00  0.00    +0.029 C 
ATOM      9  C   UNL     1       4.374  -6.291  24.991  0.00  0.00    -0.040 A 
ATOM     10  C   UNL     1       5.695  -5.924  25.271  0.00  0.00    -0.036 A 
ATOM     11  C   UNL     1       6.157  -6.025  26.578  0.00  0.00    +0.004 A 
ATOM     12  C   UNL     1       5.261  -6.378  27.601  0.00  0.00    +0.000 A 
ATOM     13  C   UNL     1       3.918  -6.655  27.316  0.00  0.00    +0.000 A 
ATOM     14  C   UNL     1       6.466  -5.583  24.017  0.00  0.00    +0.054 C 
ATOM     15  C   UNL     1       3.476  -6.640  25.999  0.00  0.00    +0.004 A 
ATOM     16  C   UNL     1       5.427  -5.869  22.896  0.00  0.00    +0.021 C 
BRANCH   8  17
ATOM     17  C   UNL     1       2.924  -5.277  23.267  0.00  0.00    +0.103 C 
BRANCH  17  21
ATOM     18  N   UNL     1       1.801  -7.246  22.495  0.00  0.00    -0.329 N 
ATOM     19  H   UNL     1       2.649  -7.752  22.705  0.00  0.00    +0.145 HD
ATOM     20  H   UNL     1       0.976  -7.768  22.235  0.00  0.00    +0.145 HD
ATOM     21  C   UNL     1       1.648  -5.925  22.805  0.00  0.00    +0.211 C 
ATOM     22  O   UNL     1       0.571  -5.359  22.675  0.00  0.00    -0.276 OA
ENDBRANCH  17  21
ENDBRANCH   8  17
ENDBRANCH   1  14
BRANCH   4  23
ATOM     23  C   UNL     1       8.806  -1.634  25.699  0.00  0.00    +0.067 C 
BRANCH  23  24
ATOM     24  C   UNL     1       7.724  -0.553  26.074  0.00  0.00    +0.138 C 
BRANCH  24  25
ATOM     25  O   UNL     1       8.408   0.583  26.635  0.00  0.00    -0.390 OA
ATOM     26  H   UNL     1       8.320   1.347  26.027  0.00  0.00    +0.210 HD
ENDBRANCH  24  25
BRANCH  24  27
ATOM     27  C   UNL     1       6.597  -0.942  27.097  0.00  0.00    +0.109 C 
BRANCH  27  28
ATOM     28  N   UNL     1       5.611   0.200  27.286  0.00  0.00    -0.275 N 
ATOM     29  H   UNL     1       5.645   0.582  28.224  0.00  0.00    +0.152 HD
ATOM     30  C   UNL     1       4.872   0.999  26.448  0.00  0.00    +0.401 C 
ATOM     31  O   UNL     1       4.706   0.844  25.250  0.00  0.00    -0.226 OA
BRANCH  30  32
ATOM     32  O   UNL     1       4.292   2.029  27.149  0.00  0.00    -0.445 OA
BRANCH  32  33
ATOM     33  C   UNL     1       5.074   3.231  27.424  0.00  0.00    +0.206 C 
ATOM     34  C   UNL     1       6.425   3.388  26.729  0.00  0.00    +0.204 C 
ATOM     35  O   UNL     1       7.300   4.125  27.610  0.00  0.00    -0.376 OA
ATOM     36  C   UNL     1       6.691   4.217  28.899  0.00  0.00    +0.163 C 
ATOM     37  C   UNL     1       5.496   3.282  28.889  0.00  0.00    +0.075 C 
ENDBRANCH  32  33
ENDBRANCH  30  32
ENDBRANCH  27  28
BRANCH  27  38
ATOM     38  C   UNL     1       6.053  -2.404  27.017  0.00  0.00    +0.060 C 
BRANCH  38  39
ATOM     39  C   UNL     1       4.582  -2.772  27.038  0.00  0.00    -0.046 A 
ATOM     40  C   UNL     1       3.965  -3.048  28.280  0.00  0.00    +0.004 A 
ATOM     41  C   UNL     1       2.589  -3.294  28.370  0.00  0.00    +0.000 A 
ATOM     42  C   UNL     1       1.801  -3.256  27.225  0.00  0.00    +0.000 A 
ATOM     43  C   UNL     1       2.396  -3.004  25.994  0.00  0.00    +0.000 A 
ATOM     44  C   UNL     1       3.774  -2.782  25.904  0.00  0.00    +0.004 A 
ENDBRANCH  38  39
ENDBRANCH  27  38
ENDBRANCH  24  27
ENDBRANCH  23  24
ENDBRANCH   4  23
BRANCH   4  45
ATOM     45  C   UNL     1       9.854  -1.735  23.427  0.00  0.00    +0.069 C 
BRANCH  45  46
ATOM     46  C   UNL     1      10.131  -0.295  23.108  0.00  0.00    -0.045 A 
ATOM     47  C   UNL     1      10.743   0.517  24.075  0.00  0.00    +0.004 A 
ATOM     48  C   UNL     1      10.870   1.888  23.870  0.00  0.00    +0.000 A 
ATOM     49  C   UNL     1      10.393   2.459  22.693  0.00  0.00    +0.000 A 
ATOM     50  C   UNL     1       9.747   1.668  21.744  0.00  0.00    +0.000 A 
ATOM     51  C   UNL     1       9.604   0.296  21.956  0.00  0.00    +0.004 A 
ENDBRANCH  45  46
ENDBRANCH   4  45
TORSDOF 14
ENDMDL
MODEL 3
REMARK VINA RESULT:      -7.5      2.414      6.295
REMARK  Name = 
REMARK  14 active torsions:
REMARK  status: ('A' for Active; 'I' for Inactive)
REMARK    1  A    between atoms: C_2  and  C_4
REMARK    2  A    between atoms: C_4  and  C_5
REMARK    3  A    between atoms: C_8  and  C_10
REMARK    4  A    between atoms: C_13  and  C_14
REMARK    5  A    between atoms: C_13  and  C_37
REMARK    6  A    between atoms: C_14  and  C_15
REMARK    7  A    between atoms: C_15  and  O_17
REMARK    8  A    between atoms: C_15  and  C_18
REMARK    9  A    between atoms: C_18  and  C_20
REMARK   10  A    between atoms: C_18  and  N_27
REMARK   11  A    between atoms: C_20  and  C_21
REMARK   12  A    between atoms: C_28  and  O_30
REMARK   13  A    between atoms: O_30  and  C_31
REMARK   14  A    between atoms: C_37  and  C_38
REMARK                            x       y       z     vdW  Elec       q    Type
REMARK                         _______ _______ _______ _____ _____    ______ ____
ROOT
ATOM      1  C   UNL     1       7.139  -4.202  23.849  0.00  0.00    +0.018 C 
ATOM      2  C   UNL     1       8.500  -3.751  24.283  0.00  0.00    +0.184 C 
ATOM      3  O   UNL     1       9.373  -4.505  24.697  0.00  0.00    -0.290 OA
ATOM      4  C   UNL     1       8.640  -2.193  24.214  0.00  0.00    +0.101 C 
ATOM      5  N   UNL     1       7.303  -1.881  23.632  0.00  0.00    -0.337 N 
ATOM      6  H   UNL     1       7.288  -1.284  22.806  0.00  0.00    +0.147 HD
ATOM      7  C   UNL     1       6.570  -3.055  23.472  0.00  0.00    +0.076 C 
ENDROOT
BRANCH   1  14
ATOM      8  C   UNL     1       4.114  -6.276  23.536  0.00  0.00    +0.029 C 
ATOM      9  C   UNL     1       4.434  -6.301  25.001  0.00  0.00    -0.040 A 
ATOM     10  C   UNL     1       5.752  -5.914  25.267  0.00  0.00    -0.036 A 
ATOM     11  C   UNL     1       6.228  -6.001  26.571  0.00  0.00    +0.004 A 
ATOM     12  C   UNL     1       5.346  -6.362  27.603  0.00  0.00    +0.000 A 
ATOM     13  C   UNL     1       4.005  -6.660  27.332  0.00  0.00    +0.000 A 
ATOM     14  C   UNL     1       6.507  -5.568  24.004  0.00  0.00    +0.054 C 
ATOM     15  C   UNL     1       3.551  -6.657  26.019  0.00  0.00    +0.004 A 
ATOM     16  C   UNL     1       5.463  -5.875  22.894  0.00  0.00    +0.021 C 
BRANCH   8  17
ATOM     17  C   UNL     1       2.954  -5.316  23.285  0.00  0.00    +0.103 C 
BRANCH  17  21
ATOM     18  N   UNL     1       1.860  -7.312  22.537  0.00  0.00    -0.329 N 
ATOM     19  H   UNL     1       2.700  -7.810  22.797  0.00  0.00    +0.145 HD
ATOM     20  H   UNL     1       1.046  -7.842  22.264  0.00  0.00    +0.145 HD
ATOM     21  C   UNL     1       1.697  -5.980  22.797  0.00  0.00    +0.211 C 
ATOM     22  O   UNL     1       0.626  -5.419  22.607  0.00  0.00    -0.276 OA
ENDBRANCH  17  21
ENDBRANCH   8  17
ENDBRANCH   1  14
BRANCH   4  23
ATOM     23  C   UNL     1       8.749  -1.550  25.656  0.00  0.00    +0.067 C 
BRANCH  23  24
ATOM     24  C   UNL     1       7.616  -0.517  26.010  0.00  0.00    +0.138 C 
BRANCH  24  25
ATOM     25  O   UNL     1       8.245   0.683  26.498  0.00  0.00    -0.390 OA
ATOM     26  H   UNL     1       9.015   0.442  27.055  0.00  0.00    +0.210 HD
ENDBRANCH  24  25
BRANCH  24  27
ATOM     27  C   UNL     1       6.540  -0.921  27.082  0.00  0.00    +0.109 C 
BRANCH  27  28
ATOM     28  N   UNL     1       5.538   0.202  27.302  0.00  0.00    -0.275 N 
ATOM     29  H   UNL     1       4.922   0.324  26.507  0.00  0.00    +0.152 HD
ATOM     30  C   UNL     1       5.100   0.920  28.388  0.00  0.00    +0.401 C 
ATOM     31  O   UNL     1       5.588   0.922  29.505  0.00  0.00    -0.226 OA
BRANCH  30  32
ATOM     32  O   UNL     1       4.014   1.691  28.052  0.00  0.00    -0.445 OA
BRANCH  32  33
ATOM     33  C   UNL     1       3.030   1.163  27.112  0.00  0.00    +0.206 C 
ATOM     34  C   UNL     1       2.144   2.156  26.361  0.00  0.00    +0.204 C 
ATOM     35  O   UNL     1       0.867   1.526  26.124  0.00  0.00    -0.376 OA
ATOM     36  C   UNL     1       0.792   0.322  26.889  0.00  0.00    +0.163 C 
ATOM     37  C   UNL     1       1.977   0.329  27.836  0.00  0.00    +0.075 C 
ENDBRANCH  32  33
ENDBRANCH  30  32
ENDBRANCH  27  28
BRANCH  27  38
ATOM     38  C   UNL     1       6.025  -2.394  27.036  0.00  0.00    +0.060 C 
BRANCH  38  39
ATOM     39  C   UNL     1       4.561  -2.790  27.056  0.00  0.00    -0.046 A 
ATOM     40  C   UNL     1       3.950  -3.087  28.296  0.00  0.00    +0.004 A 
ATOM     41  C   UNL     1       2.579  -3.359  28.386  0.00  0.00    +0.000 A 
ATOM     42  C   UNL     1       1.790  -3.329  27.241  0.00  0.00    +0.000 A 
ATOM     43  C   UNL     1       2.379  -3.056  26.012  0.00  0.00    +0.000 A 
ATOM     44  C   UNL     1       3.753  -2.808  25.922  0.00  0.00    +0.004 A 
ENDBRANCH  38  39
ENDBRANCH  27  38
ENDBRANCH  24  27
ENDBRANCH  23  24
ENDBRANCH   4  23
BRANCH   4  45
ATOM     45  C   UNL     1       9.839  -1.673  23.405  0.00  0.00    +0.069 C 
BRANCH  45  46
ATOM     46  C   UNL     1      10.125  -0.231  23.108  0.00  0.00    -0.045 A 
ATOM     47  C   UNL     1      10.750   0.561  24.083  0.00  0.00    +0.004 A 
ATOM     48  C   UNL     1      10.885   1.934  23.900  0.00  0.00    +0.000 A 
ATOM     49  C   UNL     1      10.403   2.529  22.737  0.00  0.00    +0.000 A 
ATOM     50  C   UNL     1       9.744   1.758  21.780  0.00  0.00    +0.000 A 
ATOM     51  C   UNL     1       9.593   0.384  21.970  0.00  0.00    +0.004 A 
ENDBRANCH  45  46
ENDBRANCH   4  45
TORSDOF 14
ENDMDL
MODEL 4
REMARK VINA RESULT:      -7.3      1.418      2.586
REMARK  Name = 
REMARK  14 active torsions:
REMARK  status: ('A' for Active; 'I' for Inactive)
REMARK    1  A    between atoms: C_2  and  C_4
REMARK    2  A    between atoms: C_4  and  C_5
REMARK    3  A    between atoms: C_8  and  C_10
REMARK    4  A    between atoms: C_13  and  C_14
REMARK    5  A    between atoms: C_13  and  C_37
REMARK    6  A    between atoms: C_14  and  C_15
REMARK    7  A    between atoms: C_15  and  O_17
REMARK    8  A    between atoms: C_15  and  C_18
REMARK    9  A    between atoms: C_18  and  C_20
REMARK   10  A    between atoms: C_18  and  N_27
REMARK   11  A    between atoms: C_20  and  C_21
REMARK   12  A    between atoms: C_28  and  O_30
REMARK   13  A    between atoms: O_30  and  C_31
REMARK   14  A    between atoms: C_37  and  C_38
REMARK                            x       y       z     vdW  Elec       q    Type
REMARK                         _______ _______ _______ _____ _____    ______ ____
ROOT
ATOM      1  C   UNL     1       4.881  -1.934  25.722  0.00  0.00    +0.018 C 
ATOM      2  C   UNL     1       5.592  -0.830  25.000  0.00  0.00    +0.184 C 
ATOM      3  O   UNL     1       6.073  -0.943  23.878  0.00  0.00    -0.290 OA
ATOM      4  C   UNL     1       5.709   0.455  25.886  0.00  0.00    +0.101 C 
ATOM      5  N   UNL     1       4.937  -0.025  27.068  0.00  0.00    -0.337 N 
ATOM      6  H   UNL     1       4.187   0.579  27.404  0.00  0.00    +0.147 HD
ATOM      7  C   UNL     1       4.530  -1.342  26.866  0.00  0.00    +0.076 C 
ENDROOT
BRANCH   1  14
ATOM      8  C   UNL     1       2.739  -4.904  25.341  0.00  0.00    +0.029 C 
ATOM      9  C   UNL     1       3.726  -5.289  26.404  0.00  0.00    -0.040 A 
ATOM     10  C   UNL     1       4.855  -4.463  26.408  0.00  0.00    -0.036 A 
ATOM     11  C   UNL     1       5.909  -4.771  27.261  0.00  0.00    +0.004 A 
ATOM     12  C   UNL     1       5.768  -5.829  28.176  0.00  0.00    +0.000 A 
ATOM     13  C   UNL     1       4.594  -6.590  28.220  0.00  0.00    +0.000 A 
ATOM     14  C   UNL     1       4.781  -3.395  25.341  0.00  0.00    +0.054 C 
ATOM     15  C   UNL     1       3.575  -6.337  27.309  0.00  0.00    +0.004 A 
ATOM     16  C   UNL     1       3.449  -3.736  24.616  0.00  0.00    +0.021 C 
BRANCH   8  17
ATOM     17  C   UNL     1       1.401  -4.559  25.990  0.00  0.00    +0.103 C 
BRANCH  17  21
ATOM     18  N   UNL     1       1.511  -2.951  27.762  0.00  0.00    -0.329 N 
ATOM     19  H   UNL     1       1.877  -3.690  28.344  0.00  0.00    +0.145 HD
ATOM     20  H   UNL     1       1.507  -2.007  28.121  0.00  0.00    +0.145 HD
ATOM     21  C   UNL     1       1.277  -3.126  26.427  0.00  0.00    +0.211 C 
ATOM     22  O   UNL     1       0.969  -2.188  25.704  0.00  0.00    -0.276 OA
ENDBRANCH  17  21
ENDBRANCH   8  17
ENDBRANCH   1  14
BRANCH   4  23
ATOM     23  C   UNL     1       7.207   0.736  26.315  0.00  0.00    +0.067 C 
BRANCH  23  24
ATOM     24  C   UNL     1       7.935  -0.472  27.013  0.00  0.00    +0.138 C 
BRANCH  24  25
ATOM     25  O   UNL     1       8.633   0.036  28.165  0.00  0.00    -0.390 OA
ATOM     26  H   UNL     1       9.565  -0.265  28.139  0.00  0.00    +0.210 HD
ENDBRANCH  24  25
BRANCH  24  27
ATOM     27  C   UNL     1       8.987  -1.295  26.185  0.00  0.00    +0.109 C 
BRANCH  27  28
ATOM     28  N   UNL     1       8.333  -2.487  25.502  0.00  0.00    -0.275 N 
ATOM     29  H   UNL     1       7.324  -2.466  25.583  0.00  0.00    +0.152 HD
ATOM     30  C   UNL     1       8.742  -3.440  24.601  0.00  0.00    +0.401 C 
ATOM     31  O   UNL     1       9.885  -3.657  24.238  0.00  0.00    -0.226 OA
BRANCH  30  32
ATOM     32  O   UNL     1       7.670  -4.174  24.153  0.00  0.00    -0.445 OA
BRANCH  32  33
ATOM     33  C   UNL     1       7.487  -4.361  22.718  0.00  0.00    +0.206 C 
ATOM     34  C   UNL     1       6.403  -3.544  22.016  0.00  0.00    +0.204 C 
ATOM     35  O   UNL     1       5.885  -4.331  20.923  0.00  0.00    -0.376 OA
ATOM     36  C   UNL     1       6.372  -5.669  21.042  0.00  0.00    +0.163 C 
ATOM     37  C   UNL     1       7.022  -5.780  22.408  0.00  0.00    +0.075 C 
ENDBRANCH  32  33
ENDBRANCH  30  32
ENDBRANCH  27  28
BRANCH  27  38
ATOM     38  C   UNL     1      10.062  -0.474  25.406  0.00  0.00    +0.060 C 
BRANCH  38  39
ATOM     39  C   UNL     1       9.806   0.244  24.094  0.00  0.00    -0.046 A 
ATOM     40  C   UNL     1      10.060   1.632  24.015  0.00  0.00    +0.004 A 
ATOM     41  C   UNL     1       9.939   2.327  22.805  0.00  0.00    +0.000 A 
ATOM     42  C   UNL     1       9.573   1.646  21.649  0.00  0.00    +0.000 A 
ATOM     43  C   UNL     1       9.303   0.284  21.713  0.00  0.00    +0.000 A 
ATOM     44  C   UNL     1       9.402  -0.402  22.929  0.00  0.00    +0.004 A 
ENDBRANCH  38  39
ENDBRANCH  27  38
ENDBRANCH  24  27
ENDBRANCH  23  24
ENDBRANCH   4  23
BRANCH   4  45
ATOM     45  C   UNL     1       5.182   1.749  25.245  0.00  0.00    +0.069 C 
BRANCH  45  46
ATOM     46  C   UNL     1       5.946   2.618  24.291  0.00  0.00    -0.045 A 
ATOM     47  C   UNL     1       6.528   3.805  24.759  0.00  0.00    +0.004 A 
ATOM     48  C   UNL     1       7.106   4.708  23.870  0.00  0.00    +0.000 A 
ATOM     49  C   UNL     1       7.114   4.429  22.506  0.00  0.00    +0.000 A 
ATOM     50  C   UNL     1       6.501   3.272  22.026  0.00  0.00    +0.000 A 
ATOM     51  C   UNL     1       5.908   2.374  22.914  0.00  0.00    +0.004 A 
ENDBRANCH  45  46
ENDBRANCH   4  45
TORSDOF 14
ENDMDL
MODEL 5
REMARK VINA RESULT:      -7.2      2.213      5.315
REMARK  Name = 
REMARK  14 active torsions:
REMARK  status: ('A' for Active; 'I' for Inactive)
REMARK    1  A    between atoms: C_2  and  C_4
REMARK    2  A    between atoms: C_4  and  C_5
REMARK    3  A    between atoms: C_8  and  C_10
REMARK    4  A    between atoms: C_13  and  C_14
REMARK    5  A    between atoms: C_13  and  C_37
REMARK    6  A    between atoms: C_14  and  C_15
REMARK    7  A    between atoms: C_15  and  O_17
REMARK    8  A    between atoms: C_15  and  C_18
REMARK    9  A    between atoms: C_18  and  C_20
REMARK   10  A    between atoms: C_18  and  N_27
REMARK   11  A    between atoms: C_20  and  C_21
REMARK   12  A    between atoms: C_28  and  O_30
REMARK   13  A    between atoms: O_30  and  C_31
REMARK   14  A    between atoms: C_37  and  C_38
REMARK                            x       y       z     vdW  Elec       q    Type
REMARK                         _______ _______ _______ _____ _____    ______ ____
ROOT
ATOM      1  C   UNL     1       6.739  -4.012  23.388  0.00  0.00    +0.018 C 
ATOM      2  C   UNL     1       7.912  -3.117  23.649  0.00  0.00    +0.184 C 
ATOM      3  O   UNL     1       8.940  -3.479  24.209  0.00  0.00    -0.290 OA
ATOM      4  C   UNL     1       7.629  -1.648  23.189  0.00  0.00    +0.101 C 
ATOM      5  N   UNL     1       6.278  -1.863  22.594  0.00  0.00    -0.337 N 
ATOM      6  H   UNL     1       6.133  -1.518  21.646  0.00  0.00    +0.147 HD
ATOM      7  C   UNL     1       5.895  -3.193  22.756  0.00  0.00    +0.076 C 
ENDROOT
BRANCH   1  14
ATOM      8  C   UNL     1       4.288  -6.632  24.209  0.00  0.00    +0.029 C 
ATOM      9  C   UNL     1       4.943  -6.311  25.520  0.00  0.00    -0.040 A 
ATOM     10  C   UNL     1       6.161  -5.641  25.358  0.00  0.00    -0.036 A 
ATOM     11  C   UNL     1       6.939  -5.382  26.480  0.00  0.00    +0.004 A 
ATOM     12  C   UNL     1       6.434  -5.691  27.755  0.00  0.00    +0.000 A 
ATOM     13  C   UNL     1       5.173  -6.280  27.905  0.00  0.00    +0.000 A 
ATOM     14  C   UNL     1       6.494  -5.415  23.901  0.00  0.00    +0.054 C 
ATOM     15  C   UNL     1       4.432  -6.618  26.779  0.00  0.00    +0.004 A 
ATOM     16  C   UNL     1       5.316  -6.121  23.173  0.00  0.00    +0.021 C 
BRANCH   8  17
ATOM     17  C   UNL     1       2.913  -5.973  24.152  0.00  0.00    +0.103 C 
BRANCH  17  21
ATOM     18  N   UNL     1       2.086  -7.892  22.982  0.00  0.00    -0.329 N 
ATOM     19  H   UNL     1       2.598  -8.456  23.646  0.00  0.00    +0.145 HD
ATOM     20  H   UNL     1       1.460  -8.352  22.337  0.00  0.00    +0.145 HD
ATOM     21  C   UNL     1       2.001  -6.534  23.097  0.00  0.00    +0.211 C 
ATOM     22  O   UNL     1       1.265  -5.877  22.372  0.00  0.00    -0.276 OA
ENDBRANCH  17  21
ENDBRANCH   8  17
ENDBRANCH   1  14
BRANCH   4  23
ATOM     23  C   UNL     1       7.509  -0.661  24.421  0.00  0.00    +0.067 C 
BRANCH  23  24
ATOM     24  C   UNL     1       6.286   0.328  24.364  0.00  0.00    +0.138 C 
BRANCH  24  25
ATOM     25  O   UNL     1       6.226   0.885  23.037  0.00  0.00    -0.390 OA
ATOM     26  H   UNL     1       7.123   0.875  22.641  0.00  0.00    +0.210 HD
ENDBRANCH  24  25
BRANCH  24  27
ATOM     27  C   UNL     1       6.257   1.545  25.357  0.00  0.00    +0.109 C 
BRANCH  27  28
ATOM     28  N   UNL     1       5.582   1.166  26.667  0.00  0.00    -0.275 N 
ATOM     29  H   UNL     1       4.572   1.171  26.591  0.00  0.00    +0.152 HD
ATOM     30  C   UNL     1       5.992   0.584  27.842  0.00  0.00    +0.401 C 
ATOM     31  O   UNL     1       7.141   0.369  28.188  0.00  0.00    -0.226 OA
BRANCH  30  32
ATOM     32  O   UNL     1       4.910   0.280  28.634  0.00  0.00    -0.445 OA
BRANCH  32  33
ATOM     33  C   UNL     1       3.928  -0.687  28.155  0.00  0.00    +0.206 C 
ATOM     34  C   UNL     1       2.813  -1.115  29.108  0.00  0.00    +0.204 C 
ATOM     35  O   UNL     1       2.463  -2.483  28.804  0.00  0.00    -0.376 OA
ATOM     36  C   UNL     1       3.442  -3.026  27.916  0.00  0.00    +0.163 C 
ATOM     37  C   UNL     1       4.586  -2.032  27.860  0.00  0.00    +0.075 C 
ENDBRANCH  32  33
ENDBRANCH  30  32
ENDBRANCH  27  28
BRANCH  27  38
ATOM     38  C   UNL     1       7.530   2.447  25.397  0.00  0.00    +0.060 C 
BRANCH  38  39
ATOM     39  C   UNL     1       7.714   3.705  24.569  0.00  0.00    -0.046 A 
ATOM     40  C   UNL     1       8.693   4.645  24.963  0.00  0.00    +0.004 A 
ATOM     41  C   UNL     1       8.976   5.773  24.182  0.00  0.00    +0.000 A 
ATOM     42  C   UNL     1       8.295   5.976  22.987  0.00  0.00    +0.000 A 
ATOM     43  C   UNL     1       7.317   5.070  22.594  0.00  0.00    +0.000 A 
ATOM     44  C   UNL     1       7.021   3.958  23.388  0.00  0.00    +0.004 A 
ENDBRANCH  38  39
ENDBRANCH  27  38
ENDBRANCH  24  27
ENDBRANCH  23  24
ENDBRANCH   4  23
BRANCH   4  45
ATOM     45  C   UNL     1       8.671  -1.042  22.236  0.00  0.00    +0.069 C 
BRANCH  45  46
ATOM     46  C   UNL     1       9.563   0.122  22.553  0.00  0.00    -0.045 A 
ATOM     47  C   UNL     1      10.359   0.083  23.708  0.00  0.00    +0.004 A 
ATOM     48  C   UNL     1      11.075   1.206  24.112  0.00  0.00    +0.000 A 
ATOM     49  C   UNL     1      11.008   2.377  23.362  0.00  0.00    +0.000 A 
ATOM     50  C   UNL     1      10.188   2.440  22.236  0.00  0.00    +0.000 A 
ATOM     51  C   UNL     1       9.457   1.320  21.839  0.00  0.00    +0.004 A 
ENDBRANCH  45  46
ENDBRANCH   4  45
TORSDOF 14
ENDMDL
MODEL 6
REMARK VINA RESULT:      -7.0      2.551      6.456
REMARK  Name = 
REMARK  14 active torsions:
REMARK  status: ('A' for Active; 'I' for Inactive)
REMARK    1  A    between atoms: C_2  and  C_4
REMARK    2  A    between atoms: C_4  and  C_5
REMARK    3  A    between atoms: C_8  and  C_10
REMARK    4  A    between atoms: C_13  and  C_14
REMARK    5  A    between atoms: C_13  and  C_37
REMARK    6  A    between atoms: C_14  and  C_15
REMARK    7  A    between atoms: C_15  and  O_17
REMARK    8  A    between atoms: C_15  and  C_18
REMARK    9  A    between atoms: C_18  and  C_20
REMARK   10  A    between atoms: C_18  and  N_27
REMARK   11  A    between atoms: C_20  and  C_21
REMARK   12  A    between atoms: C_28  and  O_30
REMARK   13  A    between atoms: O_30  and  C_31
REMARK   14  A    between atoms: C_37  and  C_38
REMARK                            x       y       z     vdW  Elec       q    Type
REMARK                         _______ _______ _______ _____ _____    ______ ____
ROOT
ATOM      1  C   UNL     1       7.025  -3.373  23.490  0.00  0.00    +0.018 C 
ATOM      2  C   UNL     1       8.340  -2.686  23.699  0.00  0.00    +0.184 C 
ATOM      3  O   UNL     1       9.407  -3.275  23.838  0.00  0.00    -0.290 OA
ATOM      4  C   UNL     1       8.171  -1.133  23.795  0.00  0.00    +0.101 C 
ATOM      5  N   UNL     1       6.704  -1.059  23.532  0.00  0.00    -0.337 N 
ATOM      6  H   UNL     1       6.400  -0.413  22.804  0.00  0.00    +0.147 HD
ATOM      7  C   UNL     1       6.184  -2.342  23.376  0.00  0.00    +0.076 C 
ENDROOT
BRANCH   1  14
ATOM      8  C   UNL     1       4.469  -6.017  23.328  0.00  0.00    +0.029 C 
ATOM      9  C   UNL     1       4.961  -6.059  24.745  0.00  0.00    -0.040 A 
ATOM     10  C   UNL     1       6.195  -5.419  24.901  0.00  0.00    -0.036 A 
ATOM     11  C   UNL     1       6.831  -5.480  26.136  0.00  0.00    +0.004 A 
ATOM     12  C   UNL     1       6.171  -6.079  27.222  0.00  0.00    +0.000 A 
ATOM     13  C   UNL     1       4.896  -6.636  27.071  0.00  0.00    +0.000 A 
ATOM     14  C   UNL     1       6.707  -4.849  23.599  0.00  0.00    +0.054 C 
ATOM     15  C   UNL     1       4.297  -6.652  25.817  0.00  0.00    +0.004 A 
ATOM     16  C   UNL     1       5.621  -5.304  22.583  0.00  0.00    +0.021 C 
BRANCH   8  17
ATOM     17  C   UNL     1       3.117  -5.310  23.281  0.00  0.00    +0.103 C 
BRANCH  17  21
ATOM     18  N   UNL     1       2.300  -7.517  22.833  0.00  0.00    -0.329 N 
ATOM     19  H   UNL     1       3.172  -7.862  23.207  0.00  0.00    +0.145 HD
ATOM     20  H   UNL     1       1.568  -8.179  22.619  0.00  0.00    +0.145 HD
ATOM     21  C   UNL     1       1.973  -6.191  22.859  0.00  0.00    +0.211 C 
ATOM     22  O   UNL     1       0.860  -5.801  22.534  0.00  0.00    -0.276 OA
ENDBRANCH  17  21
ENDBRANCH   8  17
ENDBRANCH   1  14
BRANCH   4  23
ATOM     23  C   UNL     1       8.469  -0.601  25.255  0.00  0.00    +0.067 C 
BRANCH  23  24
ATOM     24  C   UNL     1       7.296   0.212  25.919  0.00  0.00    +0.138 C 
BRANCH  24  25
ATOM     25  O   UNL     1       7.841   1.444  26.429  0.00  0.00    -0.390 OA
ATOM     26  H   UNL     1       8.606   1.244  27.008  0.00  0.00    +0.210 HD
ENDBRANCH  24  25
BRANCH  24  27
ATOM     27  C   UNL     1       6.504  -0.447  27.105  0.00  0.00    +0.109 C 
BRANCH  27  28
ATOM     28  N   UNL     1       5.433   0.494  27.638  0.00  0.00    -0.275 N 
ATOM     29  H   UNL     1       5.688   0.894  28.533  0.00  0.00    +0.152 HD
ATOM     30  C   UNL     1       4.335   1.122  27.104  0.00  0.00    +0.401 C 
ATOM     31  O   UNL     1       3.834   0.914  26.013  0.00  0.00    -0.226 OA
BRANCH  30  32
ATOM     32  O   UNL     1       3.824   2.039  27.992  0.00  0.00    -0.445 OA
BRANCH  32  33
ATOM     33  C   UNL     1       4.242   3.434  27.893  0.00  0.00    +0.206 C 
ATOM     34  C   UNL     1       5.215   3.819  26.779  0.00  0.00    +0.204 C 
ATOM     35  O   UNL     1       6.036   4.906  27.258  0.00  0.00    -0.376 OA
ATOM     36  C   UNL     1       5.831   5.059  28.663  0.00  0.00    +0.163 C 
ATOM     37  C   UNL     1       5.035   3.854  29.126  0.00  0.00    +0.075 C 
ENDBRANCH  32  33
ENDBRANCH  30  32
ENDBRANCH  27  28
BRANCH  27  38
ATOM     38  C   UNL     1       6.174  -1.967  26.968  0.00  0.00    +0.060 C 
BRANCH  38  39
ATOM     39  C   UNL     1       4.790  -2.562  27.149  0.00  0.00    -0.046 A 
ATOM     40  C   UNL     1       3.930  -2.643  26.030  0.00  0.00    +0.004 A 
ATOM     41  C   UNL     1       2.682  -3.273  26.115  0.00  0.00    +0.000 A 
ATOM     42  C   UNL     1       2.275  -3.845  27.316  0.00  0.00    +0.000 A 
ATOM     43  C   UNL     1       3.102  -3.759  28.429  0.00  0.00    +0.000 A 
ATOM     44  C   UNL     1       4.337  -3.108  28.347  0.00  0.00    +0.004 A 
ENDBRANCH  38  39
ENDBRANCH  27  38
ENDBRANCH  24  27
ENDBRANCH  23  24
ENDBRANCH   4  23
BRANCH   4  45
ATOM     45  C   UNL     1       9.047  -0.312  22.836  0.00  0.00    +0.069 C 
BRANCH  45  46
ATOM     46  C   UNL     1       9.314   1.159  22.950  0.00  0.00    -0.045 A 
ATOM     47  C   UNL     1      10.569   1.596  23.400  0.00  0.00    +0.004 A 
ATOM     48  C   UNL     1      10.795   2.944  23.666  0.00  0.00    +0.000 A 
ATOM     49  C   UNL     1       9.771   3.869  23.479  0.00  0.00    +0.000 A 
ATOM     50  C   UNL     1       8.508   3.439  23.072  0.00  0.00    +0.000 A 
ATOM     51  C   UNL     1       8.276   2.087  22.820  0.00  0.00    +0.004 A 
ENDBRANCH  45  46
ENDBRANCH   4  45
TORSDOF 14
ENDMDL
MODEL 7
REMARK VINA RESULT:      -7.0      2.512      6.277
REMARK  Name = 
REMARK  14 active torsions:
REMARK  status: ('A' for Active; 'I' for Inactive)
REMARK    1  A    between atoms: C_2  and  C_4
REMARK    2  A    between atoms: C_4  and  C_5
REMARK    3  A    between atoms: C_8  and  C_10
REMARK    4  A    between atoms: C_13  and  C_14
REMARK    5  A    between atoms: C_13  and  C_37
REMARK    6  A    between atoms: C_14  and  C_15
REMARK    7  A    between atoms: C_15  and  O_17
REMARK    8  A    between atoms: C_15  and  C_18
REMARK    9  A    between atoms: C_18  and  C_20
REMARK   10  A    between atoms: C_18  and  N_27
REMARK   11  A    between atoms: C_20  and  C_21
REMARK   12  A    between atoms: C_28  and  O_30
REMARK   13  A    between atoms: O_30  and  C_31
REMARK   14  A    between atoms: C_37  and  C_38
REMARK                            x       y       z     vdW  Elec       q    Type
REMARK                         _______ _______ _______ _____ _____    ______ ____
ROOT
ATOM      1  C   UNL     1       7.013  -3.281  23.403  0.00  0.00    +0.018 C 
ATOM      2  C   UNL     1       8.317  -2.568  23.592  0.00  0.00    +0.184 C 
ATOM      3  O   UNL     1       9.398  -3.134  23.706  0.00  0.00    -0.290 OA
ATOM      4  C   UNL     1       8.116  -1.019  23.701  0.00  0.00    +0.101 C 
ATOM      5  N   UNL     1       6.644  -0.975  23.467  0.00  0.00    -0.337 N 
ATOM      6  H   UNL     1       6.311  -0.331  22.750  0.00  0.00    +0.147 HD
ATOM      7  C   UNL     1       6.148  -2.268  23.313  0.00  0.00    +0.076 C 
ENDROOT
BRANCH   1  14
ATOM      8  C   UNL     1       4.510  -5.978  23.277  0.00  0.00    +0.029 C 
ATOM      9  C   UNL     1       5.033  -6.019  24.683  0.00  0.00    -0.040 A 
ATOM     10  C   UNL     1       6.257  -5.354  24.817  0.00  0.00    -0.036 A 
ATOM     11  C   UNL     1       6.921  -5.410  26.037  0.00  0.00    +0.004 A 
ATOM     12  C   UNL     1       6.297  -6.029  27.133  0.00  0.00    +0.000 A 
ATOM     13  C   UNL     1       5.031  -6.613  27.005  0.00  0.00    +0.000 A 
ATOM     14  C   UNL     1       6.728  -4.764  23.508  0.00  0.00    +0.054 C 
ATOM     15  C   UNL     1       4.405  -6.634  25.765  0.00  0.00    +0.004 A 
ATOM     16  C   UNL     1       5.631  -5.235  22.513  0.00  0.00    +0.021 C 
BRANCH   8  17
ATOM     17  C   UNL     1       3.143  -5.300  23.264  0.00  0.00    +0.103 C 
BRANCH  17  21
ATOM     18  N   UNL     1       2.340  -7.523  22.875  0.00  0.00    -0.329 N 
ATOM     19  H   UNL     1       3.202  -7.852  23.285  0.00  0.00    +0.145 HD
ATOM     20  H   UNL     1       1.615  -8.193  22.665  0.00  0.00    +0.145 HD
ATOM     21  C   UNL     1       2.012  -6.197  22.843  0.00  0.00    +0.211 C 
ATOM     22  O   UNL     1       0.907  -5.821  22.473  0.00  0.00    -0.276 OA
ENDBRANCH  17  21
ENDBRANCH   8  17
ENDBRANCH   1  14
BRANCH   4  23
ATOM     23  C   UNL     1       8.432  -0.490  25.159  0.00  0.00    +0.067 C 
BRANCH  23  24
ATOM     24  C   UNL     1       7.254   0.291  25.852  0.00  0.00    +0.138 C 
BRANCH  24  25
ATOM     25  O   UNL     1       7.768   1.556  26.310  0.00  0.00    -0.390 OA
ATOM     26  H   UNL     1       8.564   1.402  26.861  0.00  0.00    +0.210 HD
ENDBRANCH  24  25
BRANCH  24  27
ATOM     27  C   UNL     1       6.539  -0.370  27.085  0.00  0.00    +0.109 C 
BRANCH  27  28
ATOM     28  N   UNL     1       5.466   0.548  27.652  0.00  0.00    -0.275 N 
ATOM     29  H   UNL     1       4.647   0.589  27.058  0.00  0.00    +0.152 HD
ATOM     30  C   UNL     1       5.229   1.133  28.872  0.00  0.00    +0.401 C 
ATOM     31  O   UNL     1       5.994   1.179  29.820  0.00  0.00    -0.226 OA
BRANCH  30  32
ATOM     32  O   UNL     1       3.983   1.712  28.896  0.00  0.00    -0.445 OA
BRANCH  32  33
ATOM     33  C   UNL     1       2.866   0.970  29.473  0.00  0.00    +0.206 C 
ATOM     34  C   UNL     1       3.180  -0.199  30.405  0.00  0.00    +0.204 C 
ATOM     35  O   UNL     1       2.135  -1.184  30.257  0.00  0.00    -0.376 OA
ATOM     36  C   UNL     1       1.334  -0.845  29.123  0.00  0.00    +0.163 C 
ATOM     37  C   UNL     1       2.062   0.263  28.386  0.00  0.00    +0.075 C 
ENDBRANCH  32  33
ENDBRANCH  30  32
ENDBRANCH  27  28
BRANCH  27  38
ATOM     38  C   UNL     1       6.249  -1.901  26.988  0.00  0.00    +0.060 C 
BRANCH  38  39
ATOM     39  C   UNL     1       4.870  -2.521  27.121  0.00  0.00    -0.046 A 
ATOM     40  C   UNL     1       4.012  -2.526  25.998  0.00  0.00    +0.004 A 
ATOM     41  C   UNL     1       2.771  -3.173  26.033  0.00  0.00    +0.000 A 
ATOM     42  C   UNL     1       2.368  -3.838  27.187  0.00  0.00    +0.000 A 
ATOM     43  C   UNL     1       3.193  -3.827  28.305  0.00  0.00    +0.000 A 
ATOM     44  C   UNL     1       4.422  -3.160  28.275  0.00  0.00    +0.004 A 
ENDBRANCH  38  39
ENDBRANCH  27  38
ENDBRANCH  24  27
ENDBRANCH  23  24
ENDBRANCH   4  23
BRANCH   4  45
ATOM     45  C   UNL     1       8.956  -0.174  22.731  0.00  0.00    +0.069 C 
BRANCH  45  46
ATOM     46  C   UNL     1       9.228   1.294  22.873  0.00  0.00    -0.045 A 
ATOM     47  C   UNL     1      10.492   1.720  23.308  0.00  0.00    +0.004 A 
ATOM     48  C   UNL     1      10.726   3.061  23.600  0.00  0.00    +0.000 A 
ATOM     49  C   UNL     1       9.700   3.991  23.452  0.00  0.00    +0.000 A 
ATOM     50  C   UNL     1       8.429   3.573  23.059  0.00  0.00    +0.000 A 
ATOM     51  C   UNL     1       8.189   2.226  22.782  0.00  0.00    +0.004 A 
ENDBRANCH  45  46
ENDBRANCH   4  45
TORSDOF 14
ENDMDL
MODEL 8
REMARK VINA RESULT:      -7.0      2.130      4.978
REMARK  Name = 
REMARK  14 active torsions:
REMARK  status: ('A' for Active; 'I' for Inactive)
REMARK    1  A    between atoms: C_2  and  C_4
REMARK    2  A    between atoms: C_4  and  C_5
REMARK    3  A    between atoms: C_8  and  C_10
REMARK    4  A    between atoms: C_13  and  C_14
REMARK    5  A    between atoms: C_13  and  C_37
REMARK    6  A    between atoms: C_14  and  C_15
REMARK    7  A    between atoms: C_15  and  O_17
REMARK    8  A    between atoms: C_15  and  C_18
REMARK    9  A    between atoms: C_18  and  C_20
REMARK   10  A    between atoms: C_18  and  N_27
REMARK   11  A    between atoms: C_20  and  C_21
REMARK   12  A    between atoms: C_28  and  O_30
REMARK   13  A    between atoms: O_30  and  C_31
REMARK   14  A    between atoms: C_37  and  C_38
REMARK                            x       y       z     vdW  Elec       q    Type
REMARK                         _______ _______ _______ _____ _____    ______ ____
ROOT
ATOM      1  C   UNL     1       6.374   1.509  25.727  0.00  0.00    +0.018 C 
ATOM      2  C   UNL     1       6.642   1.571  24.255  0.00  0.00    +0.184 C 
ATOM      3  O   UNL     1       5.767   1.548  23.396  0.00  0.00    -0.290 OA
ATOM      4  C   UNL     1       8.178   1.589  23.949  0.00  0.00    +0.101 C 
ATOM      5  N   UNL     1       8.677   1.625  25.354  0.00  0.00    -0.337 N 
ATOM      6  H   UNL     1       9.356   2.351  25.583  0.00  0.00    +0.147 HD
ATOM      7  C   UNL     1       7.604   1.581  26.241  0.00  0.00    +0.076 C 
ENDROOT
BRANCH   1  14
ATOM      8  C   UNL     1       4.610   1.043  28.925  0.00  0.00    +0.029 C 
ATOM      9  C   UNL     1       4.483  -0.281  28.232  0.00  0.00    -0.040 A 
ATOM     10  C   UNL     1       4.731  -0.191  26.858  0.00  0.00    -0.036 A 
ATOM     11  C   UNL     1       4.535  -1.317  26.065  0.00  0.00    +0.004 A 
ATOM     12  C   UNL     1       4.208  -2.540  26.675  0.00  0.00    +0.000 A 
ATOM     13  C   UNL     1       4.051  -2.633  28.063  0.00  0.00    +0.000 A 
ATOM     14  C   UNL     1       5.067   1.220  26.433  0.00  0.00    +0.054 C 
ATOM     15  C   UNL     1       4.161  -1.491  28.846  0.00  0.00    +0.004 A 
ATOM     16  C   UNL     1       4.914   2.015  27.761  0.00  0.00    +0.021 C 
BRANCH   8  17
ATOM     17  C   UNL     1       5.686   0.952  30.004  0.00  0.00    +0.103 C 
BRANCH  17  21
ATOM     18  N   UNL     1       7.861   1.930  29.784  0.00  0.00    -0.329 N 
ATOM     19  H   UNL     1       8.157   1.058  29.369  0.00  0.00    +0.145 HD
ATOM     20  H   UNL     1       8.498   2.713  29.774  0.00  0.00    +0.145 HD
ATOM     21  C   UNL     1       6.557   2.172  30.113  0.00  0.00    +0.211 C 
ATOM     22  O   UNL     1       6.187   3.278  30.484  0.00  0.00    -0.276 OA
ENDBRANCH  17  21
ENDBRANCH   8  17
ENDBRANCH   1  14
BRANCH   4  23
ATOM     23  C   UNL     1       8.653   0.247  23.257  0.00  0.00    +0.067 C 
BRANCH  23  24
ATOM     24  C   UNL     1       9.248  -0.832  24.237  0.00  0.00    +0.138 C 
BRANCH  24  25
ATOM     25  O   UNL     1      10.656  -0.571  24.383  0.00  0.00    -0.390 OA
ATOM     26  H   UNL     1      10.900  -0.629  25.330  0.00  0.00    +0.210 HD
ENDBRANCH  24  25
BRANCH  24  27
ATOM     27  C   UNL     1       9.114  -2.349  23.853  0.00  0.00    +0.109 C 
BRANCH  27  28
ATOM     28  N   UNL     1       8.936  -3.214  25.092  0.00  0.00    -0.275 N 
ATOM     29  H   UNL     1       8.396  -2.746  25.809  0.00  0.00    +0.152 HD
ATOM     30  C   UNL     1       9.109  -4.545  25.385  0.00  0.00    +0.401 C 
ATOM     31  O   UNL     1       9.653  -5.381  24.685  0.00  0.00    -0.226 OA
BRANCH  30  32
ATOM     32  O   UNL     1       8.597  -4.836  26.626  0.00  0.00    -0.445 OA
BRANCH  32  33
ATOM     33  C   UNL     1       7.150  -4.846  26.815  0.00  0.00    +0.206 C 
ATOM     34  C   UNL     1       6.597  -5.401  28.127  0.00  0.00    +0.204 C 
ATOM     35  O   UNL     1       5.313  -6.002  27.853  0.00  0.00    -0.376 OA
ATOM     36  C   UNL     1       5.136  -6.096  26.438  0.00  0.00    +0.163 C 
ATOM     37  C   UNL     1       6.474  -5.767  25.805  0.00  0.00    +0.075 C 
ENDBRANCH  32  33
ENDBRANCH  30  32
ENDBRANCH  27  28
BRANCH  27  38
ATOM     38  C   UNL     1       8.277  -2.677  22.576  0.00  0.00    +0.060 C 
BRANCH  38  39
ATOM     39  C   UNL     1       7.029  -3.540  22.569  0.00  0.00    -0.046 A 
ATOM     40  C   UNL     1       7.123  -4.872  22.106  0.00  0.00    +0.004 A 
ATOM     41  C   UNL     1       6.028  -5.744  22.171  0.00  0.00    +0.000 A 
ATOM     42  C   UNL     1       4.824  -5.306  22.712  0.00  0.00    +0.000 A 
ATOM     43  C   UNL     1       4.711  -3.994  23.156  0.00  0.00    +0.000 A 
ATOM     44  C   UNL     1       5.799  -3.119  23.067  0.00  0.00    +0.004 A 
ENDBRANCH  38  39
ENDBRANCH  27  38
ENDBRANCH  24  27
ENDBRANCH  23  24
ENDBRANCH   4  23
BRANCH   4  45
ATOM     45  C   UNL     1       8.660   2.743  23.057  0.00  0.00    +0.069 C 
BRANCH  45  46
ATOM     46  C   UNL     1       9.678   3.774  23.447  0.00  0.00    -0.045 A 
ATOM     47  C   UNL     1       9.247   5.050  23.839  0.00  0.00    +0.004 A 
ATOM     48  C   UNL     1      10.168   6.072  24.054  0.00  0.00    +0.000 A 
ATOM     49  C   UNL     1      11.528   5.826  23.886  0.00  0.00    +0.000 A 
ATOM     50  C   UNL     1      11.963   4.573  23.456  0.00  0.00    +0.000 A 
ATOM     51  C   UNL     1      11.041   3.552  23.224  0.00  0.00    +0.004 A 
ENDBRANCH  45  46
ENDBRANCH   4  45
TORSDOF 14
ENDMDL
MODEL 9
REMARK VINA RESULT:      -6.9      2.359      7.527
REMARK  Name = 
REMARK  14 active torsions:
REMARK  status: ('A' for Active; 'I' for Inactive)
REMARK    1  A    between atoms: C_2  and  C_4
REMARK    2  A    between atoms: C_4  and  C_5
REMARK    3  A    between atoms: C_8  and  C_10
REMARK    4  A    between atoms: C_13  and  C_14
REMARK    5  A    between atoms: C_13  and  C_37
REMARK    6  A    between atoms: C_14  and  C_15
REMARK    7  A    between atoms: C_15  and  O_17
REMARK    8  A    between atoms: C_15  and  C_18
REMARK    9  A    between atoms: C_18  and  C_20
REMARK   10  A    between atoms: C_18  and  N_27
REMARK   11  A    between atoms: C_20  and  C_21
REMARK   12  A    between atoms: C_28  and  O_30
REMARK   13  A    between atoms: O_30  and  C_31
REMARK   14  A    between atoms: C_37  and  C_38
REMARK                            x       y       z     vdW  Elec       q    Type
REMARK                         _______ _______ _______ _____ _____    ______ ____
ROOT
ATOM      1  C   UNL     1       8.698  -0.659  23.335  0.00  0.00    +0.018 C 
ATOM      2  C   UNL     1       7.490  -1.281  23.966  0.00  0.00    +0.184 C 
ATOM      3  O   UNL     1       6.340  -1.080  23.591  0.00  0.00    -0.290 OA
ATOM      4  C   UNL     1       7.874  -2.156  25.206  0.00  0.00    +0.101 C 
ATOM      5  N   UNL     1       9.356  -2.018  25.118  0.00  0.00    -0.337 N 
ATOM      6  H   UNL     1       9.900  -2.880  25.136  0.00  0.00    +0.147 HD
ATOM      7  C   UNL     1       9.693  -1.181  24.056  0.00  0.00    +0.076 C 
ENDROOT
BRANCH   1  14
ATOM      8  C   UNL     1      10.027   2.637  22.375  0.00  0.00    +0.029 C 
ATOM      9  C   UNL     1       8.543   2.841  22.451  0.00  0.00    -0.040 A 
ATOM     10  C   UNL     1       7.835   1.635  22.406  0.00  0.00    -0.036 A 
ATOM     11  C   UNL     1       6.446   1.673  22.348  0.00  0.00    +0.004 A 
ATOM     12  C   UNL     1       5.786   2.909  22.454  0.00  0.00    +0.000 A 
ATOM     13  C   UNL     1       6.508   4.101  22.589  0.00  0.00    +0.000 A 
ATOM     14  C   UNL     1       8.756   0.441  22.297  0.00  0.00    +0.054 C 
ATOM     15  C   UNL     1       7.897   4.071  22.559  0.00  0.00    +0.004 A 
ATOM     16  C   UNL     1      10.158   1.106  22.205  0.00  0.00    +0.021 C 
BRANCH   8  17
ATOM     17  C   UNL     1      10.684   3.220  23.624  0.00  0.00    +0.103 C 
BRANCH  17  21
ATOM     18  N   UNL     1      10.866   5.549  23.095  0.00  0.00    -0.329 N 
ATOM     19  H   UNL     1       9.865   5.604  23.217  0.00  0.00    +0.145 HD
ATOM     20  H   UNL     1      11.388   6.404  22.967  0.00  0.00    +0.145 HD
ATOM     21  C   UNL     1      11.568   4.407  23.360  0.00  0.00    +0.211 C 
ATOM     22  O   UNL     1      12.792   4.392  23.343  0.00  0.00    -0.276 OA
ENDBRANCH  17  21
ENDBRANCH   8  17
ENDBRANCH   1  14
BRANCH   4  23
ATOM     23  C   UNL     1       7.365  -1.510  26.558  0.00  0.00    +0.067 C 
BRANCH  23  24
ATOM     24  C   UNL     1       7.526   0.053  26.650  0.00  0.00    +0.138 C 
BRANCH  24  25
ATOM     25  O   UNL     1       7.940   0.380  27.990  0.00  0.00    -0.390 OA
ATOM     26  H   UNL     1       7.305  -0.006  28.628  0.00  0.00    +0.210 HD
ENDBRANCH  24  25
BRANCH  24  27
ATOM     27  C   UNL     1       6.279   0.956  26.338  0.00  0.00    +0.109 C 
BRANCH  27  28
ATOM     28  N   UNL     1       5.014   0.120  26.217  0.00  0.00    -0.275 N 
ATOM     29  H   UNL     1       4.935  -0.322  25.309  0.00  0.00    +0.152 HD
ATOM     30  C   UNL     1       4.090  -0.382  27.100  0.00  0.00    +0.401 C 
ATOM     31  O   UNL     1       3.982  -0.102  28.281  0.00  0.00    -0.226 OA
BRANCH  30  32
ATOM     32  O   UNL     1       3.243  -1.259  26.466  0.00  0.00    -0.445 OA
BRANCH  32  33
ATOM     33  C   UNL     1       3.722  -2.598  26.135  0.00  0.00    +0.206 C 
ATOM     34  C   UNL     1       2.713  -3.615  25.605  0.00  0.00    +0.204 C 
ATOM     35  O   UNL     1       3.129  -4.928  26.039  0.00  0.00    -0.376 OA
ATOM     36  C   UNL     1       4.168  -4.788  27.010  0.00  0.00    +0.163 C 
ATOM     37  C   UNL     1       4.230  -3.318  27.379  0.00  0.00    +0.075 C 
ENDBRANCH  32  33
ENDBRANCH  30  32
ENDBRANCH  27  28
BRANCH  27  38
ATOM     38  C   UNL     1       6.208   2.331  27.075  0.00  0.00    +0.060 C 
BRANCH  38  39
ATOM     39  C   UNL     1       6.622   3.654  26.459  0.00  0.00    -0.046 A 
ATOM     40  C   UNL     1       5.637   4.642  26.237  0.00  0.00    +0.004 A 
ATOM     41  C   UNL     1       5.976   5.917  25.766  0.00  0.00    +0.000 A 
ATOM     42  C   UNL     1       7.308   6.233  25.521  0.00  0.00    +0.000 A 
ATOM     43  C   UNL     1       8.288   5.267  25.718  0.00  0.00    +0.000 A 
ATOM     44  C   UNL     1       7.942   3.987  26.165  0.00  0.00    +0.004 A 
ENDBRANCH  38  39
ENDBRANCH  27  38
ENDBRANCH  24  27
ENDBRANCH  23  24
ENDBRANCH   4  23
BRANCH   4  45
ATOM     45  C   UNL     1       7.352  -3.601  25.182  0.00  0.00    +0.069 C 
BRANCH  45  46
ATOM     46  C   UNL     1       6.991  -4.372  23.947  0.00  0.00    -0.045 A 
ATOM     47  C   UNL     1       5.643  -4.475  23.570  0.00  0.00    +0.004 A 
ATOM     48  C   UNL     1       5.263  -5.311  22.524  0.00  0.00    +0.000 A 
ATOM     49  C   UNL     1       6.226  -6.046  21.839  0.00  0.00    +0.000 A 
ATOM     50  C   UNL     1       7.563  -5.983  22.232  0.00  0.00    +0.000 A 
ATOM     51  C   UNL     1       7.944  -5.158  23.291  0.00  0.00    +0.004 A 
ENDBRANCH  45  46
ENDBRANCH   4  45
TORSDOF 14
ENDMDL
