MODEL 1
REMARK VINA RESULT:      -7.0      0.000      0.000
REMARK  Name = 
REMARK  4 active torsions:
REMARK  status: ('A' for Active; 'I' for Inactive)
REMARK    1  A    between atoms: O_1  and  C_2
REMARK    2  A    between atoms: C_5  and  C_8
REMARK    3  A    between atoms: C_16  and  O_17
REMARK    4  A    between atoms: C_18  and  O_19
REMARK                            x       y       z     vdW  Elec       q    Type
REMARK                         _______ _______ _______ _____ _____    ______ ____
ROOT
ATOM      1  C   UNL     1       8.465  -2.514  23.069  0.00  0.00    +0.063 C 
ATOM      2  C   UNL     1       8.268  -3.403  24.302  0.00  0.00    -0.030 A 
ATOM      3  C   UNL     1       7.235  -3.179  25.252  0.00  0.00    -0.020 A 
ATOM      4  C   UNL     1       7.159  -4.027  26.381  0.00  0.00    +0.089 A 
ATOM      5  C   UNL     1       8.055  -5.091  26.530  0.00  0.00    +0.177 A 
ATOM      6  C   UNL     1       9.032  -5.321  25.574  0.00  0.00    +0.160 A 
ATOM      7 CL   UNL     1       5.969  -3.815  27.624  0.00  0.00    -0.079 Cl
ATOM      8  C   UNL     1       6.241  -2.060  25.021  0.00  0.00    +0.052 C 
ATOM      9  C   UNL     1       5.398  -2.275  23.757  0.00  0.00    +0.085 C 
ATOM     10  N   UNL     1       6.036  -1.812  22.522  0.00  0.00    -0.315 NA
ATOM     11  H   UNL     1       5.353  -1.872  21.767  0.00  0.00    +0.122 HD
ATOM     12  C   UNL     1       9.156  -4.486  24.476  0.00  0.00    +0.053 A 
ATOM     13  C   UNL     1       7.213  -2.605  22.147  0.00  0.00    +0.093 C 
ENDROOT
BRANCH   1  17
ATOM     14  C   UNL     1      10.367   1.350  23.693  0.00  0.00    +0.117 A 
ATOM     15  C   UNL     1       9.732   1.075  22.492  0.00  0.00    +0.045 A 
ATOM     16  C   UNL     1       9.080  -0.149  22.313  0.00  0.00    +0.008 A 
ATOM     17  C   UNL     1       9.047  -1.116  23.334  0.00  0.00    -0.039 A 
ATOM     18  C   UNL     1       9.685  -0.796  24.549  0.00  0.00    +0.008 A 
ATOM     19  C   UNL     1      10.332   0.432  24.733  0.00  0.00    +0.045 A 
BRANCH  14  20
ATOM     20  O   UNL     1      11.036   2.532  23.808  0.00  0.00    -0.507 OA
ATOM     21  H   UNL     1      11.946   2.341  24.088  0.00  0.00    +0.292 HD
ENDBRANCH  14  20
ENDBRANCH   1  17
BRANCH   6  22
ATOM     22  O   UNL     1       9.887  -6.378  25.704  0.00  0.00    -0.503 OA
ATOM     23  H   UNL     1       9.341  -7.166  25.513  0.00  0.00    +0.292 HD
ENDBRANCH   6  22
BRANCH   5  24
ATOM     24  O   UNL     1       8.014  -5.954  27.598  0.00  0.00    -0.502 OA
ATOM     25  H   UNL     1       8.108  -6.853  27.227  0.00  0.00    +0.292 HD
ENDBRANCH   5  24
TORSDOF 4
ENDMDL
MODEL 2
REMARK VINA RESULT:      -6.7      2.535      3.371
REMARK  Name = 
REMARK  4 active torsions:
REMARK  status: ('A' for Active; 'I' for Inactive)
REMARK    1  A    between atoms: O_1  and  C_2
REMARK    2  A    between atoms: C_5  and  C_8
REMARK    3  A    between atoms: C_16  and  O_17
REMARK    4  A    between atoms: C_18  and  O_19
REMARK                            x       y       z     vdW  Elec       q    Type
REMARK                         _______ _______ _______ _____ _____    ______ ____
ROOT
ATOM      1  C   UNL     1       6.630  -0.933  23.408  0.00  0.00    +0.063 C 
ATOM      2  C   UNL     1       6.878  -2.430  23.191  0.00  0.00    -0.030 A 
ATOM      3  C   UNL     1       7.710  -3.201  24.046  0.00  0.00    -0.020 A 
ATOM      4  C   UNL     1       7.913  -4.567  23.741  0.00  0.00    +0.089 A 
ATOM      5  C   UNL     1       7.267  -5.152  22.647  0.00  0.00    +0.177 A 
ATOM      6  C   UNL     1       6.426  -4.396  21.845  0.00  0.00    +0.160 A 
ATOM      7 CL   UNL     1       8.945  -5.587  24.689  0.00  0.00    -0.079 Cl
ATOM      8  C   UNL     1       8.337  -2.549  25.261  0.00  0.00    +0.052 C 
ATOM      9  C   UNL     1       7.290  -2.066  26.274  0.00  0.00    +0.085 C 
ATOM     10  N   UNL     1       6.740  -0.739  25.985  0.00  0.00    -0.315 NA
ATOM     11  H   UNL     1       6.164  -0.452  26.776  0.00  0.00    +0.122 HD
ATOM     12  C   UNL     1       6.236  -3.046  22.096  0.00  0.00    +0.053 A 
ATOM     13  C   UNL     1       5.913  -0.708  24.772  0.00  0.00    +0.093 C 
ENDROOT
BRANCH   1  17
ATOM     14  C   UNL     1       9.787   1.810  22.205  0.00  0.00    +0.117 A 
ATOM     15  C   UNL     1       8.779   2.242  23.051  0.00  0.00    +0.045 A 
ATOM     16  C   UNL     1       7.792   1.345  23.475  0.00  0.00    +0.008 A 
ATOM     17  C   UNL     1       7.802  -0.000  23.063  0.00  0.00    -0.039 A 
ATOM     18  C   UNL     1       8.854  -0.411  22.218  0.00  0.00    +0.008 A 
ATOM     19  C   UNL     1       9.845   0.484  21.800  0.00  0.00    +0.045 A 
BRANCH  14  20
ATOM     20  O   UNL     1      10.698   2.728  21.773  0.00  0.00    -0.507 OA
ATOM     21  H   UNL     1      10.328   3.181  20.997  0.00  0.00    +0.292 HD
ENDBRANCH  14  20
ENDBRANCH   1  17
BRANCH   6  22
ATOM     22  O   UNL     1       5.772  -4.975  20.796  0.00  0.00    -0.503 OA
ATOM     23  H   UNL     1       4.892  -4.548  20.783  0.00  0.00    +0.292 HD
ENDBRANCH   6  22
BRANCH   5  24
ATOM     24  O   UNL     1       7.415  -6.477  22.317  0.00  0.00    -0.502 OA
ATOM     25  H   UNL     1       8.346  -6.589  22.044  0.00  0.00    +0.292 HD
ENDBRANCH   5  24
TORSDOF 4
ENDMDL
MODEL 3
REMARK VINA RESULT:      -6.7      3.536      5.187
REMARK  Name = 
REMARK  4 active torsions:
REMARK  status: ('A' for Active; 'I' for Inactive)
REMARK    1  A    between atoms: O_1  and  C_2
REMARK    2  A    between atoms: C_5  and  C_8
REMARK    3  A    between atoms: C_16  and  O_17
REMARK    4  A    between atoms: C_18  and  O_19
REMARK                            x       y       z     vdW  Elec       q    Type
REMARK                         _______ _______ _______ _____ _____    ______ ____
ROOT
ATOM      1  C   UNL     1       8.957   2.929  22.757  0.00  0.00    +0.063 C 
ATOM      2  C   UNL     1       9.158   1.460  23.145  0.00  0.00    -0.030 A 
ATOM      3  C   UNL     1       8.873   0.964  24.446  0.00  0.00    -0.020 A 
ATOM      4  C   UNL     1       9.130  -0.398  24.722  0.00  0.00    +0.089 A 
ATOM      5  C   UNL     1       9.611  -1.247  23.719  0.00  0.00    +0.177 A 
ATOM      6  C   UNL     1       9.846  -0.757  22.443  0.00  0.00    +0.160 A 
ATOM      7 CL   UNL     1       8.863  -1.096  26.287  0.00  0.00    -0.079 Cl
ATOM      8  C   UNL     1       8.288   1.897  25.486  0.00  0.00    +0.052 C 
ATOM      9  C   UNL     1       6.901   2.422  25.092  0.00  0.00    +0.085 C 
ATOM     10  N   UNL     1       6.928   3.596  24.217  0.00  0.00    -0.315 NA
ATOM     11  H   UNL     1       5.975   3.947  24.122  0.00  0.00    +0.122 HD
ATOM     12  C   UNL     1       9.639   0.581  22.151  0.00  0.00    +0.053 A 
ATOM     13  C   UNL     1       7.451   3.306  22.875  0.00  0.00    +0.093 C 
ENDROOT
BRANCH   1  17
ATOM     14  C   UNL     1      11.837   5.890  24.125  0.00  0.00    +0.117 A 
ATOM     15  C   UNL     1      10.480   6.114  24.293  0.00  0.00    +0.045 A 
ATOM     16  C   UNL     1       9.559   5.139  23.897  0.00  0.00    +0.008 A 
ATOM     17  C   UNL     1       9.981   3.922  23.331  0.00  0.00    -0.039 A 
ATOM     18  C   UNL     1      11.370   3.719  23.193  0.00  0.00    +0.008 A 
ATOM     19  C   UNL     1      12.292   4.691  23.597  0.00  0.00    +0.045 A 
BRANCH  14  20
ATOM     20  O   UNL     1      12.698   6.888  24.476  0.00  0.00    -0.507 OA
ATOM     21  H   UNL     1      13.524   6.766  23.979  0.00  0.00    +0.292 HD
ENDBRANCH  14  20
ENDBRANCH   1  17
BRANCH   6  22
ATOM     22  O   UNL     1      10.285  -1.592  21.456  0.00  0.00    -0.503 OA
ATOM     23  H   UNL     1       9.514  -2.153  21.241  0.00  0.00    +0.292 HD
ENDBRANCH   6  22
BRANCH   5  24
ATOM     24  O   UNL     1       9.860  -2.581  23.929  0.00  0.00    -0.502 OA
ATOM     25  H   UNL     1       9.771  -2.728  24.891  0.00  0.00    +0.292 HD
ENDBRANCH   5  24
TORSDOF 4
ENDMDL
MODEL 4
REMARK VINA RESULT:      -6.6      1.351      2.026
REMARK  Name = 
REMARK  4 active torsions:
REMARK  status: ('A' for Active; 'I' for Inactive)
REMARK    1  A    between atoms: O_1  and  C_2
REMARK    2  A    between atoms: C_5  and  C_8
REMARK    3  A    between atoms: C_16  and  O_17
REMARK    4  A    between atoms: C_18  and  O_19
REMARK                            x       y       z     vdW  Elec       q    Type
REMARK                         _______ _______ _______ _____ _____    ______ ____
ROOT
ATOM      1  C   UNL     1       8.232  -3.797  23.544  0.00  0.00    +0.063 C 
ATOM      2  C   UNL     1       7.436  -4.020  24.835  0.00  0.00    -0.030 A 
ATOM      3  C   UNL     1       6.210  -3.355  25.104  0.00  0.00    -0.020 A 
ATOM      4  C   UNL     1       5.569  -3.593  26.342  0.00  0.00    +0.089 A 
ATOM      5  C   UNL     1       6.109  -4.502  27.257  0.00  0.00    +0.177 A 
ATOM      6  C   UNL     1       7.285  -5.175  26.962  0.00  0.00    +0.160 A 
ATOM      7 CL   UNL     1       4.095  -2.799  26.793  0.00  0.00    -0.079 Cl
ATOM      8  C   UNL     1       5.620  -2.430  24.060  0.00  0.00    +0.052 C 
ATOM      9  C   UNL     1       5.243  -3.168  22.768  0.00  0.00    +0.085 C 
ATOM     10  N   UNL     1       6.352  -3.339  21.827  0.00  0.00    -0.315 NA
ATOM     11  H   UNL     1       5.978  -3.713  20.955  0.00  0.00    +0.122 HD
ATOM     12  C   UNL     1       7.957  -4.935  25.774  0.00  0.00    +0.053 A 
ATOM     13  C   UNL     1       7.389  -4.256  22.317  0.00  0.00    +0.093 C 
ENDROOT
BRANCH   1  17
ATOM     14  C   UNL     1      10.053   0.145  23.261  0.00  0.00    +0.117 A 
ATOM     15  C   UNL     1       9.846  -0.436  24.502  0.00  0.00    +0.045 A 
ATOM     16  C   UNL     1       9.305  -1.723  24.588  0.00  0.00    +0.008 A 
ATOM     17  C   UNL     1       8.969  -2.453  23.433  0.00  0.00    -0.039 A 
ATOM     18  C   UNL     1       9.211  -1.840  22.187  0.00  0.00    +0.008 A 
ATOM     19  C   UNL     1       9.759  -0.555  22.100  0.00  0.00    +0.045 A 
BRANCH  14  20
ATOM     20  O   UNL     1      10.531   1.421  23.223  0.00  0.00    -0.507 OA
ATOM     21  H   UNL     1      11.502   1.382  23.205  0.00  0.00    +0.292 HD
ENDBRANCH  14  20
ENDBRANCH   1  17
BRANCH   6  22
ATOM     22  O   UNL     1       7.797  -6.085  27.842  0.00  0.00    -0.503 OA
ATOM     23  H   UNL     1       8.166  -6.796  27.280  0.00  0.00    +0.292 HD
ENDBRANCH   6  22
BRANCH   5  24
ATOM     24  O   UNL     1       5.518  -4.784  28.464  0.00  0.00    -0.502 OA
ATOM     25  H   UNL     1       5.387  -3.925  28.912  0.00  0.00    +0.292 HD
ENDBRANCH   5  24
TORSDOF 4
ENDMDL
MODEL 5
REMARK VINA RESULT:      -6.5      3.156      6.220
REMARK  Name = 
REMARK  4 active torsions:
REMARK  status: ('A' for Active; 'I' for Inactive)
REMARK    1  A    between atoms: O_1  and  C_2
REMARK    2  A    between atoms: C_5  and  C_8
REMARK    3  A    between atoms: C_16  and  O_17
REMARK    4  A    between atoms: C_18  and  O_19
REMARK                            x       y       z     vdW  Elec       q    Type
REMARK                         _______ _______ _______ _____ _____    ______ ____
ROOT
ATOM      1  C   UNL     1       7.896  -3.434  25.028  0.00  0.00    +0.063 C 
ATOM      2  C   UNL     1       8.181  -2.318  24.016  0.00  0.00    -0.030 A 
ATOM      3  C   UNL     1       7.308  -1.213  23.827  0.00  0.00    -0.020 A 
ATOM      4  C   UNL     1       7.633  -0.254  22.840  0.00  0.00    +0.089 A 
ATOM      5  C   UNL     1       8.816  -0.371  22.101  0.00  0.00    +0.177 A 
ATOM      6  C   UNL     1       9.678  -1.433  22.325  0.00  0.00    +0.160 A 
ATOM      7 CL   UNL     1       6.616   1.106  22.495  0.00  0.00    -0.079 Cl
ATOM      8  C   UNL     1       6.073  -1.083  24.694  0.00  0.00    +0.052 C 
ATOM      9  C   UNL     1       6.413  -0.902  26.179  0.00  0.00    +0.085 C 
ATOM     10  N   UNL     1       6.651  -2.155  26.900  0.00  0.00    -0.315 NA
ATOM     11  H   UNL     1       6.734  -1.941  27.894  0.00  0.00    +0.122 HD
ATOM     12  C   UNL     1       9.369  -2.409  23.260  0.00  0.00    +0.053 A 
ATOM     13  C   UNL     1       7.873  -2.846  26.470  0.00  0.00    +0.093 C 
ENDROOT
BRANCH   1  17
ATOM     14  C   UNL     1       4.928  -6.437  23.975  0.00  0.00    +0.117 A 
ATOM     15  C   UNL     1       5.166  -6.134  25.307  0.00  0.00    +0.045 A 
ATOM     16  C   UNL     1       6.086  -5.135  25.640  0.00  0.00    +0.008 A 
ATOM     17  C   UNL     1       6.777  -4.417  24.647  0.00  0.00    -0.039 A 
ATOM     18  C   UNL     1       6.496  -4.737  23.303  0.00  0.00    +0.008 A 
ATOM     19  C   UNL     1       5.571  -5.732  22.968  0.00  0.00    +0.045 A 
BRANCH  14  20
ATOM     20  O   UNL     1       4.065  -7.454  23.695  0.00  0.00    -0.507 OA
ATOM     21  H   UNL     1       4.273  -8.201  24.281  0.00  0.00    +0.292 HD
ENDBRANCH  14  20
ENDBRANCH   1  17
BRANCH   6  22
ATOM     22  O   UNL     1      10.846  -1.531  21.626  0.00  0.00    -0.503 OA
ATOM     23  H   UNL     1      10.848  -0.754  21.032  0.00  0.00    +0.292 HD
ENDBRANCH   6  22
BRANCH   5  24
ATOM     24  O   UNL     1       9.188   0.541  21.144  0.00  0.00    -0.502 OA
ATOM     25  H   UNL     1      10.125   0.754  21.318  0.00  0.00    +0.292 HD
ENDBRANCH   5  24
TORSDOF 4
ENDMDL
MODEL 6
REMARK VINA RESULT:      -6.5      3.224      6.280
REMARK  Name = 
REMARK  4 active torsions:
REMARK  status: ('A' for Active; 'I' for Inactive)
REMARK    1  A    between atoms: O_1  and  C_2
REMARK    2  A    between atoms: C_5  and  C_8
REMARK    3  A    between atoms: C_16  and  O_17
REMARK    4  A    between atoms: C_18  and  O_19
REMARK                            x       y       z     vdW  Elec       q    Type
REMARK                         _______ _______ _______ _____ _____    ______ ____
ROOT
ATOM      1  C   UNL     1       8.487  -1.956  23.913  0.00  0.00    +0.063 C 
ATOM      2  C   UNL     1       8.232  -0.518  23.448  0.00  0.00    -0.030 A 
ATOM      3  C   UNL     1       7.072   0.215  23.819  0.00  0.00    -0.020 A 
ATOM      4  C   UNL     1       6.904   1.521  23.305  0.00  0.00    +0.089 A 
ATOM      5  C   UNL     1       7.885   2.094  22.488  0.00  0.00    +0.177 A 
ATOM      6  C   UNL     1       9.030   1.381  22.167  0.00  0.00    +0.160 A 
ATOM      7 CL   UNL     1       5.506   2.485  23.656  0.00  0.00    -0.079 Cl
ATOM      8  C   UNL     1       6.066  -0.412  24.762  0.00  0.00    +0.052 C 
ATOM      9  C   UNL     1       6.658  -0.694  26.149  0.00  0.00    +0.085 C 
ATOM     10  N   UNL     1       7.376  -1.967  26.250  0.00  0.00    -0.315 NA
ATOM     11  H   UNL     1       7.611  -2.125  27.229  0.00  0.00    +0.122 HD
ATOM     12  C   UNL     1       9.207   0.085  22.624  0.00  0.00    +0.053 A 
ATOM     13  C   UNL     1       8.617  -1.994  25.465  0.00  0.00    +0.093 C 
ENDROOT
BRANCH   1  17
ATOM     14  C   UNL     1       6.260  -5.069  21.842  0.00  0.00    +0.117 A 
ATOM     15  C   UNL     1       7.143  -5.406  22.855  0.00  0.00    +0.045 A 
ATOM     16  C   UNL     1       7.821  -4.399  23.552  0.00  0.00    +0.008 A 
ATOM     17  C   UNL     1       7.621  -3.040  23.250  0.00  0.00    -0.039 A 
ATOM     18  C   UNL     1       6.702  -2.732  22.226  0.00  0.00    +0.008 A 
ATOM     19  C   UNL     1       6.017  -3.738  21.534  0.00  0.00    +0.045 A 
BRANCH  14  20
ATOM     20  O   UNL     1       5.661  -6.081  21.152  0.00  0.00    -0.507 OA
ATOM     21  H   UNL     1       6.298  -6.427  20.505  0.00  0.00    +0.292 HD
ENDBRANCH  14  20
ENDBRANCH   1  17
BRANCH   6  22
ATOM     22  O   UNL     1      10.001   1.951  21.395  0.00  0.00    -0.503 OA
ATOM     23  H   UNL     1      10.574   2.430  22.027  0.00  0.00    +0.292 HD
ENDBRANCH   6  22
BRANCH   5  24
ATOM     24  O   UNL     1       7.780   3.364  21.978  0.00  0.00    -0.502 OA
ATOM     25  H   UNL     1       8.005   3.973  22.708  0.00  0.00    +0.292 HD
ENDBRANCH   5  24
TORSDOF 4
ENDMDL
MODEL 7
REMARK VINA RESULT:      -6.5      2.989      5.716
REMARK  Name = 
REMARK  4 active torsions:
REMARK  status: ('A' for Active; 'I' for Inactive)
REMARK    1  A    between atoms: O_1  and  C_2
REMARK    2  A    between atoms: C_5  and  C_8
REMARK    3  A    between atoms: C_16  and  O_17
REMARK    4  A    between atoms: C_18  and  O_19
REMARK                            x       y       z     vdW  Elec       q    Type
REMARK                         _______ _______ _______ _____ _____    ______ ____
ROOT
ATOM      1  C   UNL     1       8.353  -4.388  23.820  0.00  0.00    +0.063 C 
ATOM      2  C   UNL     1       8.739  -2.984  24.300  0.00  0.00    -0.030 A 
ATOM      3  C   UNL     1       8.379  -2.484  25.580  0.00  0.00    -0.020 A 
ATOM      4  C   UNL     1       8.745  -1.160  25.917  0.00  0.00    +0.089 A 
ATOM      5  C   UNL     1       9.486  -0.380  25.023  0.00  0.00    +0.177 A 
ATOM      6  C   UNL     1       9.865  -0.896  23.793  0.00  0.00    +0.160 A 
ATOM      7 CL   UNL     1       8.317  -0.435  27.433  0.00  0.00    -0.079 Cl
ATOM      8  C   UNL     1       7.637  -3.382  26.548  0.00  0.00    +0.052 C 
ATOM      9  C   UNL     1       8.462  -4.608  26.963  0.00  0.00    +0.085 C 
ATOM     10  N   UNL     1       8.379  -5.734  26.029  0.00  0.00    -0.315 NA
ATOM     11  H   UNL     1       8.844  -6.536  26.454  0.00  0.00    +0.122 HD
ATOM     12  C   UNL     1       9.490  -2.177  23.418  0.00  0.00    +0.053 A 
ATOM     13  C   UNL     1       9.016  -5.460  24.735  0.00  0.00    +0.093 C 
ENDROOT
BRANCH   1  17
ATOM     14  C   UNL     1       4.107  -4.985  23.075  0.00  0.00    +0.117 A 
ATOM     15  C   UNL     1       4.591  -3.716  23.347  0.00  0.00    +0.045 A 
ATOM     16  C   UNL     1       5.963  -3.519  23.538  0.00  0.00    +0.008 A 
ATOM     17  C   UNL     1       6.873  -4.589  23.454  0.00  0.00    -0.039 A 
ATOM     18  C   UNL     1       6.349  -5.863  23.157  0.00  0.00    +0.008 A 
ATOM     19  C   UNL     1       4.977  -6.060  22.958  0.00  0.00    +0.045 A 
BRANCH  14  20
ATOM     20  O   UNL     1       2.759  -5.143  22.949  0.00  0.00    -0.507 OA
ATOM     21  H   UNL     1       2.407  -4.377  22.466  0.00  0.00    +0.292 HD
ENDBRANCH  14  20
ENDBRANCH   1  17
BRANCH   6  22
ATOM     22  O   UNL     1      10.614  -0.146  22.934  0.00  0.00    -0.503 OA
ATOM     23  H   UNL     1       9.983   0.490  22.541  0.00  0.00    +0.292 HD
ENDBRANCH   6  22
BRANCH   5  24
ATOM     24  O   UNL     1       9.882   0.904  25.307  0.00  0.00    -0.502 OA
ATOM     25  H   UNL     1       9.534   1.107  26.197  0.00  0.00    +0.292 HD
ENDBRANCH   5  24
TORSDOF 4
ENDMDL
MODEL 8
REMARK VINA RESULT:      -6.3      3.132      5.309
REMARK  Name = 
REMARK  4 active torsions:
REMARK  status: ('A' for Active; 'I' for Inactive)
REMARK    1  A    between atoms: O_1  and  C_2
REMARK    2  A    between atoms: C_5  and  C_8
REMARK    3  A    between atoms: C_16  and  O_17
REMARK    4  A    between atoms: C_18  and  O_19
REMARK                            x       y       z     vdW  Elec       q    Type
REMARK                         _______ _______ _______ _____ _____    ______ ____
ROOT
ATOM      1  C   UNL     1       8.981  -3.954  24.795  0.00  0.00    +0.063 C 
ATOM      2  C   UNL     1       8.546  -2.619  25.410  0.00  0.00    -0.030 A 
ATOM      3  C   UNL     1       7.345  -2.473  26.154  0.00  0.00    -0.020 A 
ATOM      4  C   UNL     1       7.006  -1.192  26.647  0.00  0.00    +0.089 A 
ATOM      5  C   UNL     1       7.863  -0.104  26.445  0.00  0.00    +0.177 A 
ATOM      6  C   UNL     1       9.052  -0.272  25.752  0.00  0.00    +0.160 A 
ATOM      7 CL   UNL     1       5.542  -0.891  27.527  0.00  0.00    -0.079 Cl
ATOM      8  C   UNL     1       6.477  -3.687  26.413  0.00  0.00    +0.052 C 
ATOM      9  C   UNL     1       7.188  -4.748  27.263  0.00  0.00    +0.085 C 
ATOM     10  N   UNL     1       8.041  -5.660  26.497  0.00  0.00    -0.315 NA
ATOM     11  H   UNL     1       8.358  -6.402  27.122  0.00  0.00    +0.122 HD
ATOM     12  C   UNL     1       9.394  -1.507  25.224  0.00  0.00    +0.053 A 
ATOM     13  C   UNL     1       9.221  -5.002  25.922  0.00  0.00    +0.093 C 
ENDROOT
BRANCH   1  17
ATOM     14  C   UNL     1       6.496  -5.239  21.462  0.00  0.00    +0.117 A 
ATOM     15  C   UNL     1       6.683  -3.888  21.707  0.00  0.00    +0.045 A 
ATOM     16  C   UNL     1       7.521  -3.478  22.749  0.00  0.00    +0.008 A 
ATOM     17  C   UNL     1       8.191  -4.413  23.559  0.00  0.00    -0.039 A 
ATOM     18  C   UNL     1       7.994  -5.779  23.269  0.00  0.00    +0.008 A 
ATOM     19  C   UNL     1       7.162  -6.190  22.222  0.00  0.00    +0.045 A 
BRANCH  14  20
ATOM     20  O   UNL     1       5.630  -5.596  20.472  0.00  0.00    -0.507 OA
ATOM     21  H   UNL     1       4.725  -5.524  20.818  0.00  0.00    +0.292 HD
ENDBRANCH  14  20
ENDBRANCH   1  17
BRANCH   6  22
ATOM     22  O   UNL     1       9.903   0.782  25.580  0.00  0.00    -0.503 OA
ATOM     23  H   UNL     1      10.207   0.710  24.654  0.00  0.00    +0.292 HD
ENDBRANCH   6  22
BRANCH   5  24
ATOM     24  O   UNL     1       7.591   1.156  26.917  0.00  0.00    -0.502 OA
ATOM     25  H   UNL     1       7.410   1.710  26.133  0.00  0.00    +0.292 HD
ENDBRANCH   5  24
TORSDOF 4
ENDMDL
MODEL 9
REMARK VINA RESULT:      -6.2      2.202      2.776
REMARK  Name = 
REMARK  4 active torsions:
REMARK  status: ('A' for Active; 'I' for Inactive)
REMARK    1  A    between atoms: O_1  and  C_2
REMARK    2  A    between atoms: C_5  and  C_8
REMARK    3  A    between atoms: C_16  and  O_17
REMARK    4  A    between atoms: C_18  and  O_19
REMARK                            x       y       z     vdW  Elec       q    Type
REMARK                         _______ _______ _______ _____ _____    ______ ____
ROOT
ATOM      1  C   UNL     1       9.215  -2.100  24.877  0.00  0.00    +0.063 C 
ATOM      2  C   UNL     1       8.236  -3.240  25.178  0.00  0.00    -0.030 A 
ATOM      3  C   UNL     1       7.050  -3.452  24.424  0.00  0.00    -0.020 A 
ATOM      4  C   UNL     1       6.186  -4.505  24.804  0.00  0.00    +0.089 A 
ATOM      5  C   UNL     1       6.521  -5.347  25.870  0.00  0.00    +0.177 A 
ATOM      6  C   UNL     1       7.701  -5.152  26.570  0.00  0.00    +0.160 A 
ATOM      7 CL   UNL     1       4.692  -4.822  23.984  0.00  0.00    -0.079 Cl
ATOM      8  C   UNL     1       6.756  -2.563  23.234  0.00  0.00    +0.052 C 
ATOM      9  C   UNL     1       7.805  -2.703  22.123  0.00  0.00    +0.085 C 
ATOM     10  N   UNL     1       8.995  -1.869  22.309  0.00  0.00    -0.315 NA
ATOM     11  H   UNL     1       9.563  -1.928  21.464  0.00  0.00    +0.122 HD
ATOM     12  C   UNL     1       8.551  -4.106  26.246  0.00  0.00    +0.053 A 
ATOM     13  C   UNL     1       9.818  -2.283  23.452  0.00  0.00    +0.093 C 
ENDROOT
BRANCH   1  17
ATOM     14  C   UNL     1       7.654   1.856  25.801  0.00  0.00    +0.117 A 
ATOM     15  C   UNL     1       7.202   0.750  26.504  0.00  0.00    +0.045 A 
ATOM     16  C   UNL     1       7.741  -0.513  26.238  0.00  0.00    +0.008 A 
ATOM     17  C   UNL     1       8.746  -0.690  25.269  0.00  0.00    -0.039 A 
ATOM     18  C   UNL     1       9.196   0.459  24.587  0.00  0.00    +0.008 A 
ATOM     19  C   UNL     1       8.663   1.725  24.858  0.00  0.00    +0.045 A 
BRANCH  14  20
ATOM     20  O   UNL     1       7.066   3.059  26.053  0.00  0.00    -0.507 OA
ATOM     21  H   UNL     1       6.112   2.914  26.167  0.00  0.00    +0.292 HD
ENDBRANCH  14  20
ENDBRANCH   1  17
BRANCH   6  22
ATOM     22  O   UNL     1       8.043  -5.993  27.591  0.00  0.00    -0.503 OA
ATOM     23  H   UNL     1       8.002  -5.438  28.396  0.00  0.00    +0.292 HD
ENDBRANCH   6  22
BRANCH   5  24
ATOM     24  O   UNL     1       5.727  -6.394  26.269  0.00  0.00    -0.502 OA
ATOM     25  H   UNL     1       6.273  -7.199  26.186  0.00  0.00    +0.292 HD
ENDBRANCH   5  24
TORSDOF 4
ENDMDL
