MODEL 1
REMARK VINA RESULT:      -4.3      0.000      0.000
REMARK  Name = 
REMARK  9 active torsions:
REMARK  status: ('A' for Active; 'I' for Inactive)
REMARK    1  A    between atoms: N_1  and  CA_2
REMARK    2  A    between atoms: CA_2  and  C_4
REMARK    3  A    between atoms: CA_2  and  C_11
REMARK    4  A    between atoms: C_4  and  C_5
REMARK    5  A    between atoms: C_5  and  C_6
REMARK    6  A    between atoms: C_6  and  C_7
REMARK    7  A    between atoms: C_7  and  C_8
REMARK    8  A    between atoms: C_8  and  O_9
REMARK    9  A    between atoms: C_11  and  O_12
REMARK                            x       y       z     vdW  Elec       q    Type
REMARK                         _______ _______ _______ _____ _____    ______ ____
ROOT
ATOM      1  CA  UNL     1      10.124   2.040  22.957  0.00  0.00    +0.161 C 
ENDROOT
BRANCH   1   2
ATOM      2  N   UNL     1      10.667   3.433  22.996  0.00  0.00    -0.318 NA
ATOM      3  H1  UNL     1      11.311   3.526  23.785  0.00  0.00    +0.119 HD
ATOM      4  H2  UNL     1      11.274   3.544  22.177  0.00  0.00    +0.119 HD
ENDBRANCH   1   2
BRANCH   1   5
ATOM      5  C   UNL     1       8.907   2.002  22.015  0.00  0.00    +0.322 C 
ATOM      6  OXT UNL     1       7.907   2.694  22.122  0.00  0.00    -0.249 OA
BRANCH   5   7
ATOM      7  O   UNL     1       9.086   1.095  21.019  0.00  0.00    -0.480 OA
ATOM      8  H   UNL     1      10.026   1.208  20.727  0.00  0.00    +0.295 HD
ENDBRANCH   5   7
ENDBRANCH   1   5
BRANCH   1   9
ATOM      9  C   UNL     1       9.771   1.500  24.350  0.00  0.00    +0.030 C 
BRANCH   9  10
ATOM     10  C   UNL     1      10.484   0.193  24.721  0.00  0.00    +0.003 C 
BRANCH  10  11
ATOM     11  C   UNL     1       9.504  -0.970  24.875  0.00  0.00    +0.011 C 
BRANCH  11  12
ATOM     12  C   UNL     1       9.820  -2.079  23.872  0.00  0.00    +0.120 C 
BRANCH  12  13
ATOM     13  C   UNL     1       9.330  -1.748  22.483  0.00  0.00    +0.305 C 
ATOM     14  O   UNL     1       8.162  -1.589  22.165  0.00  0.00    -0.251 OA
BRANCH  13  15
ATOM     15  O   UNL     1      10.346  -1.627  21.597  0.00  0.00    -0.481 OA
ATOM     16  H   UNL     1      11.176  -2.050  21.888  0.00  0.00    +0.295 HD
ENDBRANCH  13  15
ENDBRANCH  12  13
ENDBRANCH  11  12
ENDBRANCH  10  11
ENDBRANCH   9  10
ENDBRANCH   1   9
TORSDOF 9
ENDMDL
MODEL 2
REMARK VINA RESULT:      -4.2      3.115      3.496
REMARK  Name = 
REMARK  9 active torsions:
REMARK  status: ('A' for Active; 'I' for Inactive)
REMARK    1  A    between atoms: N_1  and  CA_2
REMARK    2  A    between atoms: CA_2  and  C_4
REMARK    3  A    between atoms: CA_2  and  C_11
REMARK    4  A    between atoms: C_4  and  C_5
REMARK    5  A    between atoms: C_5  and  C_6
REMARK    6  A    between atoms: C_6  and  C_7
REMARK    7  A    between atoms: C_7  and  C_8
REMARK    8  A    between atoms: C_8  and  O_9
REMARK    9  A    between atoms: C_11  and  O_12
REMARK                            x       y       z     vdW  Elec       q    Type
REMARK                         _______ _______ _______ _____ _____    ______ ____
ROOT
ATOM      1  CA  UNL     1       9.473  -0.154  22.643  0.00  0.00    +0.161 C 
ENDROOT
BRANCH   1   2
ATOM      2  N   UNL     1       9.875  -0.848  21.381  0.00  0.00    -0.318 NA
ATOM      3  H1  UNL     1      10.207  -0.158  20.703  0.00  0.00    +0.119 HD
ATOM      4  H2  UNL     1      10.714  -1.399  21.593  0.00  0.00    +0.119 HD
ENDBRANCH   1   2
BRANCH   1   5
ATOM      5  C   UNL     1      10.050   1.273  22.637  0.00  0.00    +0.322 C 
ATOM      6  OXT UNL     1      10.646   1.799  23.564  0.00  0.00    -0.249 OA
BRANCH   5   7
ATOM      7  O   UNL     1       9.824   1.889  21.447  0.00  0.00    -0.480 OA
ATOM      8  H   UNL     1       9.611   2.828  21.674  0.00  0.00    +0.295 HD
ENDBRANCH   5   7
ENDBRANCH   1   5
BRANCH   1   9
ATOM      9  C   UNL     1       9.892  -0.923  23.904  0.00  0.00    +0.030 C 
BRANCH   9  10
ATOM     10  C   UNL     1       9.879  -2.450  23.747  0.00  0.00    +0.003 C 
BRANCH  10  11
ATOM     11  C   UNL     1       8.487  -3.036  23.986  0.00  0.00    +0.011 C 
BRANCH  11  12
ATOM     12  C   UNL     1       8.579  -4.526  24.320  0.00  0.00    +0.120 C 
BRANCH  12  13
ATOM     13  C   UNL     1       9.356  -4.778  25.590  0.00  0.00    +0.305 C 
ATOM     14  O   UNL     1       9.058  -4.354  26.696  0.00  0.00    -0.251 OA
BRANCH  13  15
ATOM     15  O   UNL     1      10.443  -5.556  25.379  0.00  0.00    -0.481 OA
ATOM     16  H   UNL     1      10.232  -6.495  25.223  0.00  0.00    +0.295 HD
ENDBRANCH  13  15
ENDBRANCH  12  13
ENDBRANCH  11  12
ENDBRANCH  10  11
ENDBRANCH   9  10
ENDBRANCH   1   9
TORSDOF 9
ENDMDL
MODEL 3
REMARK VINA RESULT:      -4.2      1.795      3.889
REMARK  Name = 
REMARK  9 active torsions:
REMARK  status: ('A' for Active; 'I' for Inactive)
REMARK    1  A    between atoms: N_1  and  CA_2
REMARK    2  A    between atoms: CA_2  and  C_4
REMARK    3  A    between atoms: CA_2  and  C_11
REMARK    4  A    between atoms: C_4  and  C_5
REMARK    5  A    between atoms: C_5  and  C_6
REMARK    6  A    between atoms: C_6  and  C_7
REMARK    7  A    between atoms: C_7  and  C_8
REMARK    8  A    between atoms: C_8  and  O_9
REMARK    9  A    between atoms: C_11  and  O_12
REMARK                            x       y       z     vdW  Elec       q    Type
REMARK                         _______ _______ _______ _____ _____    ______ ____
ROOT
ATOM      1  CA  UNL     1       9.623  -1.967  23.045  0.00  0.00    +0.161 C 
ENDROOT
BRANCH   1   2
ATOM      2  N   UNL     1      10.416  -1.518  21.858  0.00  0.00    -0.318 NA
ATOM      3  H1  UNL     1      11.410  -1.505  22.098  0.00  0.00    +0.119 HD
ATOM      4  H2  UNL     1      10.349  -2.259  21.152  0.00  0.00    +0.119 HD
ENDBRANCH   1   2
BRANCH   1   5
ATOM      5  C   UNL     1       8.153  -2.151  22.626  0.00  0.00    +0.322 C 
ATOM      6  OXT UNL     1       7.649  -3.199  22.255  0.00  0.00    -0.249 OA
BRANCH   5   7
ATOM      7  O   UNL     1       7.464  -0.985  22.733  0.00  0.00    -0.480 OA
ATOM      8  H   UNL     1       7.390  -0.639  21.808  0.00  0.00    +0.295 HD
ENDBRANCH   5   7
ENDBRANCH   1   5
BRANCH   1   9
ATOM      9  C   UNL     1       9.750  -1.013  24.240  0.00  0.00    +0.030 C 
BRANCH   9  10
ATOM     10  C   UNL     1      10.728   0.150  24.020  0.00  0.00    +0.003 C 
BRANCH  10  11
ATOM     11  C   UNL     1      10.022   1.505  24.061  0.00  0.00    +0.011 C 
BRANCH  11  12
ATOM     12  C   UNL     1      10.120   2.207  22.706  0.00  0.00    +0.120 C 
BRANCH  12  13
ATOM     13  C   UNL     1       8.870   2.027  21.879  0.00  0.00    +0.305 C 
ATOM     14  O   UNL     1       7.871   2.725  21.950  0.00  0.00    -0.251 OA
BRANCH  13  15
ATOM     15  O   UNL     1       8.973   0.992  21.014  0.00  0.00    -0.481 OA
ATOM     16  H   UNL     1       9.436   1.215  20.184  0.00  0.00    +0.295 HD
ENDBRANCH  13  15
ENDBRANCH  12  13
ENDBRANCH  11  12
ENDBRANCH  10  11
ENDBRANCH   9  10
ENDBRANCH   1   9
TORSDOF 9
ENDMDL
MODEL 4
REMARK VINA RESULT:      -4.2      2.380      4.035
REMARK  Name = 
REMARK  9 active torsions:
REMARK  status: ('A' for Active; 'I' for Inactive)
REMARK    1  A    between atoms: N_1  and  CA_2
REMARK    2  A    between atoms: CA_2  and  C_4
REMARK    3  A    between atoms: CA_2  and  C_11
REMARK    4  A    between atoms: C_4  and  C_5
REMARK    5  A    between atoms: C_5  and  C_6
REMARK    6  A    between atoms: C_6  and  C_7
REMARK    7  A    between atoms: C_7  and  C_8
REMARK    8  A    between atoms: C_8  and  O_9
REMARK    9  A    between atoms: C_11  and  O_12
REMARK                            x       y       z     vdW  Elec       q    Type
REMARK                         _______ _______ _______ _____ _____    ______ ____
ROOT
ATOM      1  CA  UNL     1       8.613  -1.489  23.080  0.00  0.00    +0.161 C 
ENDROOT
BRANCH   1   2
ATOM      2  N   UNL     1       9.136  -2.783  23.619  0.00  0.00    -0.318 NA
ATOM      3  H1  UNL     1       9.755  -2.597  24.411  0.00  0.00    +0.119 HD
ATOM      4  H2  UNL     1       8.344  -3.275  24.044  0.00  0.00    +0.119 HD
ENDBRANCH   1   2
BRANCH   1   5
ATOM      5  C   UNL     1       9.505  -1.036  21.909  0.00  0.00    +0.322 C 
ATOM      6  OXT UNL     1       9.242  -0.136  21.127  0.00  0.00    -0.249 OA
BRANCH   5   7
ATOM      7  O   UNL     1      10.651  -1.764  21.855  0.00  0.00    -0.480 OA
ATOM      8  H   UNL     1      11.375  -1.103  21.721  0.00  0.00    +0.295 HD
ENDBRANCH   5   7
ENDBRANCH   1   5
BRANCH   1   9
ATOM      9  C   UNL     1       8.504  -0.398  24.155  0.00  0.00    +0.030 C 
BRANCH   9  10
ATOM     10  C   UNL     1       9.730  -0.289  25.072  0.00  0.00    +0.003 C 
BRANCH  10  11
ATOM     11  C   UNL     1      10.670   0.836  24.639  0.00  0.00    +0.011 C 
BRANCH  11  12
ATOM     12  C   UNL     1       9.874   2.037  24.127  0.00  0.00    +0.120 C 
BRANCH  12  13
ATOM     13  C   UNL     1      10.635   2.823  23.087  0.00  0.00    +0.305 C 
ATOM     14  O   UNL     1      11.442   3.708  23.322  0.00  0.00    -0.251 OA
BRANCH  13  15
ATOM     15  O   UNL     1      10.334   2.430  21.827  0.00  0.00    -0.481 OA
ATOM     16  H   UNL     1       9.396   2.196  21.700  0.00  0.00    +0.295 HD
ENDBRANCH  13  15
ENDBRANCH  12  13
ENDBRANCH  11  12
ENDBRANCH  10  11
ENDBRANCH   9  10
ENDBRANCH   1   9
TORSDOF 9
ENDMDL
MODEL 5
REMARK VINA RESULT:      -4.1      4.123      5.905
REMARK  Name = 
REMARK  9 active torsions:
REMARK  status: ('A' for Active; 'I' for Inactive)
REMARK    1  A    between atoms: N_1  and  CA_2
REMARK    2  A    between atoms: CA_2  and  C_4
REMARK    3  A    between atoms: CA_2  and  C_11
REMARK    4  A    between atoms: C_4  and  C_5
REMARK    5  A    between atoms: C_5  and  C_6
REMARK    6  A    between atoms: C_6  and  C_7
REMARK    7  A    between atoms: C_7  and  C_8
REMARK    8  A    between atoms: C_8  and  O_9
REMARK    9  A    between atoms: C_11  and  O_12
REMARK                            x       y       z     vdW  Elec       q    Type
REMARK                         _______ _______ _______ _____ _____    ______ ____
ROOT
ATOM      1  CA  UNL     1       7.783  -4.928  25.755  0.00  0.00    +0.161 C 
ENDROOT
BRANCH   1   2
ATOM      2  N   UNL     1       8.206  -5.760  26.924  0.00  0.00    -0.318 NA
ATOM      3  H1  UNL     1       7.587  -5.574  27.716  0.00  0.00    +0.119 HD
ATOM      4  H2  UNL     1       8.006  -6.738  26.688  0.00  0.00    +0.119 HD
ENDBRANCH   1   2
BRANCH   1   5
ATOM      5  C   UNL     1       8.658  -5.288  24.540  0.00  0.00    +0.322 C 
ATOM      6  OXT UNL     1       8.253  -5.453  23.401  0.00  0.00    -0.249 OA
BRANCH   5   7
ATOM      7  O   UNL     1       9.967  -5.389  24.892  0.00  0.00    -0.480 OA
ATOM      8  H   UNL     1       9.966  -5.830  25.779  0.00  0.00    +0.295 HD
ENDBRANCH   5   7
ENDBRANCH   1   5
BRANCH   1   9
ATOM      9  C   UNL     1       7.825  -3.422  26.050  0.00  0.00    +0.030 C 
BRANCH   9  10
ATOM     10  C   UNL     1       7.061  -2.558  25.038  0.00  0.00    +0.003 C 
BRANCH  10  11
ATOM     11  C   UNL     1       7.923  -1.419  24.493  0.00  0.00    +0.011 C 
BRANCH  11  12
ATOM     12  C   UNL     1       8.253  -1.651  23.018  0.00  0.00    +0.120 C 
BRANCH  12  13
ATOM     13  C   UNL     1       9.700  -2.027  22.810  0.00  0.00    +0.305 C 
ATOM     14  O   UNL     1      10.376  -2.690  23.581  0.00  0.00    -0.251 OA
BRANCH  13  15
ATOM     15  O   UNL     1      10.189  -1.552  21.641  0.00  0.00    -0.481 OA
ATOM     16  H   UNL     1       9.912  -2.066  20.859  0.00  0.00    +0.295 HD
ENDBRANCH  13  15
ENDBRANCH  12  13
ENDBRANCH  11  12
ENDBRANCH  10  11
ENDBRANCH   9  10
ENDBRANCH   1   9
TORSDOF 9
ENDMDL
MODEL 6
REMARK VINA RESULT:      -4.1      4.274      6.179
REMARK  Name = 
REMARK  9 active torsions:
REMARK  status: ('A' for Active; 'I' for Inactive)
REMARK    1  A    between atoms: N_1  and  CA_2
REMARK    2  A    between atoms: CA_2  and  C_4
REMARK    3  A    between atoms: CA_2  and  C_11
REMARK    4  A    between atoms: C_4  and  C_5
REMARK    5  A    between atoms: C_5  and  C_6
REMARK    6  A    between atoms: C_6  and  C_7
REMARK    7  A    between atoms: C_7  and  C_8
REMARK    8  A    between atoms: C_8  and  O_9
REMARK    9  A    between atoms: C_11  and  O_12
REMARK                            x       y       z     vdW  Elec       q    Type
REMARK                         _______ _______ _______ _____ _____    ______ ____
ROOT
ATOM      1  CA  UNL     1       8.756  -4.689  25.423  0.00  0.00    +0.161 C 
ENDROOT
BRANCH   1   2
ATOM      2  N   UNL     1       9.933  -5.581  25.655  0.00  0.00    -0.318 NA
ATOM      3  H1  UNL     1      10.147  -5.609  26.654  0.00  0.00    +0.119 HD
ATOM      4  H2  UNL     1       9.633  -6.539  25.447  0.00  0.00    +0.119 HD
ENDBRANCH   1   2
BRANCH   1   5
ATOM      5  C   UNL     1       7.863  -4.698  26.677  0.00  0.00    +0.322 C 
ATOM      6  OXT UNL     1       7.068  -3.825  26.987  0.00  0.00    -0.249 OA
BRANCH   5   7
ATOM      7  O   UNL     1       8.060  -5.826  27.410  0.00  0.00    -0.480 OA
ATOM      8  H   UNL     1       8.982  -5.750  27.764  0.00  0.00    +0.295 HD
ENDBRANCH   5   7
ENDBRANCH   1   5
BRANCH   1   9
ATOM      9  C   UNL     1       7.960  -5.070  24.166  0.00  0.00    +0.030 C 
BRANCH   9  10
ATOM     10  C   UNL     1       7.569  -3.878  23.280  0.00  0.00    +0.003 C 
BRANCH  10  11
ATOM     11  C   UNL     1       8.630  -2.778  23.301  0.00  0.00    +0.011 C 
BRANCH  11  12
ATOM     12  C   UNL     1       8.182  -1.580  22.464  0.00  0.00    +0.120 C 
BRANCH  12  13
ATOM     13  C   UNL     1       9.334  -0.927  21.741  0.00  0.00    +0.305 C 
ATOM     14  O   UNL     1       9.302   0.170  21.206  0.00  0.00    -0.251 OA
BRANCH  13  15
ATOM     15  O   UNL     1      10.448  -1.695  21.754  0.00  0.00    -0.481 OA
ATOM     16  H   UNL     1      11.175  -1.347  21.204  0.00  0.00    +0.295 HD
ENDBRANCH  13  15
ENDBRANCH  12  13
ENDBRANCH  11  12
ENDBRANCH  10  11
ENDBRANCH   9  10
ENDBRANCH   1   9
TORSDOF 9
ENDMDL
MODEL 7
REMARK VINA RESULT:      -4.1      2.685      4.738
REMARK  Name = 
REMARK  9 active torsions:
REMARK  status: ('A' for Active; 'I' for Inactive)
REMARK    1  A    between atoms: N_1  and  CA_2
REMARK    2  A    between atoms: CA_2  and  C_4
REMARK    3  A    between atoms: CA_2  and  C_11
REMARK    4  A    between atoms: C_4  and  C_5
REMARK    5  A    between atoms: C_5  and  C_6
REMARK    6  A    between atoms: C_6  and  C_7
REMARK    7  A    between atoms: C_7  and  C_8
REMARK    8  A    between atoms: C_8  and  O_9
REMARK    9  A    between atoms: C_11  and  O_12
REMARK                            x       y       z     vdW  Elec       q    Type
REMARK                         _______ _______ _______ _____ _____    ______ ____
ROOT
ATOM      1  CA  UNL     1       9.789  -2.664  24.370  0.00  0.00    +0.161 C 
ENDROOT
BRANCH   1   2
ATOM      2  N   UNL     1      10.133  -2.531  22.921  0.00  0.00    -0.318 NA
ATOM      3  H1  UNL     1      10.544  -3.405  22.586  0.00  0.00    +0.119 HD
ATOM      4  H2  UNL     1       9.250  -2.468  22.405  0.00  0.00    +0.119 HD
ENDBRANCH   1   2
BRANCH   1   5
ATOM      5  C   UNL     1       9.247  -4.082  24.629  0.00  0.00    +0.322 C 
ATOM      6  OXT UNL     1       8.068  -4.401  24.627  0.00  0.00    -0.249 OA
BRANCH   5   7
ATOM      7  O   UNL     1      10.259  -4.961  24.852  0.00  0.00    -0.480 OA
ATOM      8  H   UNL     1      10.292  -5.533  24.045  0.00  0.00    +0.295 HD
ENDBRANCH   5   7
ENDBRANCH   1   5
BRANCH   1   9
ATOM      9  C   UNL     1       8.799  -1.592  24.847  0.00  0.00    +0.030 C 
BRANCH   9  10
ATOM     10  C   UNL     1       9.462  -0.330  25.417  0.00  0.00    +0.003 C 
BRANCH  10  11
ATOM     11  C   UNL     1       9.245   0.886  24.516  0.00  0.00    +0.011 C 
BRANCH  11  12
ATOM     12  C   UNL     1      10.430   1.073  23.568  0.00  0.00    +0.120 C 
BRANCH  12  13
ATOM     13  C   UNL     1      10.008   1.064  22.119  0.00  0.00    +0.305 C 
ATOM     14  O   UNL     1       9.633   0.082  21.499  0.00  0.00    -0.251 OA
BRANCH  13  15
ATOM     15  O   UNL     1      10.076   2.294  21.559  0.00  0.00    -0.481 OA
ATOM     16  H   UNL     1      10.020   2.288  20.584  0.00  0.00    +0.295 HD
ENDBRANCH  13  15
ENDBRANCH  12  13
ENDBRANCH  11  12
ENDBRANCH  10  11
ENDBRANCH   9  10
ENDBRANCH   1   9
TORSDOF 9
ENDMDL
MODEL 8
REMARK VINA RESULT:      -4.0      5.570      6.874
REMARK  Name = 
REMARK  9 active torsions:
REMARK  status: ('A' for Active; 'I' for Inactive)
REMARK    1  A    between atoms: N_1  and  CA_2
REMARK    2  A    between atoms: CA_2  and  C_4
REMARK    3  A    between atoms: CA_2  and  C_11
REMARK    4  A    between atoms: C_4  and  C_5
REMARK    5  A    between atoms: C_5  and  C_6
REMARK    6  A    between atoms: C_6  and  C_7
REMARK    7  A    between atoms: C_7  and  C_8
REMARK    8  A    between atoms: C_8  and  O_9
REMARK    9  A    between atoms: C_11  and  O_12
REMARK                            x       y       z     vdW  Elec       q    Type
REMARK                         _______ _______ _______ _____ _____    ______ ____
ROOT
ATOM      1  CA  UNL     1       8.835  -4.670  26.320  0.00  0.00    +0.161 C 
ENDROOT
BRANCH   1   2
ATOM      2  N   UNL     1       9.776  -5.612  25.638  0.00  0.00    -0.318 NA
ATOM      3  H1  UNL     1      10.691  -5.168  25.541  0.00  0.00    +0.119 HD
ATOM      4  H2  UNL     1       9.952  -6.386  26.286  0.00  0.00    +0.119 HD
ENDBRANCH   1   2
BRANCH   1   5
ATOM      5  C   UNL     1       7.535  -5.420  26.664  0.00  0.00    +0.322 C 
ATOM      6  OXT UNL     1       6.525  -5.436  25.978  0.00  0.00    -0.249 OA
BRANCH   5   7
ATOM      7  O   UNL     1       7.651  -6.089  27.841  0.00  0.00    -0.480 OA
ATOM      8  H   UNL     1       8.603  -6.357  27.897  0.00  0.00    +0.295 HD
ENDBRANCH   5   7
ENDBRANCH   1   5
BRANCH   1   9
ATOM      9  C   UNL     1       8.552  -3.409  25.492  0.00  0.00    +0.030 C 
BRANCH   9  10
ATOM     10  C   UNL     1       8.860  -3.553  23.995  0.00  0.00    +0.003 C 
BRANCH  10  11
ATOM     11  C   UNL     1       7.587  -3.587  23.150  0.00  0.00    +0.011 C 
BRANCH  11  12
ATOM     12  C   UNL     1       7.307  -5.006  22.653  0.00  0.00    +0.120 C 
BRANCH  12  13
ATOM     13  C   UNL     1       5.924  -5.140  22.062  0.00  0.00    +0.305 C 
ATOM     14  O   UNL     1       5.064  -4.274  22.075  0.00  0.00    -0.251 OA
BRANCH  13  15
ATOM     15  O   UNL     1       5.728  -6.350  21.488  0.00  0.00    -0.481 OA
ATOM     16  H   UNL     1       5.096  -6.917  21.967  0.00  0.00    +0.295 HD
ENDBRANCH  13  15
ENDBRANCH  12  13
ENDBRANCH  11  12
ENDBRANCH  10  11
ENDBRANCH   9  10
ENDBRANCH   1   9
TORSDOF 9
ENDMDL
MODEL 9
REMARK VINA RESULT:      -4.0      2.590      4.617
REMARK  Name = 
REMARK  9 active torsions:
REMARK  status: ('A' for Active; 'I' for Inactive)
REMARK    1  A    between atoms: N_1  and  CA_2
REMARK    2  A    between atoms: CA_2  and  C_4
REMARK    3  A    between atoms: CA_2  and  C_11
REMARK    4  A    between atoms: C_4  and  C_5
REMARK    5  A    between atoms: C_5  and  C_6
REMARK    6  A    between atoms: C_6  and  C_7
REMARK    7  A    between atoms: C_7  and  C_8
REMARK    8  A    between atoms: C_8  and  O_9
REMARK    9  A    between atoms: C_11  and  O_12
REMARK                            x       y       z     vdW  Elec       q    Type
REMARK                         _______ _______ _______ _____ _____    ______ ____
ROOT
ATOM      1  CA  UNL     1       8.866  -1.764  22.635  0.00  0.00    +0.161 C 
ENDROOT
BRANCH   1   2
ATOM      2  N   UNL     1       7.571  -1.101  22.981  0.00  0.00    -0.318 NA
ATOM      3  H1  UNL     1       7.747  -0.323  23.621  0.00  0.00    +0.119 HD
ATOM      4  H2  UNL     1       7.231  -0.640  22.131  0.00  0.00    +0.119 HD
ENDBRANCH   1   2
BRANCH   1   5
ATOM      5  C   UNL     1       9.489  -2.349  23.916  0.00  0.00    +0.322 C 
ATOM      6  OXT UNL     1      10.199  -3.341  23.969  0.00  0.00    -0.249 OA
BRANCH   5   7
ATOM      7  O   UNL     1       9.157  -1.607  25.005  0.00  0.00    -0.480 OA
ATOM      8  H   UNL     1       9.668  -2.001  25.756  0.00  0.00    +0.295 HD
ENDBRANCH   5   7
ENDBRANCH   1   5
BRANCH   1   9
ATOM      9  C   UNL     1       9.843  -0.823  21.917  0.00  0.00    +0.030 C 
BRANCH   9  10
ATOM     10  C   UNL     1       9.231   0.520  21.494  0.00  0.00    +0.003 C 
BRANCH  10  11
ATOM     11  C   UNL     1      10.023   1.707  22.042  0.00  0.00    +0.011 C 
BRANCH  11  12
ATOM     12  C   UNL     1      10.356   1.497  23.520  0.00  0.00    +0.120 C 
BRANCH  12  13
ATOM     13  C   UNL     1       9.211   1.888  24.423  0.00  0.00    +0.305 C 
ATOM     14  O   UNL     1       8.434   1.111  24.955  0.00  0.00    -0.251 OA
BRANCH  13  15
ATOM     15  O   UNL     1       9.135   3.227  24.603  0.00  0.00    -0.481 OA
ATOM     16  H   UNL     1       8.470   3.665  24.040  0.00  0.00    +0.295 HD
ENDBRANCH  13  15
ENDBRANCH  12  13
ENDBRANCH  11  12
ENDBRANCH  10  11
ENDBRANCH   9  10
ENDBRANCH   1   9
TORSDOF 9
ENDMDL
