MODEL 1
REMARK VINA RESULT:      -8.1      0.000      0.000
REMARK  Name = 
REMARK  7 active torsions:
REMARK  status: ('A' for Active; 'I' for Inactive)
REMARK    1  A    between atoms: CA_2  and  C_3
REMARK    2  A    between atoms: CA_2  and  N_5
REMARK    3  A    between atoms: CA_2  and  C_25
REMARK    4  A    between atoms: C_3  and  O_4
REMARK    5  A    between atoms: C_6  and  CA_8
REMARK    6  A    between atoms: C_10  and  C_13
REMARK    7  A    between atoms: C_17  and  C_18
REMARK                            x       y       z     vdW  Elec       q    Type
REMARK                         _______ _______ _______ _____ _____    ______ ____
ROOT
ATOM      1  CA  UNL     1       8.718   0.685  23.264  0.00  0.00    +0.102 A 
ATOM      2  N   UNL     1       9.275   1.235  24.401  0.00  0.00    -0.356 N 
ATOM      3  H   UNL     1       9.833   0.704  25.058  0.00  0.00    +0.165 HD
ATOM      4  C   UNL     1       8.942   2.556  24.509  0.00  0.00    +0.093 A 
ATOM      5  C   UNL     1       8.259   2.915  23.368  0.00  0.00    +0.021 A 
ATOM      6  C   UNL     1       8.074   1.724  22.605  0.00  0.00    +0.042 A 
ENDROOT
BRANCH   5   7
ATOM      7  C   UNL     1       7.778   4.247  22.980  0.00  0.00    +0.102 A 
ATOM      8  C   UNL     1       8.433   5.501  23.214  0.00  0.00    +0.027 A 
ATOM      9  C   UNL     1       7.557   6.426  22.677  0.00  0.00    +0.114 A 
ATOM     10  N   UNL     1       6.505   5.724  22.173  0.00  0.00    -0.284 N 
ATOM     11  H   UNL     1       5.682   6.087  21.701  0.00  0.00    +0.188 HD
ATOM     12  N   UNL     1       6.623   4.398  22.321  0.00  0.00    -0.173 NA
BRANCH   8  13
ATOM     13  C   UNL     1       9.726   5.887  23.784  0.00  0.00    -0.013 A 
ATOM     14  C   UNL     1      10.929   5.458  23.200  0.00  0.00    +0.028 A 
ATOM     15  C   UNL     1      12.156   5.787  23.780  0.00  0.00    +0.042 A 
ATOM     16 CL   UNL     1      13.615   5.192  23.086  0.00  0.00    -0.084 Cl
ATOM     17  C   UNL     1      12.213   6.577  24.924  0.00  0.00    +0.020 A 
ATOM     18  C   UNL     1      11.030   7.020  25.508  0.00  0.00    +0.002 A 
ATOM     19  C   UNL     1       9.799   6.652  24.957  0.00  0.00    +0.009 A 
ENDBRANCH   8  13
ENDBRANCH   5   7
BRANCH   1  22
ATOM     20  N   UNL     1       7.818  -1.537  23.257  0.00  0.00    -0.301 N 
ATOM     21  H   UNL     1       6.951  -1.125  23.567  0.00  0.00    +0.150 HD
ATOM     22  C   UNL     1       8.889  -0.726  22.986  0.00  0.00    +0.261 C 
ATOM     23  O   UNL     1       9.940  -1.162  22.525  0.00  0.00    -0.269 OA
BRANCH  20  24
ATOM     24  CA  UNL     1       7.863  -2.968  22.987  0.00  0.00    +0.129 C 
BRANCH  24  25
ATOM     25  C   UNL     1       7.849  -3.788  24.269  0.00  0.00    -0.023 A 
ATOM     26  C   UNL     1       8.854  -3.655  25.244  0.00  0.00    +0.008 A 
ATOM     27  C   UNL     1       8.769  -4.350  26.453  0.00  0.00    +0.040 A 
ATOM     28  C   UNL     1       7.685  -5.189  26.696  0.00  0.00    +0.142 A 
ATOM     29  F   UNL     1       7.611  -5.821  27.877  0.00  0.00    -0.204 F 
ATOM     30  C   UNL     1       6.697  -5.359  25.732  0.00  0.00    +0.076 A 
ATOM     31 CL   UNL     1       5.352  -6.395  26.026  0.00  0.00    -0.081 Cl
ATOM     32  C   UNL     1       6.780  -4.668  24.522  0.00  0.00    +0.028 A 
ENDBRANCH  24  25
BRANCH  24  33
ATOM     33  C   UNL     1       6.718  -3.406  22.048  0.00  0.00    +0.182 C 
BRANCH  33  34
ATOM     34  O   UNL     1       5.625  -2.488  22.091  0.00  0.00    -0.393 OA
ATOM     35  H   UNL     1       5.926  -1.695  22.569  0.00  0.00    +0.209 HD
ENDBRANCH  33  34
ENDBRANCH  24  33
ENDBRANCH  20  24
ENDBRANCH   1  22
TORSDOF 7
ENDMDL
MODEL 2
REMARK VINA RESULT:      -8.0      3.728     10.391
REMARK  Name = 
REMARK  7 active torsions:
REMARK  status: ('A' for Active; 'I' for Inactive)
REMARK    1  A    between atoms: CA_2  and  C_3
REMARK    2  A    between atoms: CA_2  and  N_5
REMARK    3  A    between atoms: CA_2  and  C_25
REMARK    4  A    between atoms: C_3  and  O_4
REMARK    5  A    between atoms: C_6  and  CA_8
REMARK    6  A    between atoms: C_10  and  C_13
REMARK    7  A    between atoms: C_17  and  C_18
REMARK                            x       y       z     vdW  Elec       q    Type
REMARK                         _______ _______ _______ _____ _____    ______ ____
ROOT
ATOM      1  CA  UNL     1       8.716  -3.142  24.006  0.00  0.00    +0.102 A 
ATOM      2  N   UNL     1       8.160  -4.065  23.143  0.00  0.00    -0.356 N 
ATOM      3  H   UNL     1       8.337  -4.069  22.146  0.00  0.00    +0.165 HD
ATOM      4  C   UNL     1       7.342  -4.925  23.820  0.00  0.00    +0.093 A 
ATOM      5  C   UNL     1       7.453  -4.644  25.164  0.00  0.00    +0.021 A 
ATOM      6  C   UNL     1       8.280  -3.488  25.279  0.00  0.00    +0.042 A 
ENDROOT
BRANCH   5   7
ATOM      7  C   UNL     1       6.841  -5.357  26.293  0.00  0.00    +0.102 A 
ATOM      8  C   UNL     1       5.485  -5.814  26.389  0.00  0.00    +0.027 A 
ATOM      9  C   UNL     1       5.430  -6.392  27.645  0.00  0.00    +0.114 A 
ATOM     10  N   UNL     1       6.672  -6.268  28.189  0.00  0.00    -0.284 N 
ATOM     11  H   UNL     1       6.988  -6.588  29.100  0.00  0.00    +0.188 HD
ATOM     12  N   UNL     1       7.555  -5.667  27.383  0.00  0.00    -0.173 NA
BRANCH   8  13
ATOM     13  C   UNL     1       4.345  -5.828  25.471  0.00  0.00    -0.013 A 
ATOM     14  C   UNL     1       3.698  -7.030  25.140  0.00  0.00    +0.028 A 
ATOM     15  C   UNL     1       2.645  -7.040  24.223  0.00  0.00    +0.042 A 
ATOM     16 CL   UNL     1       1.914  -8.535  23.779  0.00  0.00    -0.084 Cl
ATOM     17  C   UNL     1       2.191  -5.857  23.649  0.00  0.00    +0.020 A 
ATOM     18  C   UNL     1       2.812  -4.655  23.975  0.00  0.00    +0.002 A 
ATOM     19  C   UNL     1       3.898  -4.649  24.856  0.00  0.00    +0.009 A 
ENDBRANCH   8  13
ENDBRANCH   5   7
BRANCH   1  22
ATOM     20  N   UNL     1       9.198  -0.804  23.783  0.00  0.00    -0.301 N 
ATOM     21  H   UNL     1       8.409  -0.642  24.389  0.00  0.00    +0.150 HD
ATOM     22  C   UNL     1       9.568  -2.091  23.489  0.00  0.00    +0.261 C 
ATOM     23  O   UNL     1      10.570  -2.350  22.829  0.00  0.00    -0.269 OA
BRANCH  20  24
ATOM     24  CA  UNL     1       9.997   0.333  23.344  0.00  0.00    +0.129 C 
BRANCH  24  25
ATOM     25  C   UNL     1       9.127   1.514  22.938  0.00  0.00    -0.023 A 
ATOM     26  C   UNL     1       8.010   1.356  22.099  0.00  0.00    +0.008 A 
ATOM     27  C   UNL     1       7.174   2.440  21.817  0.00  0.00    +0.040 A 
ATOM     28  C   UNL     1       7.450   3.690  22.363  0.00  0.00    +0.142 A 
ATOM     29  F   UNL     1       6.615   4.706  22.102  0.00  0.00    -0.204 F 
ATOM     30  C   UNL     1       8.568   3.874  23.169  0.00  0.00    +0.076 A 
ATOM     31 CL   UNL     1       8.916   5.418  23.850  0.00  0.00    -0.081 Cl
ATOM     32  C   UNL     1       9.408   2.794  23.452  0.00  0.00    +0.028 A 
ENDBRANCH  24  25
BRANCH  24  33
ATOM     33  C   UNL     1      11.023   0.755  24.418  0.00  0.00    +0.182 C 
BRANCH  33  34
ATOM     34  O   UNL     1      10.562   0.447  25.734  0.00  0.00    -0.393 OA
ATOM     35  H   UNL     1      11.306   0.587  26.346  0.00  0.00    +0.209 HD
ENDBRANCH  33  34
ENDBRANCH  24  33
ENDBRANCH  20  24
ENDBRANCH   1  22
TORSDOF 7
ENDMDL
MODEL 3
REMARK VINA RESULT:      -8.0      2.248      2.773
REMARK  Name = 
REMARK  7 active torsions:
REMARK  status: ('A' for Active; 'I' for Inactive)
REMARK    1  A    between atoms: CA_2  and  C_3
REMARK    2  A    between atoms: CA_2  and  N_5
REMARK    3  A    between atoms: CA_2  and  C_25
REMARK    4  A    between atoms: C_3  and  O_4
REMARK    5  A    between atoms: C_6  and  CA_8
REMARK    6  A    between atoms: C_10  and  C_13
REMARK    7  A    between atoms: C_17  and  C_18
REMARK                            x       y       z     vdW  Elec       q    Type
REMARK                         _______ _______ _______ _____ _____    ______ ____
ROOT
ATOM      1  CA  UNL     1       8.786   0.071  25.039  0.00  0.00    +0.102 A 
ATOM      2  N   UNL     1      10.010   0.703  24.947  0.00  0.00    -0.356 N 
ATOM      3  H   UNL     1      10.877   0.278  25.254  0.00  0.00    +0.165 HD
ATOM      4  C   UNL     1       9.868   1.954  24.419  0.00  0.00    +0.093 A 
ATOM      5  C   UNL     1       8.551   2.107  24.043  0.00  0.00    +0.021 A 
ATOM      6  C   UNL     1       7.858   0.940  24.479  0.00  0.00    +0.042 A 
ENDROOT
BRANCH   5   7
ATOM      7  C   UNL     1       7.933   3.243  23.346  0.00  0.00    +0.102 A 
ATOM      8  C   UNL     1       8.416   4.592  23.303  0.00  0.00    +0.027 A 
ATOM      9  C   UNL     1       7.464   5.249  22.544  0.00  0.00    +0.114 A 
ATOM     10  N   UNL     1       6.535   4.320  22.188  0.00  0.00    -0.284 N 
ATOM     11  H   UNL     1       5.701   4.455  21.625  0.00  0.00    +0.188 HD
ATOM     12  N   UNL     1       6.806   3.088  22.640  0.00  0.00    -0.173 NA
BRANCH   8  13
ATOM     13  C   UNL     1       9.618   5.264  23.801  0.00  0.00    -0.013 A 
ATOM     14  C   UNL     1      10.876   5.007  23.233  0.00  0.00    +0.028 A 
ATOM     15  C   UNL     1      12.025   5.612  23.748  0.00  0.00    +0.042 A 
ATOM     16 CL   UNL     1      13.565   5.228  23.081  0.00  0.00    -0.084 Cl
ATOM     17  C   UNL     1      11.941   6.508  24.810  0.00  0.00    +0.020 A 
ATOM     18  C   UNL     1      10.700   6.782  25.377  0.00  0.00    +0.002 A 
ATOM     19  C   UNL     1       9.555   6.142  24.893  0.00  0.00    +0.009 A 
ENDBRANCH   8  13
ENDBRANCH   5   7
BRANCH   1  22
ATOM     20  N   UNL     1       8.584  -2.302  24.765  0.00  0.00    -0.301 N 
ATOM     21  H   UNL     1       8.638  -2.135  23.772  0.00  0.00    +0.150 HD
ATOM     22  C   UNL     1       8.695  -1.247  25.633  0.00  0.00    +0.261 C 
ATOM     23  O   UNL     1       8.723  -1.400  26.851  0.00  0.00    -0.269 OA
BRANCH  20  24
ATOM     24  CA  UNL     1       8.518  -3.676  25.248  0.00  0.00    +0.129 C 
BRANCH  24  25
ATOM     25  C   UNL     1       7.358  -4.440  24.627  0.00  0.00    -0.023 A 
ATOM     26  C   UNL     1       6.219  -4.788  25.373  0.00  0.00    +0.008 A 
ATOM     27  C   UNL     1       5.127  -5.407  24.758  0.00  0.00    +0.040 A 
ATOM     28  C   UNL     1       5.168  -5.691  23.395  0.00  0.00    +0.142 A 
ATOM     29  F   UNL     1       4.095  -6.257  22.822  0.00  0.00    -0.204 F 
ATOM     30  C   UNL     1       6.298  -5.383  22.646  0.00  0.00    +0.076 A 
ATOM     31 CL   UNL     1       6.356  -5.729  20.959  0.00  0.00    -0.081 Cl
ATOM     32  C   UNL     1       7.392  -4.766  23.258  0.00  0.00    +0.028 A 
ENDBRANCH  24  25
BRANCH  24  33
ATOM     33  C   UNL     1       9.850  -4.424  25.015  0.00  0.00    +0.182 C 
BRANCH  33  34
ATOM     34  O   UNL     1       9.878  -5.672  25.708  0.00  0.00    -0.393 OA
ATOM     35  H   UNL     1      10.743  -6.085  25.535  0.00  0.00    +0.209 HD
ENDBRANCH  33  34
ENDBRANCH  24  33
ENDBRANCH  20  24
ENDBRANCH   1  22
TORSDOF 7
ENDMDL
MODEL 4
REMARK VINA RESULT:      -7.9      1.822      2.412
REMARK  Name = 
REMARK  7 active torsions:
REMARK  status: ('A' for Active; 'I' for Inactive)
REMARK    1  A    between atoms: CA_2  and  C_3
REMARK    2  A    between atoms: CA_2  and  N_5
REMARK    3  A    between atoms: CA_2  and  C_25
REMARK    4  A    between atoms: C_3  and  O_4
REMARK    5  A    between atoms: C_6  and  CA_8
REMARK    6  A    between atoms: C_10  and  C_13
REMARK    7  A    between atoms: C_17  and  C_18
REMARK                            x       y       z     vdW  Elec       q    Type
REMARK                         _______ _______ _______ _____ _____    ______ ____
ROOT
ATOM      1  CA  UNL     1       8.249   1.315  25.035  0.00  0.00    +0.102 A 
ATOM      2  N   UNL     1       7.855   2.087  26.110  0.00  0.00    -0.356 N 
ATOM      3  H   UNL     1       7.858   1.750  27.065  0.00  0.00    +0.165 HD
ATOM      4  C   UNL     1       7.452   3.323  25.692  0.00  0.00    +0.093 A 
ATOM      5  C   UNL     1       7.697   3.413  24.339  0.00  0.00    +0.021 A 
ATOM      6  C   UNL     1       8.153   2.130  23.915  0.00  0.00    +0.042 A 
ENDROOT
BRANCH   5   7
ATOM      7  C   UNL     1       7.519   4.576  23.460  0.00  0.00    +0.102 A 
ATOM      8  C   UNL     1       8.407   5.693  23.320  0.00  0.00    +0.027 A 
ATOM      9  C   UNL     1       7.765   6.499  22.397  0.00  0.00    +0.114 A 
ATOM     10  N   UNL     1       6.614   5.860  22.051  0.00  0.00    -0.284 N 
ATOM     11  H   UNL     1       5.906   6.166  21.391  0.00  0.00    +0.188 HD
ATOM     12  N   UNL     1       6.450   4.680  22.661  0.00  0.00    -0.173 NA
BRANCH   8  13
ATOM     13  C   UNL     1       9.725   6.024  23.865  0.00  0.00    -0.013 A 
ATOM     14  C   UNL     1      10.898   5.540  23.263  0.00  0.00    +0.028 A 
ATOM     15  C   UNL     1      12.148   5.817  23.820  0.00  0.00    +0.042 A 
ATOM     16 CL   UNL     1      13.568   5.154  23.106  0.00  0.00    -0.084 Cl
ATOM     17  C   UNL     1      12.260   6.609  24.959  0.00  0.00    +0.020 A 
ATOM     18  C   UNL     1      11.108   7.108  25.560  0.00  0.00    +0.002 A 
ATOM     19  C   UNL     1       9.853   6.791  25.032  0.00  0.00    +0.009 A 
ENDBRANCH   8  13
ENDBRANCH   5   7
BRANCH   1  22
ATOM     20  N   UNL     1       8.301  -0.956  24.268  0.00  0.00    -0.301 N 
ATOM     21  H   UNL     1       7.846  -0.624  23.431  0.00  0.00    +0.150 HD
ATOM     22  C   UNL     1       8.655  -0.061  25.243  0.00  0.00    +0.261 C 
ATOM     23  O   UNL     1       9.287  -0.394  26.241  0.00  0.00    -0.269 OA
BRANCH  20  24
ATOM     24  CA  UNL     1       8.683  -2.360  24.354  0.00  0.00    +0.129 C 
BRANCH  24  25
ATOM     25  C   UNL     1       7.611  -3.275  23.780  0.00  0.00    -0.023 A 
ATOM     26  C   UNL     1       7.324  -3.307  22.405  0.00  0.00    +0.008 A 
ATOM     27  C   UNL     1       6.401  -4.223  21.892  0.00  0.00    +0.040 A 
ATOM     28  C   UNL     1       5.752  -5.107  22.748  0.00  0.00    +0.142 A 
ATOM     29  F   UNL     1       4.894  -5.997  22.226  0.00  0.00    -0.204 F 
ATOM     30  C   UNL     1       5.998  -5.071  24.116  0.00  0.00    +0.076 A 
ATOM     31 CL   UNL     1       5.199  -6.163  25.182  0.00  0.00    -0.081 Cl
ATOM     32  C   UNL     1       6.918  -4.156  24.633  0.00  0.00    +0.028 A 
ENDBRANCH  24  25
BRANCH  24  33
ATOM     33  C   UNL     1      10.044  -2.621  23.672  0.00  0.00    +0.182 C 
BRANCH  33  34
ATOM     34  O   UNL     1      10.297  -1.680  22.629  0.00  0.00    -0.393 OA
ATOM     35  H   UNL     1      10.492  -0.823  23.048  0.00  0.00    +0.209 HD
ENDBRANCH  33  34
ENDBRANCH  24  33
ENDBRANCH  20  24
ENDBRANCH   1  22
TORSDOF 7
ENDMDL
MODEL 5
REMARK VINA RESULT:      -7.8      3.705      9.698
REMARK  Name = 
REMARK  7 active torsions:
REMARK  status: ('A' for Active; 'I' for Inactive)
REMARK    1  A    between atoms: CA_2  and  C_3
REMARK    2  A    between atoms: CA_2  and  N_5
REMARK    3  A    between atoms: CA_2  and  C_25
REMARK    4  A    between atoms: C_3  and  O_4
REMARK    5  A    between atoms: C_6  and  CA_8
REMARK    6  A    between atoms: C_10  and  C_13
REMARK    7  A    between atoms: C_17  and  C_18
REMARK                            x       y       z     vdW  Elec       q    Type
REMARK                         _______ _______ _______ _____ _____    ______ ____
ROOT
ATOM      1  CA  UNL     1       8.834  -2.849  23.326  0.00  0.00    +0.102 A 
ATOM      2  N   UNL     1       9.236  -3.704  24.333  0.00  0.00    -0.356 N 
ATOM      3  H   UNL     1      10.082  -3.567  24.872  0.00  0.00    +0.165 HD
ATOM      4  C   UNL     1       8.355  -4.740  24.465  0.00  0.00    +0.093 A 
ATOM      5  C   UNL     1       7.294  -4.503  23.619  0.00  0.00    +0.021 A 
ATOM      6  C   UNL     1       7.619  -3.338  22.864  0.00  0.00    +0.042 A 
ENDROOT
BRANCH   5   7
ATOM      7  C   UNL     1       6.058  -5.283  23.473  0.00  0.00    +0.102 A 
ATOM      8  C   UNL     1       5.155  -5.668  24.518  0.00  0.00    +0.027 A 
ATOM      9  C   UNL     1       4.185  -6.395  23.853  0.00  0.00    +0.114 A 
ATOM     10  N   UNL     1       4.530  -6.396  22.535  0.00  0.00    -0.284 N 
ATOM     11  H   UNL     1       4.036  -6.832  21.762  0.00  0.00    +0.188 HD
ATOM     12  N   UNL     1       5.648  -5.709  22.272  0.00  0.00    -0.173 NA
BRANCH   8  13
ATOM     13  C   UNL     1       5.075  -5.388  25.953  0.00  0.00    -0.013 A 
ATOM     14  C   UNL     1       4.746  -4.106  26.422  0.00  0.00    +0.028 A 
ATOM     15  C   UNL     1       4.723  -3.834  27.791  0.00  0.00    +0.042 A 
ATOM     16 CL   UNL     1       4.386  -2.238  28.341  0.00  0.00    -0.084 Cl
ATOM     17  C   UNL     1       4.990  -4.837  28.720  0.00  0.00    +0.020 A 
ATOM     18  C   UNL     1       5.305  -6.116  28.272  0.00  0.00    +0.002 A 
ATOM     19  C   UNL     1       5.375  -6.378  26.900  0.00  0.00    +0.009 A 
ENDBRANCH   8  13
ENDBRANCH   5   7
BRANCH   1  22
ATOM     20  N   UNL     1       9.247  -0.490  23.433  0.00  0.00    -0.301 N 
ATOM     21  H   UNL     1       8.446  -0.435  24.043  0.00  0.00    +0.150 HD
ATOM     22  C   UNL     1       9.660  -1.713  22.971  0.00  0.00    +0.261 C 
ATOM     23  O   UNL     1      10.676  -1.850  22.297  0.00  0.00    -0.269 OA
BRANCH  20  24
ATOM     24  CA  UNL     1      10.015   0.719  23.165  0.00  0.00    +0.129 C 
BRANCH  24  25
ATOM     25  C   UNL     1       9.114   1.906  22.855  0.00  0.00    -0.023 A 
ATOM     26  C   UNL     1       8.014   1.792  21.987  0.00  0.00    +0.008 A 
ATOM     27  C   UNL     1       7.148   2.872  21.792  0.00  0.00    +0.040 A 
ATOM     28  C   UNL     1       7.379   4.075  22.452  0.00  0.00    +0.142 A 
ATOM     29  F   UNL     1       6.516   5.086  22.272  0.00  0.00    -0.204 F 
ATOM     30  C   UNL     1       8.480   4.218  23.290  0.00  0.00    +0.076 A 
ATOM     31 CL   UNL     1       8.772   5.703  24.113  0.00  0.00    -0.081 Cl
ATOM     32  C   UNL     1       9.349   3.142  23.487  0.00  0.00    +0.028 A 
ENDBRANCH  24  25
BRANCH  24  33
ATOM     33  C   UNL     1      10.973   1.052  24.330  0.00  0.00    +0.182 C 
BRANCH  33  34
ATOM     34  O   UNL     1      10.510   0.504  25.564  0.00  0.00    -0.393 OA
ATOM     35  H   UNL     1      10.786   1.107  26.276  0.00  0.00    +0.209 HD
ENDBRANCH  33  34
ENDBRANCH  24  33
ENDBRANCH  20  24
ENDBRANCH   1  22
TORSDOF 7
ENDMDL
MODEL 6
REMARK VINA RESULT:      -7.8      3.237      4.269
REMARK  Name = 
REMARK  7 active torsions:
REMARK  status: ('A' for Active; 'I' for Inactive)
REMARK    1  A    between atoms: CA_2  and  C_3
REMARK    2  A    between atoms: CA_2  and  N_5
REMARK    3  A    between atoms: CA_2  and  C_25
REMARK    4  A    between atoms: C_3  and  O_4
REMARK    5  A    between atoms: C_6  and  CA_8
REMARK    6  A    between atoms: C_10  and  C_13
REMARK    7  A    between atoms: C_17  and  C_18
REMARK                            x       y       z     vdW  Elec       q    Type
REMARK                         _______ _______ _______ _____ _____    ______ ____
ROOT
ATOM      1  CA  UNL     1       9.459  -0.284  24.483  0.00  0.00    +0.102 A 
ATOM      2  N   UNL     1       9.673  -0.365  23.122  0.00  0.00    -0.356 N 
ATOM      3  H   UNL     1       9.549  -1.219  22.591  0.00  0.00    +0.165 HD
ATOM      4  C   UNL     1      10.087   0.839  22.628  0.00  0.00    +0.093 A 
ATOM      5  C   UNL     1      10.029   1.759  23.651  0.00  0.00    +0.021 A 
ATOM      6  C   UNL     1       9.682   1.041  24.833  0.00  0.00    +0.042 A 
ENDROOT
BRANCH   5   7
ATOM      7  C   UNL     1      10.287   3.204  23.588  0.00  0.00    +0.102 A 
ATOM      8  C   UNL     1       9.344   4.257  23.828  0.00  0.00    +0.027 A 
ATOM      9  C   UNL     1      10.087   5.406  23.619  0.00  0.00    +0.114 A 
ATOM     10  N   UNL     1      11.349   5.005  23.300  0.00  0.00    -0.284 N 
ATOM     11  H   UNL     1      12.153   5.587  23.089  0.00  0.00    +0.188 HD
ATOM     12  N   UNL     1      11.506   3.675  23.297  0.00  0.00    -0.173 NA
BRANCH   8  13
ATOM     13  C   UNL     1       7.948   4.299  24.266  0.00  0.00    -0.013 A 
ATOM     14  C   UNL     1       6.906   3.949  23.392  0.00  0.00    +0.028 A 
ATOM     15  C   UNL     1       5.575   4.042  23.802  0.00  0.00    +0.042 A 
ATOM     16 CL   UNL     1       4.311   3.676  22.691  0.00  0.00    -0.084 Cl
ATOM     17  C   UNL     1       5.255   4.446  25.095  0.00  0.00    +0.020 A 
ATOM     18  C   UNL     1       6.276   4.784  25.978  0.00  0.00    +0.002 A 
ATOM     19  C   UNL     1       7.608   4.738  25.554  0.00  0.00    +0.009 A 
ENDBRANCH   8  13
ENDBRANCH   5   7
BRANCH   1  22
ATOM     20  N   UNL     1       9.107  -2.655  24.542  0.00  0.00    -0.301 N 
ATOM     21  H   UNL     1       9.450  -2.672  23.594  0.00  0.00    +0.150 HD
ATOM     22  C   UNL     1       9.077  -1.468  25.227  0.00  0.00    +0.261 C 
ATOM     23  O   UNL     1       8.751  -1.400  26.408  0.00  0.00    -0.269 OA
BRANCH  20  24
ATOM     24  CA  UNL     1       8.774  -3.914  25.195  0.00  0.00    +0.129 C 
BRANCH  24  25
ATOM     25  C   UNL     1       7.548  -4.569  24.574  0.00  0.00    -0.023 A 
ATOM     26  C   UNL     1       6.391  -4.836  25.326  0.00  0.00    +0.008 A 
ATOM     27  C   UNL     1       5.247  -5.351  24.712  0.00  0.00    +0.040 A 
ATOM     28  C   UNL     1       5.250  -5.612  23.344  0.00  0.00    +0.142 A 
ATOM     29  F   UNL     1       4.129  -6.076  22.774  0.00  0.00    -0.204 F 
ATOM     30  C   UNL     1       6.395  -5.384  22.588  0.00  0.00    +0.076 A 
ATOM     31 CL   UNL     1       6.407  -5.701  20.895  0.00  0.00    -0.081 Cl
ATOM     32  C   UNL     1       7.542  -4.871  23.198  0.00  0.00    +0.028 A 
ENDBRANCH  24  25
BRANCH  24  33
ATOM     33  C   UNL     1       9.972  -4.889  25.193  0.00  0.00    +0.182 C 
BRANCH  33  34
ATOM     34  O   UNL     1       9.590  -6.191  25.638  0.00  0.00    -0.393 OA
ATOM     35  H   UNL     1       9.375  -6.720  24.849  0.00  0.00    +0.209 HD
ENDBRANCH  33  34
ENDBRANCH  24  33
ENDBRANCH  20  24
ENDBRANCH   1  22
TORSDOF 7
ENDMDL
MODEL 7
REMARK VINA RESULT:      -7.7      2.886      4.115
REMARK  Name = 
REMARK  7 active torsions:
REMARK  status: ('A' for Active; 'I' for Inactive)
REMARK    1  A    between atoms: CA_2  and  C_3
REMARK    2  A    between atoms: CA_2  and  N_5
REMARK    3  A    between atoms: CA_2  and  C_25
REMARK    4  A    between atoms: C_3  and  O_4
REMARK    5  A    between atoms: C_6  and  CA_8
REMARK    6  A    between atoms: C_10  and  C_13
REMARK    7  A    between atoms: C_17  and  C_18
REMARK                            x       y       z     vdW  Elec       q    Type
REMARK                         _______ _______ _______ _____ _____    ______ ____
ROOT
ATOM      1  CA  UNL     1       9.455  -1.215  23.018  0.00  0.00    +0.102 A 
ATOM      2  N   UNL     1       9.484  -0.877  21.680  0.00  0.00    -0.356 N 
ATOM      3  H   UNL     1       9.382  -1.556  20.934  0.00  0.00    +0.165 HD
ATOM      4  C   UNL     1       9.690   0.464  21.526  0.00  0.00    +0.093 A 
ATOM      5  C   UNL     1       9.675   1.040  22.778  0.00  0.00    +0.021 A 
ATOM      6  C   UNL     1       9.577  -0.024  23.722  0.00  0.00    +0.042 A 
ENDROOT
BRANCH   5   7
ATOM      7  C   UNL     1       9.761   2.466  23.121  0.00  0.00    +0.102 A 
ATOM      8  C   UNL     1       8.668   3.356  23.381  0.00  0.00    +0.027 A 
ATOM      9  C   UNL     1       9.291   4.566  23.628  0.00  0.00    +0.114 A 
ATOM     10  N   UNL     1      10.631   4.346  23.522  0.00  0.00    -0.284 N 
ATOM     11  H   UNL     1      11.384   5.016  23.648  0.00  0.00    +0.188 HD
ATOM     12  N   UNL     1      10.947   3.076  23.240  0.00  0.00    -0.173 NA
BRANCH   8  13
ATOM     13  C   UNL     1       7.217   3.189  23.483  0.00  0.00    -0.013 A 
ATOM     14  C   UNL     1       6.638   2.570  24.603  0.00  0.00    +0.028 A 
ATOM     15  C   UNL     1       5.258   2.368  24.668  0.00  0.00    +0.042 A 
ATOM     16 CL   UNL     1       4.577   1.544  26.018  0.00  0.00    -0.084 Cl
ATOM     17  C   UNL     1       4.425   2.808  23.643  0.00  0.00    +0.020 A 
ATOM     18  C   UNL     1       4.982   3.434  22.531  0.00  0.00    +0.002 A 
ATOM     19  C   UNL     1       6.368   3.595  22.443  0.00  0.00    +0.009 A 
ENDBRANCH   8  13
ENDBRANCH   5   7
BRANCH   1  22
ATOM     20  N   UNL     1       8.105  -3.193  23.140  0.00  0.00    -0.301 N 
ATOM     21  H   UNL     1       7.404  -2.676  22.630  0.00  0.00    +0.150 HD
ATOM     22  C   UNL     1       9.313  -2.603  23.410  0.00  0.00    +0.261 C 
ATOM     23  O   UNL     1      10.232  -3.210  23.950  0.00  0.00    -0.269 OA
BRANCH  20  24
ATOM     24  CA  UNL     1       7.858  -4.593  23.460  0.00  0.00    +0.129 C 
BRANCH  24  25
ATOM     25  C   UNL     1       7.285  -4.762  24.860  0.00  0.00    -0.023 A 
ATOM     26  C   UNL     1       8.056  -5.275  25.917  0.00  0.00    +0.008 A 
ATOM     27  C   UNL     1       7.536  -5.334  27.213  0.00  0.00    +0.040 A 
ATOM     28  C   UNL     1       6.241  -4.888  27.462  0.00  0.00    +0.142 A 
ATOM     29  F   UNL     1       5.777  -4.926  28.720  0.00  0.00    -0.204 F 
ATOM     30  C   UNL     1       5.451  -4.406  26.424  0.00  0.00    +0.076 A 
ATOM     31 CL   UNL     1       3.848  -3.852  26.724  0.00  0.00    -0.081 Cl
ATOM     32  C   UNL     1       5.966  -4.348  25.127  0.00  0.00    +0.028 A 
ENDBRANCH  24  25
BRANCH  24  33
ATOM     33  C   UNL     1       6.941  -5.262  22.411  0.00  0.00    +0.182 C 
BRANCH  33  34
ATOM     34  O   UNL     1       6.337  -4.296  21.551  0.00  0.00    -0.393 OA
ATOM     35  H   UNL     1       7.027  -3.659  21.293  0.00  0.00    +0.209 HD
ENDBRANCH  33  34
ENDBRANCH  24  33
ENDBRANCH  20  24
ENDBRANCH   1  22
TORSDOF 7
ENDMDL
MODEL 8
REMARK VINA RESULT:      -7.5      2.584      3.484
REMARK  Name = 
REMARK  7 active torsions:
REMARK  status: ('A' for Active; 'I' for Inactive)
REMARK    1  A    between atoms: CA_2  and  C_3
REMARK    2  A    between atoms: CA_2  and  N_5
REMARK    3  A    between atoms: CA_2  and  C_25
REMARK    4  A    between atoms: C_3  and  O_4
REMARK    5  A    between atoms: C_6  and  CA_8
REMARK    6  A    between atoms: C_10  and  C_13
REMARK    7  A    between atoms: C_17  and  C_18
REMARK                            x       y       z     vdW  Elec       q    Type
REMARK                         _______ _______ _______ _____ _____    ______ ____
ROOT
ATOM      1  CA  UNL     1       9.486  -0.375  23.233  0.00  0.00    +0.102 A 
ATOM      2  N   UNL     1      10.541  -0.408  24.122  0.00  0.00    -0.356 N 
ATOM      3  H   UNL     1      10.949  -1.269  24.466  0.00  0.00    +0.165 HD
ATOM      4  C   UNL     1      10.916   0.858  24.471  0.00  0.00    +0.093 A 
ATOM      5  C   UNL     1      10.182   1.741  23.711  0.00  0.00    +0.021 A 
ATOM      6  C   UNL     1       9.244   0.966  22.967  0.00  0.00    +0.042 A 
ENDROOT
BRANCH   5   7
ATOM      7  C   UNL     1      10.294   3.205  23.660  0.00  0.00    +0.102 A 
ATOM      8  C   UNL     1       9.279   4.158  24.003  0.00  0.00    +0.027 A 
ATOM      9  C   UNL     1       9.888   5.376  23.758  0.00  0.00    +0.114 A 
ATOM     10  N   UNL     1      11.149   5.105  23.324  0.00  0.00    -0.284 N 
ATOM     11  H   UNL     1      11.873   5.766  23.060  0.00  0.00    +0.188 HD
ATOM     12  N   UNL     1      11.433   3.797  23.278  0.00  0.00    -0.173 NA
BRANCH   8  13
ATOM     13  C   UNL     1       7.928   4.057  24.558  0.00  0.00    -0.013 A 
ATOM     14  C   UNL     1       6.804   4.012  23.719  0.00  0.00    +0.028 A 
ATOM     15  C   UNL     1       5.516   3.969  24.258  0.00  0.00    +0.042 A 
ATOM     16 CL   UNL     1       4.150   3.986  23.211  0.00  0.00    -0.084 Cl
ATOM     17  C   UNL     1       5.324   3.931  25.636  0.00  0.00    +0.020 A 
ATOM     18  C   UNL     1       6.428   3.961  26.482  0.00  0.00    +0.002 A 
ATOM     19  C   UNL     1       7.716   4.054  25.945  0.00  0.00    +0.009 A 
ENDBRANCH   8  13
ENDBRANCH   5   7
BRANCH   1  22
ATOM     20  N   UNL     1       7.768  -2.033  23.456  0.00  0.00    -0.301 N 
ATOM     21  H   UNL     1       7.377  -1.448  24.179  0.00  0.00    +0.150 HD
ATOM     22  C   UNL     1       8.884  -1.612  22.779  0.00  0.00    +0.261 C 
ATOM     23  O   UNL     1       9.352  -2.240  21.835  0.00  0.00    -0.269 OA
BRANCH  20  24
ATOM     24  CA  UNL     1       7.060  -3.246  23.068  0.00  0.00    +0.129 C 
BRANCH  24  25
ATOM     25  C   UNL     1       6.793  -4.153  24.261  0.00  0.00    -0.023 A 
ATOM     26  C   UNL     1       7.469  -3.987  25.482  0.00  0.00    +0.008 A 
ATOM     27  C   UNL     1       7.139  -4.772  26.590  0.00  0.00    +0.040 A 
ATOM     28  C   UNL     1       6.139  -5.735  26.485  0.00  0.00    +0.142 A 
ATOM     29  F   UNL     1       5.820  -6.454  27.572  0.00  0.00    -0.204 F 
ATOM     30  C   UNL     1       5.480  -5.936  25.278  0.00  0.00    +0.076 A 
ATOM     31 CL   UNL     1       4.240  -7.124  25.140  0.00  0.00    -0.081 Cl
ATOM     32  C   UNL     1       5.808  -5.155  24.167  0.00  0.00    +0.028 A 
ENDBRANCH  24  25
BRANCH  24  33
ATOM     33  C   UNL     1       5.745  -2.922  22.325  0.00  0.00    +0.182 C 
BRANCH  33  34
ATOM     34  O   UNL     1       5.662  -3.615  21.079  0.00  0.00    -0.393 OA
ATOM     35  H   UNL     1       6.378  -4.275  21.063  0.00  0.00    +0.209 HD
ENDBRANCH  33  34
ENDBRANCH  24  33
ENDBRANCH  20  24
ENDBRANCH   1  22
TORSDOF 7
ENDMDL
MODEL 9
REMARK VINA RESULT:      -7.4      3.822     10.196
REMARK  Name = 
REMARK  7 active torsions:
REMARK  status: ('A' for Active; 'I' for Inactive)
REMARK    1  A    between atoms: CA_2  and  C_3
REMARK    2  A    between atoms: CA_2  and  N_5
REMARK    3  A    between atoms: CA_2  and  C_25
REMARK    4  A    between atoms: C_3  and  O_4
REMARK    5  A    between atoms: C_6  and  CA_8
REMARK    6  A    between atoms: C_10  and  C_13
REMARK    7  A    between atoms: C_17  and  C_18
REMARK                            x       y       z     vdW  Elec       q    Type
REMARK                         _______ _______ _______ _____ _____    ______ ____
ROOT
ATOM      1  CA  UNL     1       7.816  -3.411  24.569  0.00  0.00    +0.102 A 
ATOM      2  N   UNL     1       8.921  -3.606  25.373  0.00  0.00    -0.356 N 
ATOM      3  H   UNL     1       9.801  -3.125  25.232  0.00  0.00    +0.165 HD
ATOM      4  C   UNL     1       8.655  -4.536  26.338  0.00  0.00    +0.093 A 
ATOM      5  C   UNL     1       7.322  -4.871  26.247  0.00  0.00    +0.021 A 
ATOM      6  C   UNL     1       6.804  -4.200  25.100  0.00  0.00    +0.042 A 
ENDROOT
BRANCH   5   7
ATOM      7  C   UNL     1       6.548  -5.758  27.125  0.00  0.00    +0.102 A 
ATOM      8  C   UNL     1       5.196  -6.193  26.933  0.00  0.00    +0.027 A 
ATOM      9  C   UNL     1       4.952  -6.982  28.043  0.00  0.00    +0.114 A 
ATOM     10  N   UNL     1       6.096  -6.986  28.781  0.00  0.00    -0.284 N 
ATOM     11  H   UNL     1       6.271  -7.469  29.657  0.00  0.00    +0.188 HD
ATOM     12  N   UNL     1       7.089  -6.272  28.237  0.00  0.00    -0.173 NA
BRANCH   8  13
ATOM     13  C   UNL     1       4.208  -6.018  25.866  0.00  0.00    -0.013 A 
ATOM     14  C   UNL     1       3.249  -4.994  25.931  0.00  0.00    +0.028 A 
ATOM     15  C   UNL     1       2.278  -4.867  24.936  0.00  0.00    +0.042 A 
ATOM     16 CL   UNL     1       1.069  -3.648  25.073  0.00  0.00    -0.084 Cl
ATOM     17  C   UNL     1       2.264  -5.727  23.842  0.00  0.00    +0.020 A 
ATOM     18  C   UNL     1       3.215  -6.739  23.756  0.00  0.00    +0.002 A 
ATOM     19  C   UNL     1       4.158  -6.898  24.775  0.00  0.00    +0.009 A 
ENDBRANCH   8  13
ENDBRANCH   5   7
BRANCH   1  22
ATOM     20  N   UNL     1       8.528  -1.314  23.651  0.00  0.00    -0.301 N 
ATOM     21  H   UNL     1       8.963  -1.136  24.544  0.00  0.00    +0.150 HD
ATOM     22  C   UNL     1       7.896  -2.511  23.436  0.00  0.00    +0.261 C 
ATOM     23  O   UNL     1       7.425  -2.816  22.345  0.00  0.00    -0.269 OA
BRANCH  20  24
ATOM     24  CA  UNL     1       8.697  -0.343  22.578  0.00  0.00    +0.129 C 
BRANCH  24  25
ATOM     25  C   UNL     1       9.100   1.025  23.109  0.00  0.00    -0.023 A 
ATOM     26  C   UNL     1      10.161   1.754  22.545  0.00  0.00    +0.008 A 
ATOM     27  C   UNL     1      10.451   3.047  22.989  0.00  0.00    +0.040 A 
ATOM     28  C   UNL     1       9.690   3.619  24.004  0.00  0.00    +0.142 A 
ATOM     29  F   UNL     1       9.968   4.873  24.391  0.00  0.00    -0.204 F 
ATOM     30  C   UNL     1       8.656   2.903  24.597  0.00  0.00    +0.076 A 
ATOM     31 CL   UNL     1       7.708   3.604  25.853  0.00  0.00    -0.081 Cl
ATOM     32  C   UNL     1       8.364   1.610  24.158  0.00  0.00    +0.028 A 
ENDBRANCH  24  25
BRANCH  24  33
ATOM     33  C   UNL     1       9.709  -0.836  21.520  0.00  0.00    +0.182 C 
BRANCH  33  34
ATOM     34  O   UNL     1      10.570  -1.845  22.048  0.00  0.00    -0.393 OA
ATOM     35  H   UNL     1      11.312  -1.395  22.492  0.00  0.00    +0.209 HD
ENDBRANCH  33  34
ENDBRANCH  24  33
ENDBRANCH  20  24
ENDBRANCH   1  22
TORSDOF 7
ENDMDL
