MODEL 1
REMARK VINA RESULT:      -4.6      0.000      0.000
REMARK  Name = 
REMARK  1 active torsions:
REMARK  status: ('A' for Active; 'I' for Inactive)
REMARK    1  A    between atoms: C_2  and  C_4
REMARK                            x       y       z     vdW  Elec       q    Type
REMARK                         _______ _______ _______ _____ _____    ______ ____
ROOT
ATOM      1  C   UNL     1       8.527  -4.326  24.583  0.00  0.00    +0.056 A 
ATOM      2  C   UNL     1       7.840  -5.151  23.690  0.00  0.00    +0.031 A 
ATOM      3  C   UNL     1       7.281  -4.585  22.547  0.00  0.00    +0.037 A 
ATOM      4 BR   UNL     1       6.342  -5.656  21.313  0.00  0.00    -0.049 Br
ATOM      5  C   UNL     1       7.425  -3.221  22.337  0.00  0.00    +0.126 A 
ATOM      6  N   UNL     1       8.073  -2.394  23.193  0.00  0.00    -0.261 NA
ATOM      7  C   UNL     1       8.600  -2.965  24.305  0.00  0.00    +0.123 A 
ENDROOT
BRANCH   1  11
ATOM      8  N   UNL     1      10.318  -5.546  25.681  0.00  0.00    -0.325 N 
ATOM      9  H   UNL     1      10.863  -5.555  24.831  0.00  0.00    +0.145 HD
ATOM     10  H   UNL     1      10.796  -5.792  26.541  0.00  0.00    +0.145 HD
ATOM     11  C   UNL     1       9.162  -4.830  25.817  0.00  0.00    +0.243 C 
ATOM     12  O   UNL     1       8.692  -4.589  26.921  0.00  0.00    -0.270 OA
ENDBRANCH   1  11
TORSDOF 1
ENDMDL
MODEL 2
REMARK VINA RESULT:      -4.6      2.145      2.493
REMARK  Name = 
REMARK  1 active torsions:
REMARK  status: ('A' for Active; 'I' for Inactive)
REMARK    1  A    between atoms: C_2  and  C_4
REMARK                            x       y       z     vdW  Elec       q    Type
REMARK                         _______ _______ _______ _____ _____    ______ ____
ROOT
ATOM      1  C   UNL     1       8.873  -3.971  24.576  0.00  0.00    +0.056 A 
ATOM      2  C   UNL     1       9.539  -2.846  24.086  0.00  0.00    +0.031 A 
ATOM      3  C   UNL     1       9.045  -2.218  22.946  0.00  0.00    +0.037 A 
ATOM      4 BR   UNL     1       9.910  -0.698  22.243  0.00  0.00    -0.049 Br
ATOM      5  C   UNL     1       7.910  -2.733  22.336  0.00  0.00    +0.126 A 
ATOM      6  N   UNL     1       7.253  -3.830  22.781  0.00  0.00    -0.261 NA
ATOM      7  C   UNL     1       7.757  -4.433  23.887  0.00  0.00    +0.123 A 
ENDROOT
BRANCH   1  11
ATOM      8  N   UNL     1      10.290  -5.643  25.626  0.00  0.00    -0.325 N 
ATOM      9  H   UNL     1      10.867  -5.705  24.799  0.00  0.00    +0.145 HD
ATOM     10  H   UNL     1      10.652  -6.057  26.477  0.00  0.00    +0.145 HD
ATOM     11  C   UNL     1       9.311  -4.702  25.783  0.00  0.00    +0.243 C 
ATOM     12  O   UNL     1       8.843  -4.452  26.885  0.00  0.00    -0.270 OA
ENDBRANCH   1  11
TORSDOF 1
ENDMDL
MODEL 3
REMARK VINA RESULT:      -4.5      4.657      5.904
REMARK  Name = 
REMARK  1 active torsions:
REMARK  status: ('A' for Active; 'I' for Inactive)
REMARK    1  A    between atoms: C_2  and  C_4
REMARK                            x       y       z     vdW  Elec       q    Type
REMARK                         _______ _______ _______ _____ _____    ______ ____
ROOT
ATOM      1  C   UNL     1       9.309   0.219  22.599  0.00  0.00    +0.056 A 
ATOM      2  C   UNL     1       8.822   0.006  23.890  0.00  0.00    +0.031 A 
ATOM      3  C   UNL     1       9.095  -1.206  24.518  0.00  0.00    +0.037 A 
ATOM      4 BR   UNL     1       8.458  -1.544  26.260  0.00  0.00    -0.049 Br
ATOM      5  C   UNL     1       9.838  -2.160  23.837  0.00  0.00    +0.126 A 
ATOM      6  N   UNL     1      10.310  -1.986  22.580  0.00  0.00    -0.261 NA
ATOM      7  C   UNL     1      10.024  -0.802  21.983  0.00  0.00    +0.123 A 
ENDROOT
BRANCH   1  11
ATOM      8  N   UNL     1      10.155   2.300  21.670  0.00  0.00    -0.325 N 
ATOM      9  H   UNL     1      11.109   2.004  21.819  0.00  0.00    +0.145 HD
ATOM     10  H   UNL     1      10.006   3.100  21.067  0.00  0.00    +0.145 HD
ATOM     11  C   UNL     1       9.082   1.473  21.852  0.00  0.00    +0.243 C 
ATOM     12  O   UNL     1       7.985   1.747  21.383  0.00  0.00    -0.270 OA
ENDBRANCH   1  11
TORSDOF 1
ENDMDL
MODEL 4
REMARK VINA RESULT:      -4.3      4.473      5.644
REMARK  Name = 
REMARK  1 active torsions:
REMARK  status: ('A' for Active; 'I' for Inactive)
REMARK    1  A    between atoms: C_2  and  C_4
REMARK                            x       y       z     vdW  Elec       q    Type
REMARK                         _______ _______ _______ _____ _____    ______ ____
ROOT
ATOM      1  C   UNL     1       8.693   0.398  22.139  0.00  0.00    +0.056 A 
ATOM      2  C   UNL     1       7.563  -0.128  22.769  0.00  0.00    +0.031 A 
ATOM      3  C   UNL     1       7.490  -1.503  22.975  0.00  0.00    +0.037 A 
ATOM      4 BR   UNL     1       5.983  -2.263  23.818  0.00  0.00    -0.049 Br
ATOM      5  C   UNL     1       8.540  -2.302  22.546  0.00  0.00    +0.126 A 
ATOM      6  N   UNL     1       9.641  -1.821  21.921  0.00  0.00    -0.261 NA
ATOM      7  C   UNL     1       9.688  -0.480  21.720  0.00  0.00    +0.123 A 
ENDROOT
BRANCH   1  11
ATOM      8  N   UNL     1      10.145   2.290  21.672  0.00  0.00    -0.325 N 
ATOM      9  H   UNL     1      10.919   1.674  21.466  0.00  0.00    +0.145 HD
ATOM     10  H   UNL     1      10.237   3.260  21.393  0.00  0.00    +0.145 HD
ATOM     11  C   UNL     1       8.871   1.842  21.883  0.00  0.00    +0.243 C 
ATOM     12  O   UNL     1       7.915   2.602  21.826  0.00  0.00    -0.270 OA
ENDBRANCH   1  11
TORSDOF 1
ENDMDL
MODEL 5
REMARK VINA RESULT:      -4.3      2.529      3.651
REMARK  Name = 
REMARK  1 active torsions:
REMARK  status: ('A' for Active; 'I' for Inactive)
REMARK    1  A    between atoms: C_2  and  C_4
REMARK                            x       y       z     vdW  Elec       q    Type
REMARK                         _______ _______ _______ _____ _____    ______ ____
ROOT
ATOM      1  C   UNL     1       8.578  -2.460  22.838  0.00  0.00    +0.056 A 
ATOM      2  C   UNL     1       7.579  -3.349  22.435  0.00  0.00    +0.031 A 
ATOM      3  C   UNL     1       7.475  -4.579  23.078  0.00  0.00    +0.037 A 
ATOM      4 BR   UNL     1       6.145  -5.814  22.567  0.00  0.00    -0.049 Br
ATOM      5  C   UNL     1       8.369  -4.880  24.096  0.00  0.00    +0.126 A 
ATOM      6  N   UNL     1       9.355  -4.044  24.498  0.00  0.00    -0.261 NA
ATOM      7  C   UNL     1       9.445  -2.855  23.851  0.00  0.00    +0.123 A 
ENDROOT
BRANCH   1  11
ATOM      8  N   UNL     1       9.753  -1.001  21.291  0.00  0.00    -0.325 N 
ATOM      9  H   UNL     1      10.198  -1.793  20.848  0.00  0.00    +0.145 HD
ATOM     10  H   UNL     1       9.798  -0.113  20.806  0.00  0.00    +0.145 HD
ATOM     11  C   UNL     1       8.765  -1.129  22.226  0.00  0.00    +0.243 C 
ATOM     12  O   UNL     1       8.042  -0.186  22.517  0.00  0.00    -0.270 OA
ENDBRANCH   1  11
TORSDOF 1
ENDMDL
MODEL 6
REMARK VINA RESULT:      -4.3      3.333      4.274
REMARK  Name = 
REMARK  1 active torsions:
REMARK  status: ('A' for Active; 'I' for Inactive)
REMARK    1  A    between atoms: C_2  and  C_4
REMARK                            x       y       z     vdW  Elec       q    Type
REMARK                         _______ _______ _______ _____ _____    ______ ____
ROOT
ATOM      1  C   UNL     1       7.526  -3.594  22.565  0.00  0.00    +0.056 A 
ATOM      2  C   UNL     1       8.080  -2.353  22.246  0.00  0.00    +0.031 A 
ATOM      3  C   UNL     1       9.199  -1.917  22.950  0.00  0.00    +0.037 A 
ATOM      4 BR   UNL     1       9.983  -0.247  22.559  0.00  0.00    -0.049 Br
ATOM      5  C   UNL     1       9.723  -2.729  23.946  0.00  0.00    +0.126 A 
ATOM      6  N   UNL     1       9.198  -3.931  24.286  0.00  0.00    -0.261 NA
ATOM      7  C   UNL     1       8.101  -4.332  23.594  0.00  0.00    +0.123 A 
ENDROOT
BRANCH   1  11
ATOM      8  N   UNL     1       6.467  -5.398  21.329  0.00  0.00    -0.325 N 
ATOM      9  H   UNL     1       7.219  -6.030  21.563  0.00  0.00    +0.145 HD
ATOM     10  H   UNL     1       5.619  -5.806  20.952  0.00  0.00    +0.145 HD
ATOM     11  C   UNL     1       6.346  -4.149  21.872  0.00  0.00    +0.243 C 
ATOM     12  O   UNL     1       5.291  -3.533  21.814  0.00  0.00    -0.270 OA
ENDBRANCH   1  11
TORSDOF 1
ENDMDL
MODEL 7
REMARK VINA RESULT:      -4.2      3.740      4.392
REMARK  Name = 
REMARK  1 active torsions:
REMARK  status: ('A' for Active; 'I' for Inactive)
REMARK    1  A    between atoms: C_2  and  C_4
REMARK                            x       y       z     vdW  Elec       q    Type
REMARK                         _______ _______ _______ _____ _____    ______ ____
ROOT
ATOM      1  C   UNL     1       9.189  -1.350  24.900  0.00  0.00    +0.056 A 
ATOM      2  C   UNL     1       9.256  -0.115  24.252  0.00  0.00    +0.031 A 
ATOM      3  C   UNL     1       9.777  -0.061  22.962  0.00  0.00    +0.037 A 
ATOM      4 BR   UNL     1       9.892   1.583  22.047  0.00  0.00    -0.049 Br
ATOM      5  C   UNL     1      10.214  -1.235  22.367  0.00  0.00    +0.126 A 
ATOM      6  N   UNL     1      10.174  -2.444  22.976  0.00  0.00    -0.261 NA
ATOM      7  C   UNL     1       9.672  -2.473  24.237  0.00  0.00    +0.123 A 
ENDROOT
BRANCH   1  11
ATOM      8  N   UNL     1       8.947  -0.546  27.180  0.00  0.00    -0.325 N 
ATOM      9  H   UNL     1       9.321   0.357  26.925  0.00  0.00    +0.145 HD
ATOM     10  H   UNL     1       8.481  -0.618  28.077  0.00  0.00    +0.145 HD
ATOM     11  C   UNL     1       8.646  -1.514  26.263  0.00  0.00    +0.243 C 
ATOM     12  O   UNL     1       7.926  -2.459  26.554  0.00  0.00    -0.270 OA
ENDBRANCH   1  11
TORSDOF 1
ENDMDL
MODEL 8
REMARK VINA RESULT:      -4.2      3.516      4.444
REMARK  Name = 
REMARK  1 active torsions:
REMARK  status: ('A' for Active; 'I' for Inactive)
REMARK    1  A    between atoms: C_2  and  C_4
REMARK                            x       y       z     vdW  Elec       q    Type
REMARK                         _______ _______ _______ _____ _____    ______ ____
ROOT
ATOM      1  C   UNL     1       6.449  -5.290  23.614  0.00  0.00    +0.056 A 
ATOM      2  C   UNL     1       6.036  -5.384  24.945  0.00  0.00    +0.031 A 
ATOM      3  C   UNL     1       6.998  -5.348  25.950  0.00  0.00    +0.037 A 
ATOM      4 BR   UNL     1       6.492  -5.474  27.762  0.00  0.00    -0.049 Br
ATOM      5  C   UNL     1       8.334  -5.221  25.594  0.00  0.00    +0.126 A 
ATOM      6  N   UNL     1       8.763  -5.142  24.312  0.00  0.00    -0.261 NA
ATOM      7  C   UNL     1       7.810  -5.190  23.348  0.00  0.00    +0.123 A 
ENDROOT
BRANCH   1  11
ATOM      8  N   UNL     1       5.673  -6.291  21.540  0.00  0.00    -0.325 N 
ATOM      9  H   UNL     1       6.247  -7.108  21.694  0.00  0.00    +0.145 HD
ATOM     10  H   UNL     1       4.957  -6.355  20.826  0.00  0.00    +0.145 HD
ATOM     11  C   UNL     1       5.506  -5.311  22.477  0.00  0.00    +0.243 C 
ATOM     12  O   UNL     1       4.590  -4.505  22.394  0.00  0.00    -0.270 OA
ENDBRANCH   1  11
TORSDOF 1
ENDMDL
MODEL 9
REMARK VINA RESULT:      -4.2      3.148      4.151
REMARK  Name = 
REMARK  1 active torsions:
REMARK  status: ('A' for Active; 'I' for Inactive)
REMARK    1  A    between atoms: C_2  and  C_4
REMARK                            x       y       z     vdW  Elec       q    Type
REMARK                         _______ _______ _______ _____ _____    ______ ____
ROOT
ATOM      1  C   UNL     1       9.181  -2.189  23.013  0.00  0.00    +0.056 A 
ATOM      2  C   UNL     1       9.499  -2.808  24.224  0.00  0.00    +0.031 A 
ATOM      3  C   UNL     1       8.751  -3.909  24.631  0.00  0.00    +0.037 A 
ATOM      4 BR   UNL     1       9.138  -4.777  26.259  0.00  0.00    -0.049 Br
ATOM      5  C   UNL     1       7.716  -4.353  23.820  0.00  0.00    +0.126 A 
ATOM      6  N   UNL     1       7.377  -3.764  22.648  0.00  0.00    -0.261 NA
ATOM      7  C   UNL     1       8.111  -2.686  22.276  0.00  0.00    +0.123 A 
ENDROOT
BRANCH   1  11
ATOM      8  N   UNL     1       9.773  -0.730  21.162  0.00  0.00    -0.325 N 
ATOM      9  H   UNL     1       9.038  -1.121  20.590  0.00  0.00    +0.145 HD
ATOM     10  H   UNL     1      10.199   0.133  20.844  0.00  0.00    +0.145 HD
ATOM     11  C   UNL     1       9.918  -1.021  22.490  0.00  0.00    +0.243 C 
ATOM     12  O   UNL     1      10.605  -0.321  23.220  0.00  0.00    -0.270 OA
ENDBRANCH   1  11
TORSDOF 1
ENDMDL
