MODEL 1
REMARK VINA RESULT:      -6.8      0.000      0.000
REMARK  Name = 
REMARK  7 active torsions:
REMARK  status: ('A' for Active; 'I' for Inactive)
REMARK    1  A    between atoms: C_1  and  C_2
REMARK    2  A    between atoms: C_2  and  C_3
REMARK    3  A    between atoms: C_2  and  C_4
REMARK    4  A    between atoms: C_2  and  C_5
REMARK    5  A    between atoms: N_8  and  C_9
REMARK    6  A    between atoms: N_11  and  C_12
REMARK    7  A    between atoms: N_19  and  C_21
REMARK                            x       y       z     vdW  Elec       q    Type
REMARK                         _______ _______ _______ _____ _____    ______ ____
ROOT
ATOM      1  C   UNL     1       6.809   4.315  23.220  0.00  0.00    +0.042 A 
ATOM      2  N   UNL     1       7.638   5.321  23.733  0.00  0.00    -0.295 N 
ATOM      3  H   UNL     1       7.301   5.667  24.631  0.00  0.00    +0.187 HD
ATOM      4  N   UNL     1       8.955   4.870  23.736  0.00  0.00    -0.239 N 
ATOM      5  C   UNL     1       8.955   3.570  23.189  0.00  0.00    +0.149 A 
ATOM      6  N   UNL     1       9.971   2.776  23.018  0.00  0.00    -0.144 NA
ATOM      7  C   UNL     1       7.527   3.246  22.827  0.00  0.00    +0.068 A 
ENDROOT
BRANCH   4   8
ATOM      8  C   UNL     1      10.037   5.610  24.287  0.00  0.00    +0.065 A 
ATOM      9  C   UNL     1       9.850   6.385  25.451  0.00  0.00    +0.028 A 
ATOM     10  C   UNL     1      10.899   7.108  26.034  0.00  0.00    +0.002 A 
ATOM     11  C   UNL     1      12.165   7.083  25.461  0.00  0.00    +0.000 A 
ATOM     12  C   UNL     1      12.378   6.334  24.310  0.00  0.00    +0.002 A 
ATOM     13  C   UNL     1      11.327   5.607  23.736  0.00  0.00    +0.028 A 
ENDBRANCH   4   8
BRANCH   1  15
ATOM     14  C   UNL     1       4.718   4.241  24.581  0.00  0.00    +0.017 C 
ATOM     15  C   UNL     1       5.292   4.441  23.165  0.00  0.00    +0.004 C 
ATOM     16  C   UNL     1       4.855   5.820  22.637  0.00  0.00    +0.017 C 
ATOM     17  C   UNL     1       4.672   3.373  22.234  0.00  0.00    +0.017 C 
ENDBRANCH   1  15
BRANCH   6  18
ATOM     18  C   UNL     1       9.741   1.481  22.643  0.00  0.00    +0.329 C 
ATOM     19  N   UNL     1       9.291   0.711  23.691  0.00  0.00    -0.268 N 
ATOM     20  H   UNL     1       9.023   1.247  24.506  0.00  0.00    +0.156 HD
ATOM     21  O   UNL     1       9.819   1.081  21.487  0.00  0.00    -0.250 OA
BRANCH  19  22
ATOM     22  C   UNL     1       8.931  -0.649  23.596  0.00  0.00    +0.035 A 
ATOM     23  C   UNL     1       9.815  -1.617  24.081  0.00  0.00    +0.025 A 
ATOM     24  C   UNL     1       9.439  -2.967  24.108  0.00  0.00    +0.022 A 
ATOM     25  C   UNL     1       8.191  -3.355  23.622  0.00  0.00    +0.041 A 
ATOM     26 CL   UNL     1       7.702  -5.001  23.712  0.00  0.00    -0.084 Cl
ATOM     27  C   UNL     1       7.332  -2.411  23.073  0.00  0.00    +0.022 A 
ATOM     28  C   UNL     1       7.707  -1.065  23.053  0.00  0.00    +0.025 A 
ENDBRANCH  19  22
ENDBRANCH   6  18
TORSDOF 4
ENDMDL
MODEL 2
REMARK VINA RESULT:      -6.7      0.264      1.353
REMARK  Name = 
REMARK  7 active torsions:
REMARK  status: ('A' for Active; 'I' for Inactive)
REMARK    1  A    between atoms: C_1  and  C_2
REMARK    2  A    between atoms: C_2  and  C_3
REMARK    3  A    between atoms: C_2  and  C_4
REMARK    4  A    between atoms: C_2  and  C_5
REMARK    5  A    between atoms: N_8  and  C_9
REMARK    6  A    between atoms: N_11  and  C_12
REMARK    7  A    between atoms: N_19  and  C_21
REMARK                            x       y       z     vdW  Elec       q    Type
REMARK                         _______ _______ _______ _____ _____    ______ ____
ROOT
ATOM      1  C   UNL     1       6.777   4.189  23.270  0.00  0.00    +0.042 A 
ATOM      2  N   UNL     1       7.638   5.198  23.720  0.00  0.00    -0.295 N 
ATOM      3  H   UNL     1       7.328   5.592  24.607  0.00  0.00    +0.187 HD
ATOM      4  N   UNL     1       8.945   4.717  23.718  0.00  0.00    -0.239 N 
ATOM      5  C   UNL     1       8.905   3.393  23.232  0.00  0.00    +0.149 A 
ATOM      6  N   UNL     1       9.898   2.569  23.078  0.00  0.00    -0.144 NA
ATOM      7  C   UNL     1       7.462   3.087  22.913  0.00  0.00    +0.068 A 
ENDROOT
BRANCH   4   8
ATOM      8  C   UNL     1      10.054   5.455  24.214  0.00  0.00    +0.065 A 
ATOM      9  C   UNL     1      11.334   5.290  23.644  0.00  0.00    +0.028 A 
ATOM     10  C   UNL     1      12.443   6.018  24.093  0.00  0.00    +0.002 A 
ATOM     11  C   UNL     1      12.304   6.928  25.134  0.00  0.00    +0.000 A 
ATOM     12  C   UNL     1      11.057   7.108  25.721  0.00  0.00    +0.002 A 
ATOM     13  C   UNL     1       9.949   6.382  25.262  0.00  0.00    +0.028 A 
ENDBRANCH   4   8
BRANCH   1  15
ATOM     14  C   UNL     1       4.697   4.071  24.645  0.00  0.00    +0.017 C 
ATOM     15  C   UNL     1       5.262   4.348  23.239  0.00  0.00    +0.004 C 
ATOM     16  C   UNL     1       4.848   5.766  22.803  0.00  0.00    +0.017 C 
ATOM     17  C   UNL     1       4.612   3.354  22.248  0.00  0.00    +0.017 C 
ENDBRANCH   1  15
BRANCH   6  18
ATOM     18  C   UNL     1       9.632   1.264  22.769  0.00  0.00    +0.329 C 
ATOM     19  N   UNL     1       9.258   0.535  23.874  0.00  0.00    -0.268 N 
ATOM     20  H   UNL     1       9.057   1.102  24.687  0.00  0.00    +0.156 HD
ATOM     21  O   UNL     1       9.619   0.823  21.624  0.00  0.00    -0.250 OA
BRANCH  19  22
ATOM     22  C   UNL     1       8.883  -0.824  23.855  0.00  0.00    +0.035 A 
ATOM     23  C   UNL     1       7.587  -1.161  23.455  0.00  0.00    +0.025 A 
ATOM     24  C   UNL     1       7.220  -2.506  23.313  0.00  0.00    +0.022 A 
ATOM     25  C   UNL     1       8.137  -3.516  23.599  0.00  0.00    +0.041 A 
ATOM     26 CL   UNL     1       7.709  -5.165  23.364  0.00  0.00    -0.084 Cl
ATOM     27  C   UNL     1       9.406  -3.194  24.064  0.00  0.00    +0.022 A 
ATOM     28  C   UNL     1       9.772  -1.853  24.199  0.00  0.00    +0.025 A 
ENDBRANCH  19  22
ENDBRANCH   6  18
TORSDOF 4
ENDMDL
MODEL 3
REMARK VINA RESULT:      -6.5      1.207      1.733
REMARK  Name = 
REMARK  7 active torsions:
REMARK  status: ('A' for Active; 'I' for Inactive)
REMARK    1  A    between atoms: C_1  and  C_2
REMARK    2  A    between atoms: C_2  and  C_3
REMARK    3  A    between atoms: C_2  and  C_4
REMARK    4  A    between atoms: C_2  and  C_5
REMARK    5  A    between atoms: N_8  and  C_9
REMARK    6  A    between atoms: N_11  and  C_12
REMARK    7  A    between atoms: N_19  and  C_21
REMARK                            x       y       z     vdW  Elec       q    Type
REMARK                         _______ _______ _______ _____ _____    ______ ____
ROOT
ATOM      1  C   UNL     1       6.474   4.479  23.629  0.00  0.00    +0.042 A 
ATOM      2  N   UNL     1       7.512   5.415  23.719  0.00  0.00    -0.295 N 
ATOM      3  H   UNL     1       7.267   6.194  24.329  0.00  0.00    +0.187 HD
ATOM      4  N   UNL     1       8.692   4.757  24.056  0.00  0.00    -0.239 N 
ATOM      5  C   UNL     1       8.394   3.382  24.150  0.00  0.00    +0.149 A 
ATOM      6  N   UNL     1       9.201   2.409  24.455  0.00  0.00    -0.144 NA
ATOM      7  C   UNL     1       6.927   3.228  23.829  0.00  0.00    +0.068 A 
ENDROOT
BRANCH   4   8
ATOM      8  C   UNL     1       9.916   5.429  24.325  0.00  0.00    +0.065 A 
ATOM      9  C   UNL     1       9.973   6.442  25.305  0.00  0.00    +0.028 A 
ATOM     10  C   UNL     1      11.166   7.108  25.611  0.00  0.00    +0.002 A 
ATOM     11  C   UNL     1      12.337   6.785  24.936  0.00  0.00    +0.000 A 
ATOM     12  C   UNL     1      12.312   5.796  23.960  0.00  0.00    +0.002 A 
ATOM     13  C   UNL     1      11.116   5.128  23.663  0.00  0.00    +0.028 A 
ENDBRANCH   4   8
BRANCH   1  15
ATOM     14  C   UNL     1       4.359   3.797  22.493  0.00  0.00    +0.017 C 
ATOM     15  C   UNL     1       5.025   4.873  23.372  0.00  0.00    +0.004 C 
ATOM     16  C   UNL     1       4.231   5.009  24.685  0.00  0.00    +0.017 C 
ATOM     17  C   UNL     1       4.932   6.229  22.634  0.00  0.00    +0.017 C 
ENDBRANCH   1  15
BRANCH   6  18
ATOM     18  C   UNL     1       8.681   1.164  24.677  0.00  0.00    +0.329 C 
ATOM     19  N   UNL     1       8.969   0.292  23.652  0.00  0.00    -0.268 N 
ATOM     20  H   UNL     1       9.662   0.640  23.003  0.00  0.00    +0.156 HD
ATOM     21  O   UNL     1       8.122   0.834  25.717  0.00  0.00    -0.250 OA
BRANCH  19  22
ATOM     22  C   UNL     1       8.600  -1.069  23.623  0.00  0.00    +0.035 A 
ATOM     23  C   UNL     1       7.377  -1.425  23.047  0.00  0.00    +0.025 A 
ATOM     24  C   UNL     1       7.034  -2.776  22.898  0.00  0.00    +0.022 A 
ATOM     25  C   UNL     1       7.898  -3.771  23.353  0.00  0.00    +0.041 A 
ATOM     26 CL   UNL     1       7.509  -5.429  23.113  0.00  0.00    -0.084 Cl
ATOM     27  C   UNL     1       9.084  -3.428  23.990  0.00  0.00    +0.022 A 
ATOM     28  C   UNL     1       9.427  -2.081  24.131  0.00  0.00    +0.025 A 
ENDBRANCH  19  22
ENDBRANCH   6  18
TORSDOF 4
ENDMDL
MODEL 4
REMARK VINA RESULT:      -6.4      6.136     11.175
REMARK  Name = 
REMARK  7 active torsions:
REMARK  status: ('A' for Active; 'I' for Inactive)
REMARK    1  A    between atoms: C_1  and  C_2
REMARK    2  A    between atoms: C_2  and  C_3
REMARK    3  A    between atoms: C_2  and  C_4
REMARK    4  A    between atoms: C_2  and  C_5
REMARK    5  A    between atoms: N_8  and  C_9
REMARK    6  A    between atoms: N_11  and  C_12
REMARK    7  A    between atoms: N_19  and  C_21
REMARK                            x       y       z     vdW  Elec       q    Type
REMARK                         _______ _______ _______ _____ _____    ______ ____
ROOT
ATOM      1  C   UNL     1       4.802  -6.184  26.945  0.00  0.00    +0.042 A 
ATOM      2  N   UNL     1       3.617  -6.642  26.358  0.00  0.00    -0.295 N 
ATOM      3  H   UNL     1       2.796  -6.187  26.757  0.00  0.00    +0.187 HD
ATOM      4  N   UNL     1       3.726  -6.544  24.973  0.00  0.00    -0.239 N 
ATOM      5  C   UNL     1       5.012  -6.042  24.688  0.00  0.00    +0.149 A 
ATOM      6  N   UNL     1       5.528  -5.783  23.523  0.00  0.00    -0.144 NA
ATOM      7  C   UNL     1       5.711  -5.847  26.012  0.00  0.00    +0.068 A 
ENDROOT
BRANCH   4   8
ATOM      8  C   UNL     1       2.659  -6.833  24.079  0.00  0.00    +0.065 A 
ATOM      9  C   UNL     1       2.191  -8.156  23.931  0.00  0.00    +0.028 A 
ATOM     10  C   UNL     1       1.127  -8.473  23.077  0.00  0.00    +0.002 A 
ATOM     11  C   UNL     1       0.506  -7.473  22.338  0.00  0.00    +0.000 A 
ATOM     12  C   UNL     1       0.949  -6.162  22.456  0.00  0.00    +0.002 A 
ATOM     13  C   UNL     1       2.009  -5.850  23.318  0.00  0.00    +0.028 A 
ENDBRANCH   4   8
BRANCH   1  15
ATOM     14  C   UNL     1       4.846  -4.586  28.863  0.00  0.00    +0.017 C 
ATOM     15  C   UNL     1       4.986  -6.064  28.453  0.00  0.00    +0.004 C 
ATOM     16  C   UNL     1       3.942  -6.897  29.221  0.00  0.00    +0.017 C 
ATOM     17  C   UNL     1       6.383  -6.560  28.891  0.00  0.00    +0.017 C 
ENDBRANCH   1  15
BRANCH   6  18
ATOM     18  C   UNL     1       6.725  -5.125  23.462  0.00  0.00    +0.329 C 
ATOM     19  N   UNL     1       6.578  -3.766  23.620  0.00  0.00    -0.268 N 
ATOM     20  H   UNL     1       5.659  -3.490  23.940  0.00  0.00    +0.156 HD
ATOM     21  O   UNL     1       7.811  -5.690  23.387  0.00  0.00    -0.250 OA
BRANCH  19  22
ATOM     22  C   UNL     1       7.639  -2.838  23.644  0.00  0.00    +0.035 A 
ATOM     23  C   UNL     1       8.091  -2.297  22.438  0.00  0.00    +0.025 A 
ATOM     24  C   UNL     1       9.062  -1.287  22.437  0.00  0.00    +0.022 A 
ATOM     25  C   UNL     1       9.606  -0.837  23.640  0.00  0.00    +0.041 A 
ATOM     26 CL   UNL     1      10.750   0.446  23.646  0.00  0.00    -0.084 Cl
ATOM     27  C   UNL     1       9.215  -1.416  24.841  0.00  0.00    +0.022 A 
ATOM     28  C   UNL     1       8.241  -2.418  24.840  0.00  0.00    +0.025 A 
ENDBRANCH  19  22
ENDBRANCH   6  18
TORSDOF 4
ENDMDL
MODEL 5
REMARK VINA RESULT:      -6.4      4.087      8.406
REMARK  Name = 
REMARK  7 active torsions:
REMARK  status: ('A' for Active; 'I' for Inactive)
REMARK    1  A    between atoms: C_1  and  C_2
REMARK    2  A    between atoms: C_2  and  C_3
REMARK    3  A    between atoms: C_2  and  C_4
REMARK    4  A    between atoms: C_2  and  C_5
REMARK    5  A    between atoms: N_8  and  C_9
REMARK    6  A    between atoms: N_11  and  C_12
REMARK    7  A    between atoms: N_19  and  C_21
REMARK                            x       y       z     vdW  Elec       q    Type
REMARK                         _______ _______ _______ _____ _____    ______ ____
ROOT
ATOM      1  C   UNL     1       5.629  -2.005  26.386  0.00  0.00    +0.042 A 
ATOM      2  N   UNL     1       5.456  -3.078  25.503  0.00  0.00    -0.295 N 
ATOM      3  H   UNL     1       4.524  -3.082  25.091  0.00  0.00    +0.187 HD
ATOM      4  N   UNL     1       6.503  -3.086  24.584  0.00  0.00    -0.239 N 
ATOM      5  C   UNL     1       7.361  -2.017  24.916  0.00  0.00    +0.149 A 
ATOM      6  N   UNL     1       8.453  -1.653  24.311  0.00  0.00    -0.144 NA
ATOM      7  C   UNL     1       6.773  -1.344  26.132  0.00  0.00    +0.068 A 
ENDROOT
BRANCH   4   8
ATOM      8  C   UNL     1       6.576  -3.987  23.487  0.00  0.00    +0.065 A 
ATOM      9  C   UNL     1       5.852  -3.730  22.304  0.00  0.00    +0.028 A 
ATOM     10  C   UNL     1       5.919  -4.584  21.196  0.00  0.00    +0.002 A 
ATOM     11  C   UNL     1       6.707  -5.728  21.244  0.00  0.00    +0.000 A 
ATOM     12  C   UNL     1       7.427  -6.012  22.399  0.00  0.00    +0.002 A 
ATOM     13  C   UNL     1       7.361  -5.149  23.501  0.00  0.00    +0.028 A 
ENDBRANCH   4   8
BRANCH   1  15
ATOM     14  C   UNL     1       5.077  -0.372  28.192  0.00  0.00    +0.017 C 
ATOM     15  C   UNL     1       4.611  -1.645  27.461  0.00  0.00    +0.004 C 
ATOM     16  C   UNL     1       3.215  -1.395  26.860  0.00  0.00    +0.017 C 
ATOM     17  C   UNL     1       4.468  -2.780  28.503  0.00  0.00    +0.017 C 
ENDBRANCH   1  15
BRANCH   6  18
ATOM     18  C   UNL     1       9.046  -0.476  24.672  0.00  0.00    +0.329 C 
ATOM     19  N   UNL     1       8.711   0.555  23.823  0.00  0.00    -0.268 N 
ATOM     20  H   UNL     1       7.949   0.335  23.197  0.00  0.00    +0.156 HD
ATOM     21  O   UNL     1       9.709  -0.331  25.693  0.00  0.00    -0.250 OA
BRANCH  19  22
ATOM     22  C   UNL     1       9.138   1.891  23.970  0.00  0.00    +0.035 A 
ATOM     23  C   UNL     1      10.370   2.269  23.429  0.00  0.00    +0.025 A 
ATOM     24  C   UNL     1      10.769   3.612  23.454  0.00  0.00    +0.022 A 
ATOM     25  C   UNL     1       9.953   4.574  24.048  0.00  0.00    +0.041 A 
ATOM     26 CL   UNL     1      10.411   6.231  24.024  0.00  0.00    -0.084 Cl
ATOM     27  C   UNL     1       8.759   4.199  24.651  0.00  0.00    +0.022 A 
ATOM     28  C   UNL     1       8.359   2.861  24.618  0.00  0.00    +0.025 A 
ENDBRANCH  19  22
ENDBRANCH   6  18
TORSDOF 4
ENDMDL
MODEL 6
REMARK VINA RESULT:      -6.0      4.755      9.219
REMARK  Name = 
REMARK  7 active torsions:
REMARK  status: ('A' for Active; 'I' for Inactive)
REMARK    1  A    between atoms: C_1  and  C_2
REMARK    2  A    between atoms: C_2  and  C_3
REMARK    3  A    between atoms: C_2  and  C_4
REMARK    4  A    between atoms: C_2  and  C_5
REMARK    5  A    between atoms: N_8  and  C_9
REMARK    6  A    between atoms: N_11  and  C_12
REMARK    7  A    between atoms: N_19  and  C_21
REMARK                            x       y       z     vdW  Elec       q    Type
REMARK                         _______ _______ _______ _____ _____    ______ ____
ROOT
ATOM      1  C   UNL     1       6.013  -4.412  24.012  0.00  0.00    +0.042 A 
ATOM      2  N   UNL     1       5.728  -5.168  25.155  0.00  0.00    -0.295 N 
ATOM      3  H   UNL     1       6.317  -5.998  25.216  0.00  0.00    +0.187 HD
ATOM      4  N   UNL     1       5.767  -4.338  26.273  0.00  0.00    -0.239 N 
ATOM      5  C   UNL     1       6.054  -3.035  25.818  0.00  0.00    +0.149 A 
ATOM      6  N   UNL     1       6.194  -1.955  26.529  0.00  0.00    -0.144 NA
ATOM      7  C   UNL     1       6.176  -3.111  24.316  0.00  0.00    +0.068 A 
ENDROOT
BRANCH   4   8
ATOM      8  C   UNL     1       5.621  -4.811  27.606  0.00  0.00    +0.065 A 
ATOM      9  C   UNL     1       4.674  -4.223  28.472  0.00  0.00    +0.028 A 
ATOM     10  C   UNL     1       4.489  -4.679  29.783  0.00  0.00    +0.002 A 
ATOM     11  C   UNL     1       5.255  -5.731  30.270  0.00  0.00    +0.000 A 
ATOM     12  C   UNL     1       6.201  -6.326  29.444  0.00  0.00    +0.002 A 
ATOM     13  C   UNL     1       6.377  -5.870  28.130  0.00  0.00    +0.028 A 
ENDBRANCH   4   8
BRANCH   1  15
ATOM     14  C   UNL     1       4.997  -6.027  22.403  0.00  0.00    +0.017 C 
ATOM     15  C   UNL     1       6.148  -5.027  22.624  0.00  0.00    +0.004 C 
ATOM     16  C   UNL     1       6.099  -3.954  21.520  0.00  0.00    +0.017 C 
ATOM     17  C   UNL     1       7.487  -5.785  22.472  0.00  0.00    +0.017 C 
ENDBRANCH   1  15
BRANCH   6  18
ATOM     18  C   UNL     1       6.655  -0.820  25.921  0.00  0.00    +0.329 C 
ATOM     19  N   UNL     1       8.025  -0.711  25.997  0.00  0.00    -0.268 N 
ATOM     20  H   UNL     1       8.484  -1.556  26.311  0.00  0.00    +0.156 HD
ATOM     21  O   UNL     1       5.943  -0.048  25.287  0.00  0.00    -0.250 OA
BRANCH  19  22
ATOM     22  C   UNL     1       8.784   0.330  25.424  0.00  0.00    +0.035 A 
ATOM     23  C   UNL     1      10.084   0.057  24.990  0.00  0.00    +0.025 A 
ATOM     24  C   UNL     1      10.821   1.037  24.311  0.00  0.00    +0.022 A 
ATOM     25  C   UNL     1      10.273   2.300  24.094  0.00  0.00    +0.041 A 
ATOM     26 CL   UNL     1      11.151   3.483  23.207  0.00  0.00    -0.084 Cl
ATOM     27  C   UNL     1       9.009   2.605  24.583  0.00  0.00    +0.022 A 
ATOM     28  C   UNL     1       8.273   1.624  25.252  0.00  0.00    +0.025 A 
ENDBRANCH  19  22
ENDBRANCH   6  18
TORSDOF 4
ENDMDL
MODEL 7
REMARK VINA RESULT:      -6.0      4.115      8.411
REMARK  Name = 
REMARK  7 active torsions:
REMARK  status: ('A' for Active; 'I' for Inactive)
REMARK    1  A    between atoms: C_1  and  C_2
REMARK    2  A    between atoms: C_2  and  C_3
REMARK    3  A    between atoms: C_2  and  C_4
REMARK    4  A    between atoms: C_2  and  C_5
REMARK    5  A    between atoms: N_8  and  C_9
REMARK    6  A    between atoms: N_11  and  C_12
REMARK    7  A    between atoms: N_19  and  C_21
REMARK                            x       y       z     vdW  Elec       q    Type
REMARK                         _______ _______ _______ _____ _____    ______ ____
ROOT
ATOM      1  C   UNL     1       4.841  -1.520  25.995  0.00  0.00    +0.042 A 
ATOM      2  N   UNL     1       5.018  -2.806  25.471  0.00  0.00    -0.295 N 
ATOM      3  H   UNL     1       4.127  -3.257  25.265  0.00  0.00    +0.187 HD
ATOM      4  N   UNL     1       5.905  -2.745  24.399  0.00  0.00    -0.239 N 
ATOM      5  C   UNL     1       6.312  -1.401  24.268  0.00  0.00    +0.149 A 
ATOM      6  N   UNL     1       7.125  -0.896  23.388  0.00  0.00    -0.144 NA
ATOM      7  C   UNL     1       5.618  -0.624  25.359  0.00  0.00    +0.068 A 
ENDROOT
BRANCH   4   8
ATOM      8  C   UNL     1       6.224  -3.862  23.580  0.00  0.00    +0.065 A 
ATOM      9  C   UNL     1       7.465  -4.519  23.720  0.00  0.00    +0.028 A 
ATOM     10  C   UNL     1       7.802  -5.635  22.945  0.00  0.00    +0.002 A 
ATOM     11  C   UNL     1       6.909  -6.122  21.998  0.00  0.00    +0.000 A 
ATOM     12  C   UNL     1       5.681  -5.492  21.832  0.00  0.00    +0.002 A 
ATOM     13  C   UNL     1       5.347  -4.380  22.615  0.00  0.00    +0.028 A 
ENDBRANCH   4   8
BRANCH   1  15
ATOM     14  C   UNL     1       3.741   0.316  27.280  0.00  0.00    +0.017 C 
ATOM     15  C   UNL     1       3.859  -1.212  27.118  0.00  0.00    +0.004 C 
ATOM     16  C   UNL     1       2.462  -1.793  26.827  0.00  0.00    +0.017 C 
ATOM     17  C   UNL     1       4.336  -1.809  28.463  0.00  0.00    +0.017 C 
ENDBRANCH   1  15
BRANCH   6  18
ATOM     18  C   UNL     1       7.251   0.463  23.308  0.00  0.00    +0.329 C 
ATOM     19  N   UNL     1       8.287   0.934  24.082  0.00  0.00    -0.268 N 
ATOM     20  H   UNL     1       8.900   0.208  24.428  0.00  0.00    +0.156 HD
ATOM     21  O   UNL     1       6.590   1.166  22.551  0.00  0.00    -0.250 OA
BRANCH  19  22
ATOM     22  C   UNL     1       8.681   2.286  24.165  0.00  0.00    +0.035 A 
ATOM     23  C   UNL     1       8.010   3.131  25.053  0.00  0.00    +0.025 A 
ATOM     24  C   UNL     1       8.452   4.447  25.246  0.00  0.00    +0.022 A 
ATOM     25  C   UNL     1       9.546   4.929  24.529  0.00  0.00    +0.041 A 
ATOM     26 CL   UNL     1      10.129   6.522  24.810  0.00  0.00    -0.084 Cl
ATOM     27  C   UNL     1      10.177   4.120  23.592  0.00  0.00    +0.022 A 
ATOM     28  C   UNL     1       9.740   2.807  23.407  0.00  0.00    +0.025 A 
ENDBRANCH  19  22
ENDBRANCH   6  18
TORSDOF 4
ENDMDL
MODEL 8
REMARK VINA RESULT:      -5.9      2.633      5.227
REMARK  Name = 
REMARK  7 active torsions:
REMARK  status: ('A' for Active; 'I' for Inactive)
REMARK    1  A    between atoms: C_1  and  C_2
REMARK    2  A    between atoms: C_2  and  C_3
REMARK    3  A    between atoms: C_2  and  C_4
REMARK    4  A    between atoms: C_2  and  C_5
REMARK    5  A    between atoms: N_8  and  C_9
REMARK    6  A    between atoms: N_11  and  C_12
REMARK    7  A    between atoms: N_19  and  C_21
REMARK                            x       y       z     vdW  Elec       q    Type
REMARK                         _______ _______ _______ _____ _____    ______ ____
ROOT
ATOM      1  C   UNL     1       8.614   2.100  23.866  0.00  0.00    +0.042 A 
ATOM      2  N   UNL     1       7.797   3.237  23.854  0.00  0.00    -0.295 N 
ATOM      3  H   UNL     1       7.870   3.746  22.975  0.00  0.00    +0.187 HD
ATOM      4  N   UNL     1       6.501   2.871  24.214  0.00  0.00    -0.239 N 
ATOM      5  C   UNL     1       6.515   1.487  24.482  0.00  0.00    +0.149 A 
ATOM      6  N   UNL     1       5.516   0.733  24.837  0.00  0.00    -0.144 NA
ATOM      7  C   UNL     1       7.933   1.014  24.276  0.00  0.00    +0.068 A 
ENDROOT
BRANCH   4   8
ATOM      8  C   UNL     1       5.401   3.772  24.203  0.00  0.00    +0.065 A 
ATOM      9  C   UNL     1       5.076   4.516  25.357  0.00  0.00    +0.028 A 
ATOM     10  C   UNL     1       4.013   5.427  25.374  0.00  0.00    +0.002 A 
ATOM     11  C   UNL     1       3.237   5.614  24.236  0.00  0.00    +0.000 A 
ATOM     12  C   UNL     1       3.527   4.890  23.086  0.00  0.00    +0.002 A 
ATOM     13  C   UNL     1       4.597   3.985  23.073  0.00  0.00    +0.028 A 
ENDBRANCH   4   8
BRANCH   1  15
ATOM     14  C   UNL     1      10.164   1.701  21.950  0.00  0.00    +0.017 C 
ATOM     15  C   UNL     1      10.073   2.125  23.428  0.00  0.00    +0.004 C 
ATOM     16  C   UNL     1      10.689   3.528  23.586  0.00  0.00    +0.017 C 
ATOM     17  C   UNL     1      10.930   1.149  24.268  0.00  0.00    +0.017 C 
ENDBRANCH   1  15
BRANCH   6  18
ATOM     18  C   UNL     1       5.691  -0.622  24.870  0.00  0.00    +0.329 C 
ATOM     19  N   UNL     1       5.862  -1.153  23.612  0.00  0.00    -0.268 N 
ATOM     20  H   UNL     1       6.020  -0.458  22.894  0.00  0.00    +0.156 HD
ATOM     21  O   UNL     1       5.796  -1.272  25.904  0.00  0.00    -0.250 OA
BRANCH  19  22
ATOM     22  C   UNL     1       6.105  -2.515  23.337  0.00  0.00    +0.035 A 
ATOM     23  C   UNL     1       5.017  -3.370  23.145  0.00  0.00    +0.025 A 
ATOM     24  C   UNL     1       5.224  -4.700  22.756  0.00  0.00    +0.022 A 
ATOM     25  C   UNL     1       6.520  -5.187  22.589  0.00  0.00    +0.041 A 
ATOM     26 CL   UNL     1       6.775  -6.799  22.050  0.00  0.00    -0.084 Cl
ATOM     27  C   UNL     1       7.611  -4.365  22.846  0.00  0.00    +0.022 A 
ATOM     28  C   UNL     1       7.402  -3.038  23.226  0.00  0.00    +0.025 A 
ENDBRANCH  19  22
ENDBRANCH   6  18
TORSDOF 4
ENDMDL
MODEL 9
REMARK VINA RESULT:      -5.8      3.559      5.384
REMARK  Name = 
REMARK  7 active torsions:
REMARK  status: ('A' for Active; 'I' for Inactive)
REMARK    1  A    between atoms: C_1  and  C_2
REMARK    2  A    between atoms: C_2  and  C_3
REMARK    3  A    between atoms: C_2  and  C_4
REMARK    4  A    between atoms: C_2  and  C_5
REMARK    5  A    between atoms: N_8  and  C_9
REMARK    6  A    between atoms: N_11  and  C_12
REMARK    7  A    between atoms: N_19  and  C_21
REMARK                            x       y       z     vdW  Elec       q    Type
REMARK                         _______ _______ _______ _____ _____    ______ ____
ROOT
ATOM      1  C   UNL     1       8.492   2.232  24.868  0.00  0.00    +0.042 A 
ATOM      2  N   UNL     1       7.933   2.861  25.988  0.00  0.00    -0.295 N 
ATOM      3  H   UNL     1       7.322   3.632  25.724  0.00  0.00    +0.187 HD
ATOM      4  N   UNL     1       7.343   1.898  26.804  0.00  0.00    -0.239 N 
ATOM      5  C   UNL     1       7.559   0.644  26.198  0.00  0.00    +0.149 A 
ATOM      6  N   UNL     1       7.165  -0.523  26.615  0.00  0.00    -0.144 NA
ATOM      7  C   UNL     1       8.351   0.896  24.939  0.00  0.00    +0.068 A 
ENDROOT
BRANCH   4   8
ATOM      8  C   UNL     1       6.598   2.212  27.974  0.00  0.00    +0.065 A 
ATOM      9  C   UNL     1       7.165   2.024  29.252  0.00  0.00    +0.028 A 
ATOM     10  C   UNL     1       6.467   2.343  30.424  0.00  0.00    +0.002 A 
ATOM     11  C   UNL     1       5.176   2.852  30.350  0.00  0.00    +0.000 A 
ATOM     12  C   UNL     1       4.588   3.042  29.105  0.00  0.00    +0.002 A 
ATOM     13  C   UNL     1       5.294   2.727  27.936  0.00  0.00    +0.028 A 
ENDBRANCH   4   8
BRANCH   1  15
ATOM     14  C   UNL     1       8.297   2.802  22.446  0.00  0.00    +0.017 C 
ATOM     15  C   UNL     1       9.135   3.003  23.722  0.00  0.00    +0.004 C 
ATOM     16  C   UNL     1       9.224   4.510  24.031  0.00  0.00    +0.017 C 
ATOM     17  C   UNL     1      10.572   2.504  23.445  0.00  0.00    +0.017 C 
ENDBRANCH   1  15
BRANCH   6  18
ATOM     18  C   UNL     1       7.314  -1.604  25.791  0.00  0.00    +0.329 C 
ATOM     19  N   UNL     1       6.192  -1.830  25.026  0.00  0.00    -0.268 N 
ATOM     20  H   UNL     1       5.524  -1.071  25.049  0.00  0.00    +0.156 HD
ATOM     21  O   UNL     1       8.361  -2.229  25.668  0.00  0.00    -0.250 OA
BRANCH  19  22
ATOM     22  C   UNL     1       6.069  -2.846  24.056  0.00  0.00    +0.035 A 
ATOM     23  C   UNL     1       6.056  -2.492  22.705  0.00  0.00    +0.025 A 
ATOM     24  C   UNL     1       6.054  -3.484  21.715  0.00  0.00    +0.022 A 
ATOM     25  C   UNL     1       6.032  -4.831  22.074  0.00  0.00    +0.041 A 
ATOM     26 CL   UNL     1       6.092  -6.050  20.864  0.00  0.00    -0.084 Cl
ATOM     27  C   UNL     1       5.974  -5.194  23.415  0.00  0.00    +0.022 A 
ATOM     28  C   UNL     1       5.984  -4.203  24.399  0.00  0.00    +0.025 A 
ENDBRANCH  19  22
ENDBRANCH   6  18
TORSDOF 4
ENDMDL
