MODEL 1
REMARK VINA RESULT:      -7.2      0.000      0.000
REMARK  Name = 
REMARK  7 active torsions:
REMARK  status: ('A' for Active; 'I' for Inactive)
REMARK    1  A    between atoms: C_2  and  C_16
REMARK    2  A    between atoms: C_7  and  C_9
REMARK    3  A    between atoms: C_9  and  O_10
REMARK    4  A    between atoms: O_10  and  C_11
REMARK    5  A    between atoms: N_18  and  C_19
REMARK    6  A    between atoms: C_19  and  C_20
REMARK    7  A    between atoms: C_23  and  C_26
REMARK                            x       y       z     vdW  Elec       q    Type
REMARK                         _______ _______ _______ _____ _____    ______ ____
ROOT
ATOM      1  C   UNL     1       6.414  -1.516  24.446  0.00  0.00    +0.234 C 
ATOM      2  N   UNL     1       5.980  -0.331  23.896  0.00  0.00    -0.310 N 
ATOM      3  H   UNL     1       5.894  -0.216  22.898  0.00  0.00    +0.149 HD
ATOM      4  O   UNL     1       6.593  -1.634  25.657  0.00  0.00    -0.274 OA
ENDROOT
BRANCH   1   5
ATOM      5  C   UNL     1       6.813  -2.640  23.446  0.00  0.00    +0.162 C 
ATOM      6  N   UNL     1       7.857  -3.509  24.012  0.00  0.00    -0.288 N 
ATOM      7  C   UNL     1       9.220  -3.295  24.093  0.00  0.00    +0.242 C 
ATOM      8  O   UNL     1       9.975  -4.198  24.468  0.00  0.00    -0.273 OA
ATOM      9  C   UNL     1       7.324  -4.812  24.375  0.00  0.00    +0.109 C 
ATOM     10  C   UNL     1       5.825  -4.705  24.163  0.00  0.00    +0.021 C 
ATOM     11  C   UNL     1       5.705  -3.637  23.086  0.00  0.00    +0.033 C 
BRANCH   7  12
ATOM     12  C   UNL     1       9.781  -1.922  23.677  0.00  0.00    +0.256 C 
BRANCH  12  13
ATOM     13  O   UNL     1       9.765  -0.900  24.672  0.00  0.00    -0.367 OA
BRANCH  13  14
ATOM     14  C   UNL     1       9.565   0.413  24.162  0.00  0.00    +0.119 C 
ATOM     15  C   UNL     1       9.339   0.357  22.649  0.00  0.00    +0.031 C 
ATOM     16  C   UNL     1       9.968   1.627  22.074  0.00  0.00    +0.003 C 
ATOM     17  C   UNL     1      10.568   2.377  23.255  0.00  0.00    +0.003 C 
ATOM     18  C   UNL     1      10.792   1.307  24.305  0.00  0.00    +0.031 C 
ENDBRANCH  13  14
ENDBRANCH  12  13
ENDBRANCH   7  12
ENDBRANCH   1   5
BRANCH   2  19
ATOM     19  C   UNL     1       5.720   0.843  24.706  0.00  0.00    +0.139 C 
BRANCH  19  20
ATOM     20  C   UNL     1       6.359   2.056  24.078  0.00  0.00    -0.030 A 
ATOM     21  C   UNL     1       6.227   2.317  22.706  0.00  0.00    +0.006 A 
ATOM     22  C   UNL     1       6.760   3.487  22.152  0.00  0.00    +0.016 A 
ATOM     23  C   UNL     1       7.423   4.412  22.968  0.00  0.00    +0.065 A 
ATOM     24  C   UNL     1       7.575   4.146  24.332  0.00  0.00    +0.016 A 
ATOM     25  C   UNL     1       7.039   2.979  24.883  0.00  0.00    +0.006 A 
BRANCH  23  26
ATOM     26  C   UNL     1       7.945   5.678  22.382  0.00  0.00    +0.308 C 
ATOM     27  N   UNL     1       7.386   6.274  21.376  0.00  0.00    -0.099 NA
ATOM     28  H   UNL     1       6.588   5.742  21.021  0.00  0.00    +0.363 HD
ATOM     29  N   UNL     1       9.061   6.272  22.893  0.00  0.00    -0.247 N 
ATOM     30  H   UNL     1       9.163   7.213  22.517  0.00  0.00    +0.288 HD
ATOM     31  H   UNL     1       9.152   6.253  23.900  0.00  0.00    +0.288 HD
ENDBRANCH  23  26
ENDBRANCH  19  20
ENDBRANCH   2  19
TORSDOF 7
ENDMDL
MODEL 2
REMARK VINA RESULT:      -6.6      3.248      7.766
REMARK  Name = 
REMARK  7 active torsions:
REMARK  status: ('A' for Active; 'I' for Inactive)
REMARK    1  A    between atoms: C_2  and  C_16
REMARK    2  A    between atoms: C_7  and  C_9
REMARK    3  A    between atoms: C_9  and  O_10
REMARK    4  A    between atoms: O_10  and  C_11
REMARK    5  A    between atoms: N_18  and  C_19
REMARK    6  A    between atoms: C_19  and  C_20
REMARK    7  A    between atoms: C_23  and  C_26
REMARK                            x       y       z     vdW  Elec       q    Type
REMARK                         _______ _______ _______ _____ _____    ______ ____
ROOT
ATOM      1  C   UNL     1       8.696  -0.170  25.424  0.00  0.00    +0.234 C 
ATOM      2  N   UNL     1       8.236  -1.308  26.047  0.00  0.00    -0.310 N 
ATOM      3  H   UNL     1       8.734  -2.182  25.977  0.00  0.00    +0.149 HD
ATOM      4  O   UNL     1       8.052   0.878  25.443  0.00  0.00    -0.274 OA
ENDROOT
BRANCH   1   5
ATOM      5  C   UNL     1       9.986  -0.321  24.566  0.00  0.00    +0.162 C 
ATOM      6  N   UNL     1       9.695  -0.153  23.133  0.00  0.00    -0.288 N 
ATOM      7  C   UNL     1       9.166  -1.065  22.239  0.00  0.00    +0.242 C 
ATOM      8  O   UNL     1       9.124  -0.805  21.032  0.00  0.00    -0.273 OA
ATOM      9  C   UNL     1      10.201   1.114  22.633  0.00  0.00    +0.109 C 
ATOM     10  C   UNL     1      10.708   1.854  23.858  0.00  0.00    +0.021 C 
ATOM     11  C   UNL     1      11.077   0.727  24.812  0.00  0.00    +0.033 C 
BRANCH   7  12
ATOM     12  C   UNL     1       8.661  -2.420  22.771  0.00  0.00    +0.256 C 
BRANCH  12  13
ATOM     13  O   UNL     1       7.319  -2.453  23.252  0.00  0.00    -0.367 OA
BRANCH  13  14
ATOM     14  C   UNL     1       6.539  -3.527  22.741  0.00  0.00    +0.119 C 
ATOM     15  C   UNL     1       5.156  -3.528  23.399  0.00  0.00    +0.031 C 
ATOM     16  C   UNL     1       4.742  -4.995  23.524  0.00  0.00    +0.003 C 
ATOM     17  C   UNL     1       5.898  -5.813  22.965  0.00  0.00    +0.003 C 
ATOM     18  C   UNL     1       7.100  -4.899  23.094  0.00  0.00    +0.031 C 
ENDBRANCH  13  14
ENDBRANCH  12  13
ENDBRANCH   7  12
ENDBRANCH   1   5
BRANCH   2  19
ATOM     19  C   UNL     1       6.970  -1.340  26.752  0.00  0.00    +0.139 C 
BRANCH  19  20
ATOM     20  C   UNL     1       6.447  -2.754  26.809  0.00  0.00    -0.030 A 
ATOM     21  C   UNL     1       7.306  -3.852  26.652  0.00  0.00    +0.006 A 
ATOM     22  C   UNL     1       6.819  -5.157  26.785  0.00  0.00    +0.016 A 
ATOM     23  C   UNL     1       5.469  -5.377  27.085  0.00  0.00    +0.065 A 
ATOM     24  C   UNL     1       4.605  -4.287  27.221  0.00  0.00    +0.016 A 
ATOM     25  C   UNL     1       5.094  -2.984  27.092  0.00  0.00    +0.006 A 
BRANCH  23  26
ATOM     26  C   UNL     1       4.967  -6.767  27.274  0.00  0.00    +0.308 C 
ATOM     27  N   UNL     1       4.169  -7.350  26.436  0.00  0.00    -0.099 NA
ATOM     28  H   UNL     1       3.900  -6.721  25.675  0.00  0.00    +0.363 HD
ATOM     29  N   UNL     1       5.336  -7.497  28.365  0.00  0.00    -0.247 N 
ATOM     30  H   UNL     1       5.074  -8.473  28.242  0.00  0.00    +0.288 HD
ATOM     31  H   UNL     1       6.298  -7.396  28.662  0.00  0.00    +0.288 HD
ENDBRANCH  23  26
ENDBRANCH  19  20
ENDBRANCH   2  19
TORSDOF 7
ENDMDL
MODEL 3
REMARK VINA RESULT:      -6.3      2.867      7.662
REMARK  Name = 
REMARK  7 active torsions:
REMARK  status: ('A' for Active; 'I' for Inactive)
REMARK    1  A    between atoms: C_2  and  C_16
REMARK    2  A    between atoms: C_7  and  C_9
REMARK    3  A    between atoms: C_9  and  O_10
REMARK    4  A    between atoms: O_10  and  C_11
REMARK    5  A    between atoms: N_18  and  C_19
REMARK    6  A    between atoms: C_19  and  C_20
REMARK    7  A    between atoms: C_23  and  C_26
REMARK                            x       y       z     vdW  Elec       q    Type
REMARK                         _______ _______ _______ _____ _____    ______ ____
ROOT
ATOM      1  C   UNL     1       8.083  -1.333  22.300  0.00  0.00    +0.234 C 
ATOM      2  N   UNL     1       7.068  -2.184  22.674  0.00  0.00    -0.310 N 
ATOM      3  H   UNL     1       6.332  -1.883  23.294  0.00  0.00    +0.149 HD
ATOM      4  O   UNL     1       9.023  -1.719  21.607  0.00  0.00    -0.274 OA
ENDROOT
BRANCH   1   5
ATOM      5  C   UNL     1       8.062   0.091  22.928  0.00  0.00    +0.162 C 
ATOM      6  N   UNL     1       9.318   0.377  23.641  0.00  0.00    -0.288 N 
ATOM      7  C   UNL     1       9.711  -0.018  24.905  0.00  0.00    +0.242 C 
ATOM      8  O   UNL     1      10.743   0.436  25.410  0.00  0.00    -0.273 OA
ATOM      9  C   UNL     1      10.134   1.335  22.913  0.00  0.00    +0.109 C 
ATOM     10  C   UNL     1       9.419   1.550  21.592  0.00  0.00    +0.021 C 
ATOM     11  C   UNL     1       7.966   1.256  21.936  0.00  0.00    +0.033 C 
BRANCH   7  12
ATOM     12  C   UNL     1       8.824  -1.009  25.683  0.00  0.00    +0.256 C 
BRANCH  12  13
ATOM     13  O   UNL     1       8.938  -2.384  25.321  0.00  0.00    -0.367 OA
BRANCH  13  14
ATOM     14  C   UNL     1       8.485  -3.292  26.317  0.00  0.00    +0.119 C 
ATOM     15  C   UNL     1       8.576  -4.729  25.795  0.00  0.00    +0.031 C 
ATOM     16  C   UNL     1       7.398  -5.485  26.411  0.00  0.00    +0.003 C 
ATOM     17  C   UNL     1       6.635  -4.471  27.253  0.00  0.00    +0.003 C 
ATOM     18  C   UNL     1       7.007  -3.130  26.653  0.00  0.00    +0.031 C 
ENDBRANCH  13  14
ENDBRANCH  12  13
ENDBRANCH   7  12
ENDBRANCH   1   5
BRANCH   2  19
ATOM     19  C   UNL     1       7.051  -3.579  22.282  0.00  0.00    +0.139 C 
BRANCH  19  20
ATOM     20  C   UNL     1       5.959  -4.311  23.023  0.00  0.00    -0.030 A 
ATOM     21  C   UNL     1       5.939  -5.712  23.086  0.00  0.00    +0.006 A 
ATOM     22  C   UNL     1       4.964  -6.373  23.842  0.00  0.00    +0.016 A 
ATOM     23  C   UNL     1       4.005  -5.639  24.549  0.00  0.00    +0.065 A 
ATOM     24  C   UNL     1       4.008  -4.243  24.472  0.00  0.00    +0.016 A 
ATOM     25  C   UNL     1       4.985  -3.584  23.720  0.00  0.00    +0.006 A 
BRANCH  23  26
ATOM     26  C   UNL     1       3.000  -6.346  25.391  0.00  0.00    +0.308 C 
ATOM     27  N   UNL     1       1.803  -5.894  25.592  0.00  0.00    -0.099 NA
ATOM     28  H   UNL     1       1.666  -4.984  25.145  0.00  0.00    +0.363 HD
ATOM     29  N   UNL     1       3.310  -7.526  26.000  0.00  0.00    -0.247 N 
ATOM     30  H   UNL     1       2.468  -7.969  26.363  0.00  0.00    +0.288 HD
ATOM     31  H   UNL     1       3.875  -8.169  25.461  0.00  0.00    +0.288 HD
ENDBRANCH  23  26
ENDBRANCH  19  20
ENDBRANCH   2  19
TORSDOF 7
ENDMDL
MODEL 4
REMARK VINA RESULT:      -6.2      2.394      7.815
REMARK  Name = 
REMARK  7 active torsions:
REMARK  status: ('A' for Active; 'I' for Inactive)
REMARK    1  A    between atoms: C_2  and  C_16
REMARK    2  A    between atoms: C_7  and  C_9
REMARK    3  A    between atoms: C_9  and  O_10
REMARK    4  A    between atoms: O_10  and  C_11
REMARK    5  A    between atoms: N_18  and  C_19
REMARK    6  A    between atoms: C_19  and  C_20
REMARK    7  A    between atoms: C_23  and  C_26
REMARK                            x       y       z     vdW  Elec       q    Type
REMARK                         _______ _______ _______ _____ _____    ______ ____
ROOT
ATOM      1  C   UNL     1       9.395  -0.826  23.801  0.00  0.00    +0.234 C 
ATOM      2  N   UNL     1       9.190  -2.165  23.558  0.00  0.00    -0.310 N 
ATOM      3  H   UNL     1       8.608  -2.476  22.795  0.00  0.00    +0.149 HD
ATOM      4  O   UNL     1      10.040  -0.441  24.774  0.00  0.00    -0.274 OA
ENDROOT
BRANCH   1   5
ATOM      5  C   UNL     1       8.640   0.172  22.874  0.00  0.00    +0.162 C 
ATOM      6  N   UNL     1       8.391   1.451  23.559  0.00  0.00    -0.288 N 
ATOM      7  C   UNL     1       7.403   1.772  24.470  0.00  0.00    +0.242 C 
ATOM      8  O   UNL     1       7.248   2.941  24.839  0.00  0.00    -0.273 OA
ATOM      9  C   UNL     1       9.244   2.506  23.040  0.00  0.00    +0.109 C 
ATOM     10  C   UNL     1      10.192   1.817  22.075  0.00  0.00    +0.021 C 
ATOM     11  C   UNL     1       9.392   0.609  21.611  0.00  0.00    +0.033 C 
BRANCH   7  12
ATOM     12  C   UNL     1       6.481   0.653  24.992  0.00  0.00    +0.256 C 
BRANCH  12  13
ATOM     13  O   UNL     1       6.974  -0.119  26.085  0.00  0.00    -0.367 OA
BRANCH  13  14
ATOM     14  C   UNL     1       6.401  -1.416  26.193  0.00  0.00    +0.119 C 
ATOM     15  C   UNL     1       5.581  -1.732  24.939  0.00  0.00    +0.031 C 
ATOM     16  C   UNL     1       4.400  -2.585  25.402  0.00  0.00    +0.003 C 
ATOM     17  C   UNL     1       4.541  -2.724  26.912  0.00  0.00    +0.003 C 
ATOM     18  C   UNL     1       5.382  -1.532  27.321  0.00  0.00    +0.031 C 
ENDBRANCH  13  14
ENDBRANCH  12  13
ENDBRANCH   7  12
ENDBRANCH   1   5
BRANCH   2  19
ATOM     19  C   UNL     1       9.711  -3.194  24.435  0.00  0.00    +0.139 C 
BRANCH  19  20
ATOM     20  C   UNL     1       8.594  -4.098  24.892  0.00  0.00    -0.030 A 
ATOM     21  C   UNL     1       8.448  -4.444  26.243  0.00  0.00    +0.006 A 
ATOM     22  C   UNL     1       7.361  -5.220  26.663  0.00  0.00    +0.016 A 
ATOM     23  C   UNL     1       6.405  -5.650  25.736  0.00  0.00    +0.065 A 
ATOM     24  C   UNL     1       6.557  -5.326  24.385  0.00  0.00    +0.016 A 
ATOM     25  C   UNL     1       7.641  -4.547  23.968  0.00  0.00    +0.006 A 
BRANCH  23  26
ATOM     26  C   UNL     1       5.224  -6.435  26.196  0.00  0.00    +0.308 C 
ATOM     27  N   UNL     1       5.202  -7.085  27.316  0.00  0.00    -0.099 NA
ATOM     28  H   UNL     1       6.100  -7.026  27.802  0.00  0.00    +0.363 HD
ATOM     29  N   UNL     1       4.095  -6.502  25.435  0.00  0.00    -0.247 N 
ATOM     30  H   UNL     1       3.329  -6.901  25.974  0.00  0.00    +0.288 HD
ATOM     31  H   UNL     1       3.825  -5.648  24.965  0.00  0.00    +0.288 HD
ENDBRANCH  23  26
ENDBRANCH  19  20
ENDBRANCH   2  19
TORSDOF 7
ENDMDL
MODEL 5
REMARK VINA RESULT:      -6.1      2.113      3.811
REMARK  Name = 
REMARK  7 active torsions:
REMARK  status: ('A' for Active; 'I' for Inactive)
REMARK    1  A    between atoms: C_2  and  C_16
REMARK    2  A    between atoms: C_7  and  C_9
REMARK    3  A    between atoms: C_9  and  O_10
REMARK    4  A    between atoms: O_10  and  C_11
REMARK    5  A    between atoms: N_18  and  C_19
REMARK    6  A    between atoms: C_19  and  C_20
REMARK    7  A    between atoms: C_23  and  C_26
REMARK                            x       y       z     vdW  Elec       q    Type
REMARK                         _______ _______ _______ _____ _____    ______ ____
ROOT
ATOM      1  C   UNL     1       8.811  -3.008  23.913  0.00  0.00    +0.234 C 
ATOM      2  N   UNL     1       9.872  -2.161  23.682  0.00  0.00    -0.310 N 
ATOM      3  H   UNL     1      10.537  -1.943  24.408  0.00  0.00    +0.149 HD
ATOM      4  O   UNL     1       7.955  -3.215  23.054  0.00  0.00    -0.274 OA
ENDROOT
BRANCH   1   5
ATOM      5  C   UNL     1       8.668  -3.562  25.361  0.00  0.00    +0.162 C 
ATOM      6  N   UNL     1       7.307  -4.067  25.605  0.00  0.00    -0.288 N 
ATOM      7  C   UNL     1       6.159  -3.362  25.914  0.00  0.00    +0.242 C 
ATOM      8  O   UNL     1       5.126  -3.959  26.234  0.00  0.00    -0.273 OA
ATOM      9  C   UNL     1       7.282  -5.519  25.661  0.00  0.00    +0.109 C 
ATOM     10  C   UNL     1       8.683  -5.959  25.280  0.00  0.00    +0.021 C 
ATOM     11  C   UNL     1       9.542  -4.775  25.700  0.00  0.00    +0.033 C 
BRANCH   7  12
ATOM     12  C   UNL     1       6.202  -1.822  25.884  0.00  0.00    +0.256 C 
BRANCH  12  13
ATOM     13  O   UNL     1       5.891  -1.202  24.637  0.00  0.00    -0.367 OA
BRANCH  13  14
ATOM     14  C   UNL     1       6.625  -0.012  24.375  0.00  0.00    +0.119 C 
ATOM     15  C   UNL     1       7.601   0.264  25.522  0.00  0.00    +0.031 C 
ATOM     16  C   UNL     1       7.683   1.785  25.658  0.00  0.00    +0.003 C 
ATOM     17  C   UNL     1       6.737   2.358  24.610  0.00  0.00    +0.003 C 
ATOM     18  C   UNL     1       5.753   1.237  24.342  0.00  0.00    +0.031 C 
ENDBRANCH  13  14
ENDBRANCH  12  13
ENDBRANCH   7  12
ENDBRANCH   1   5
BRANCH   2  19
ATOM     19  C   UNL     1      10.036  -1.460  22.424  0.00  0.00    +0.139 C 
BRANCH  19  20
ATOM     20  C   UNL     1      10.155   0.023  22.670  0.00  0.00    -0.030 A 
ATOM     21  C   UNL     1       9.515   0.951  21.835  0.00  0.00    +0.006 A 
ATOM     22  C   UNL     1       9.571   2.319  22.122  0.00  0.00    +0.016 A 
ATOM     23  C   UNL     1      10.261   2.773  23.253  0.00  0.00    +0.065 A 
ATOM     24  C   UNL     1      10.918   1.854  24.076  0.00  0.00    +0.016 A 
ATOM     25  C   UNL     1      10.857   0.488  23.791  0.00  0.00    +0.006 A 
BRANCH  23  26
ATOM     26  C   UNL     1      10.275   4.227  23.580  0.00  0.00    +0.308 C 
ATOM     27  N   UNL     1      11.248   5.015  23.248  0.00  0.00    -0.099 NA
ATOM     28  H   UNL     1      12.004   4.505  22.786  0.00  0.00    +0.363 HD
ATOM     29  N   UNL     1       9.241   4.796  24.262  0.00  0.00    -0.247 N 
ATOM     30  H   UNL     1       9.311   5.811  24.227  0.00  0.00    +0.288 HD
ATOM     31  H   UNL     1       8.315   4.471  24.016  0.00  0.00    +0.288 HD
ENDBRANCH  23  26
ENDBRANCH  19  20
ENDBRANCH   2  19
TORSDOF 7
ENDMDL
MODEL 6
REMARK VINA RESULT:      -6.0      2.328      7.152
REMARK  Name = 
REMARK  7 active torsions:
REMARK  status: ('A' for Active; 'I' for Inactive)
REMARK    1  A    between atoms: C_2  and  C_16
REMARK    2  A    between atoms: C_7  and  C_9
REMARK    3  A    between atoms: C_9  and  O_10
REMARK    4  A    between atoms: O_10  and  C_11
REMARK    5  A    between atoms: N_18  and  C_19
REMARK    6  A    between atoms: C_19  and  C_20
REMARK    7  A    between atoms: C_23  and  C_26
REMARK                            x       y       z     vdW  Elec       q    Type
REMARK                         _______ _______ _______ _____ _____    ______ ____
ROOT
ATOM      1  C   UNL     1       7.214   2.183  24.559  0.00  0.00    +0.234 C 
ATOM      2  N   UNL     1       6.780   1.033  25.178  0.00  0.00    -0.310 N 
ATOM      3  H   UNL     1       7.091   0.787  26.106  0.00  0.00    +0.149 HD
ATOM      4  O   UNL     1       6.899   2.447  23.400  0.00  0.00    -0.274 OA
ENDROOT
BRANCH   1   5
ATOM      5  C   UNL     1       8.244   3.048  25.344  0.00  0.00    +0.162 C 
ATOM      6  N   UNL     1       9.188   3.710  24.430  0.00  0.00    -0.288 N 
ATOM      7  C   UNL     1      10.310   3.192  23.811  0.00  0.00    +0.242 C 
ATOM      8  O   UNL     1      11.079   3.931  23.188  0.00  0.00    -0.273 OA
ATOM      9  C   UNL     1       8.926   5.137  24.337  0.00  0.00    +0.109 C 
ATOM     10  C   UNL     1       7.646   5.360  25.122  0.00  0.00    +0.021 C 
ATOM     11  C   UNL     1       7.661   4.225  26.135  0.00  0.00    +0.033 C 
BRANCH   7  12
ATOM     12  C   UNL     1      10.600   1.684  23.941  0.00  0.00    +0.256 C 
BRANCH  12  13
ATOM     13  O   UNL     1      10.325   0.883  22.793  0.00  0.00    -0.367 OA
BRANCH  13  14
ATOM     14  C   UNL     1       9.473  -0.229  23.044  0.00  0.00    +0.119 C 
ATOM     15  C   UNL     1      10.070  -1.105  24.149  0.00  0.00    +0.031 C 
ATOM     16  C   UNL     1       9.695  -2.547  23.802  0.00  0.00    +0.003 C 
ATOM     17  C   UNL     1       8.915  -2.481  22.495  0.00  0.00    +0.003 C 
ATOM     18  C   UNL     1       9.360  -1.180  21.858  0.00  0.00    +0.031 C 
ENDBRANCH  13  14
ENDBRANCH  12  13
ENDBRANCH   7  12
ENDBRANCH   1   5
BRANCH   2  19
ATOM     19  C   UNL     1       5.940   0.066  24.501  0.00  0.00    +0.139 C 
BRANCH  19  20
ATOM     20  C   UNL     1       6.287  -1.330  24.957  0.00  0.00    -0.030 A 
ATOM     21  C   UNL     1       7.019  -1.547  26.133  0.00  0.00    +0.006 A 
ATOM     22  C   UNL     1       7.266  -2.848  26.585  0.00  0.00    +0.016 A 
ATOM     23  C   UNL     1       6.775  -3.946  25.868  0.00  0.00    +0.065 A 
ATOM     24  C   UNL     1       6.063  -3.735  24.684  0.00  0.00    +0.016 A 
ATOM     25  C   UNL     1       5.813  -2.435  24.237  0.00  0.00    +0.006 A 
BRANCH  23  26
ATOM     26  C   UNL     1       6.999  -5.328  26.379  0.00  0.00    +0.308 C 
ATOM     27  N   UNL     1       8.162  -5.765  26.745  0.00  0.00    -0.099 NA
ATOM     28  H   UNL     1       8.892  -5.065  26.592  0.00  0.00    +0.363 HD
ATOM     29  N   UNL     1       5.962  -6.207  26.481  0.00  0.00    -0.247 N 
ATOM     30  H   UNL     1       6.242  -7.021  27.025  0.00  0.00    +0.288 HD
ATOM     31  H   UNL     1       5.083  -5.822  26.799  0.00  0.00    +0.288 HD
ENDBRANCH  23  26
ENDBRANCH  19  20
ENDBRANCH   2  19
TORSDOF 7
ENDMDL
MODEL 7
REMARK VINA RESULT:      -5.8      1.633      3.699
REMARK  Name = 
REMARK  7 active torsions:
REMARK  status: ('A' for Active; 'I' for Inactive)
REMARK    1  A    between atoms: C_2  and  C_16
REMARK    2  A    between atoms: C_7  and  C_9
REMARK    3  A    between atoms: C_9  and  O_10
REMARK    4  A    between atoms: O_10  and  C_11
REMARK    5  A    between atoms: N_18  and  C_19
REMARK    6  A    between atoms: C_19  and  C_20
REMARK    7  A    between atoms: C_23  and  C_26
REMARK                            x       y       z     vdW  Elec       q    Type
REMARK                         _______ _______ _______ _____ _____    ______ ____
ROOT
ATOM      1  C   UNL     1       9.167  -3.102  23.787  0.00  0.00    +0.234 C 
ATOM      2  N   UNL     1       8.926  -2.065  22.916  0.00  0.00    -0.310 N 
ATOM      3  H   UNL     1       7.991  -1.848  22.605  0.00  0.00    +0.149 HD
ATOM      4  O   UNL     1      10.312  -3.418  24.108  0.00  0.00    -0.274 OA
ENDROOT
BRANCH   1   5
ATOM      5  C   UNL     1       7.934  -3.949  24.219  0.00  0.00    +0.162 C 
ATOM      6  N   UNL     1       6.686  -3.182  24.073  0.00  0.00    -0.288 N 
ATOM      7  C   UNL     1       6.146  -2.229  24.915  0.00  0.00    +0.242 C 
ATOM      8  O   UNL     1       5.009  -1.788  24.714  0.00  0.00    -0.273 OA
ATOM      9  C   UNL     1       5.898  -3.660  22.949  0.00  0.00    +0.109 C 
ATOM     10  C   UNL     1       6.773  -4.688  22.255  0.00  0.00    +0.021 C 
ATOM     11  C   UNL     1       7.659  -5.202  23.380  0.00  0.00    +0.033 C 
BRANCH   7  12
ATOM     12  C   UNL     1       6.973  -1.751  26.123  0.00  0.00    +0.256 C 
BRANCH  12  13
ATOM     13  O   UNL     1       8.025  -0.827  25.848  0.00  0.00    -0.367 OA
BRANCH  13  14
ATOM     14  C   UNL     1       7.768   0.502  26.286  0.00  0.00    +0.119 C 
ATOM     15  C   UNL     1       6.967   0.477  27.591  0.00  0.00    +0.031 C 
ATOM     16  C   UNL     1       6.040   1.693  27.547  0.00  0.00    +0.003 C 
ATOM     17  C   UNL     1       6.300   2.380  26.214  0.00  0.00    +0.003 C 
ATOM     18  C   UNL     1       6.872   1.286  25.334  0.00  0.00    +0.031 C 
ENDBRANCH  13  14
ENDBRANCH  12  13
ENDBRANCH   7  12
ENDBRANCH   1   5
BRANCH   2  19
ATOM     19  C   UNL     1       9.999  -1.295  22.321  0.00  0.00    +0.139 C 
BRANCH  19  20
ATOM     20  C   UNL     1       9.790   0.175  22.589  0.00  0.00    -0.030 A 
ATOM     21  C   UNL     1       8.914   0.938  21.804  0.00  0.00    +0.006 A 
ATOM     22  C   UNL     1       8.672   2.281  22.114  0.00  0.00    +0.016 A 
ATOM     23  C   UNL     1       9.298   2.873  23.217  0.00  0.00    +0.065 A 
ATOM     24  C   UNL     1      10.189   2.122  23.990  0.00  0.00    +0.016 A 
ATOM     25  C   UNL     1      10.426   0.780  23.682  0.00  0.00    +0.006 A 
BRANCH  23  26
ATOM     26  C   UNL     1       8.999   4.289  23.571  0.00  0.00    +0.308 C 
ATOM     27  N   UNL     1       9.175   4.772  24.760  0.00  0.00    -0.099 NA
ATOM     28  H   UNL     1       9.492   4.052  25.414  0.00  0.00    +0.363 HD
ATOM     29  N   UNL     1       8.514   5.152  22.634  0.00  0.00    -0.247 N 
ATOM     30  H   UNL     1       8.555   6.108  22.979  0.00  0.00    +0.288 HD
ATOM     31  H   UNL     1       8.908   5.066  21.705  0.00  0.00    +0.288 HD
ENDBRANCH  23  26
ENDBRANCH  19  20
ENDBRANCH   2  19
TORSDOF 7
ENDMDL
MODEL 8
REMARK VINA RESULT:      -5.8      2.584      7.110
REMARK  Name = 
REMARK  7 active torsions:
REMARK  status: ('A' for Active; 'I' for Inactive)
REMARK    1  A    between atoms: C_2  and  C_16
REMARK    2  A    between atoms: C_7  and  C_9
REMARK    3  A    between atoms: C_9  and  O_10
REMARK    4  A    between atoms: O_10  and  C_11
REMARK    5  A    between atoms: N_18  and  C_19
REMARK    6  A    between atoms: C_19  and  C_20
REMARK    7  A    between atoms: C_23  and  C_26
REMARK                            x       y       z     vdW  Elec       q    Type
REMARK                         _______ _______ _______ _____ _____    ______ ____
ROOT
ATOM      1  C   UNL     1       6.506   1.936  23.498  0.00  0.00    +0.234 C 
ATOM      2  N   UNL     1       6.644   0.656  23.984  0.00  0.00    -0.310 N 
ATOM      3  H   UNL     1       6.821   0.482  24.962  0.00  0.00    +0.149 HD
ATOM      4  O   UNL     1       6.368   2.156  22.296  0.00  0.00    -0.274 OA
ENDROOT
BRANCH   1   5
ATOM      5  C   UNL     1       6.692   3.092  24.524  0.00  0.00    +0.162 C 
ATOM      6  N   UNL     1       6.747   4.399  23.848  0.00  0.00    -0.288 N 
ATOM      7  C   UNL     1       7.808   4.999  23.197  0.00  0.00    +0.242 C 
ATOM      8  O   UNL     1       7.724   6.169  22.811  0.00  0.00    -0.273 OA
ATOM      9  C   UNL     1       5.532   5.164  24.073  0.00  0.00    +0.109 C 
ATOM     10  C   UNL     1       4.596   4.223  24.808  0.00  0.00    +0.021 C 
ATOM     11  C   UNL     1       5.550   3.282  25.529  0.00  0.00    +0.033 C 
BRANCH   7  12
ATOM     12  C   UNL     1       9.105   4.192  22.990  0.00  0.00    +0.256 C 
BRANCH  12  13
ATOM     13  O   UNL     1       9.578   3.452  24.114  0.00  0.00    -0.367 OA
BRANCH  13  14
ATOM     14  C   UNL     1      10.362   2.314  23.779  0.00  0.00    +0.119 C 
ATOM     15  C   UNL     1      10.006   1.830  22.370  0.00  0.00    +0.031 C 
ATOM     16  C   UNL     1      10.143   0.307  22.392  0.00  0.00    +0.003 C 
ATOM     17  C   UNL     1      10.548  -0.064  23.812  0.00  0.00    +0.003 C 
ATOM     18  C   UNL     1      10.068   1.101  24.655  0.00  0.00    +0.031 C 
ENDBRANCH  13  14
ENDBRANCH  12  13
ENDBRANCH   7  12
ENDBRANCH   1   5
BRANCH   2  19
ATOM     19  C   UNL     1       6.643  -0.502  23.112  0.00  0.00    +0.139 C 
BRANCH  19  20
ATOM     20  C   UNL     1       7.337  -1.658  23.788  0.00  0.00    -0.030 A 
ATOM     21  C   UNL     1       7.504  -1.690  25.180  0.00  0.00    +0.006 A 
ATOM     22  C   UNL     1       8.080  -2.805  25.800  0.00  0.00    +0.016 A 
ATOM     23  C   UNL     1       8.486  -3.904  25.033  0.00  0.00    +0.065 A 
ATOM     24  C   UNL     1       8.341  -3.868  23.643  0.00  0.00    +0.016 A 
ATOM     25  C   UNL     1       7.762  -2.755  23.027  0.00  0.00    +0.006 A 
BRANCH  23  26
ATOM     26  C   UNL     1       9.053  -5.108  25.702  0.00  0.00    +0.308 C 
ATOM     27  N   UNL     1      10.193  -5.628  25.372  0.00  0.00    -0.099 NA
ATOM     28  H   UNL     1      10.612  -5.140  24.577  0.00  0.00    +0.363 HD
ATOM     29  N   UNL     1       8.377  -5.725  26.712  0.00  0.00    -0.247 N 
ATOM     30  H   UNL     1       8.981  -6.394  27.185  0.00  0.00    +0.288 HD
ATOM     31  H   UNL     1       7.900  -5.116  27.364  0.00  0.00    +0.288 HD
ENDBRANCH  23  26
ENDBRANCH  19  20
ENDBRANCH   2  19
TORSDOF 7
ENDMDL
MODEL 9
REMARK VINA RESULT:      -5.7      2.676      8.136
REMARK  Name = 
REMARK  7 active torsions:
REMARK  status: ('A' for Active; 'I' for Inactive)
REMARK    1  A    between atoms: C_2  and  C_16
REMARK    2  A    between atoms: C_7  and  C_9
REMARK    3  A    between atoms: C_9  and  O_10
REMARK    4  A    between atoms: O_10  and  C_11
REMARK    5  A    between atoms: N_18  and  C_19
REMARK    6  A    between atoms: C_19  and  C_20
REMARK    7  A    between atoms: C_23  and  C_26
REMARK                            x       y       z     vdW  Elec       q    Type
REMARK                         _______ _______ _______ _____ _____    ______ ____
ROOT
ATOM      1  C   UNL     1       8.841  -1.572  22.888  0.00  0.00    +0.234 C 
ATOM      2  N   UNL     1       7.907  -2.565  23.075  0.00  0.00    -0.310 N 
ATOM      3  H   UNL     1       6.934  -2.419  22.852  0.00  0.00    +0.149 HD
ATOM      4  O   UNL     1      10.013  -1.720  23.230  0.00  0.00    -0.274 OA
ENDROOT
BRANCH   1   5
ATOM      5  C   UNL     1       8.307  -0.205  22.369  0.00  0.00    +0.162 C 
ATOM      6  N   UNL     1       8.167   0.763  23.469  0.00  0.00    -0.288 N 
ATOM      7  C   UNL     1       7.154   0.883  24.401  0.00  0.00    +0.242 C 
ATOM      8  O   UNL     1       7.121   1.851  25.169  0.00  0.00    -0.273 OA
ATOM      9  C   UNL     1       9.194   1.791  23.405  0.00  0.00    +0.109 C 
ATOM     10  C   UNL     1      10.124   1.359  22.286  0.00  0.00    +0.021 C 
ATOM     11  C   UNL     1       9.217   0.536  21.383  0.00  0.00    +0.033 C 
BRANCH   7  12
ATOM     12  C   UNL     1       6.052  -0.192  24.442  0.00  0.00    +0.256 C 
BRANCH  12  13
ATOM     13  O   UNL     1       6.240  -1.260  25.369  0.00  0.00    -0.367 OA
BRANCH  13  14
ATOM     14  C   UNL     1       5.055  -1.667  26.043  0.00  0.00    +0.119 C 
ATOM     15  C   UNL     1       5.416  -2.423  27.325  0.00  0.00    +0.031 C 
ATOM     16  C   UNL     1       4.340  -3.494  27.509  0.00  0.00    +0.003 C 
ATOM     17  C   UNL     1       3.396  -3.357  26.322  0.00  0.00    +0.003 C 
ATOM     18  C   UNL     1       4.231  -2.678  25.255  0.00  0.00    +0.031 C 
ENDBRANCH  13  14
ENDBRANCH  12  13
ENDBRANCH   7  12
ENDBRANCH   1   5
BRANCH   2  19
ATOM     19  C   UNL     1       8.245  -3.833  23.691  0.00  0.00    +0.139 C 
BRANCH  19  20
ATOM     20  C   UNL     1       7.000  -4.664  23.880  0.00  0.00    -0.030 A 
ATOM     21  C   UNL     1       6.128  -4.918  22.810  0.00  0.00    +0.006 A 
ATOM     22  C   UNL     1       5.020  -5.754  22.983  0.00  0.00    +0.016 A 
ATOM     23  C   UNL     1       4.777  -6.352  24.225  0.00  0.00    +0.065 A 
ATOM     24  C   UNL     1       5.630  -6.085  25.300  0.00  0.00    +0.016 A 
ATOM     25  C   UNL     1       6.739  -5.253  25.124  0.00  0.00    +0.006 A 
BRANCH  23  26
ATOM     26  C   UNL     1       3.623  -7.281  24.390  0.00  0.00    +0.308 C 
ATOM     27  N   UNL     1       3.411  -7.959  25.473  0.00  0.00    -0.099 NA
ATOM     28  H   UNL     1       4.154  -7.809  26.161  0.00  0.00    +0.363 HD
ATOM     29  N   UNL     1       2.724  -7.459  23.380  0.00  0.00    -0.247 N 
ATOM     30  H   UNL     1       1.905  -7.958  23.720  0.00  0.00    +0.288 HD
ATOM     31  H   UNL     1       2.474  -6.629  22.857  0.00  0.00    +0.288 HD
ENDBRANCH  23  26
ENDBRANCH  19  20
ENDBRANCH   2  19
TORSDOF 7
ENDMDL
