MODEL 1
REMARK VINA RESULT:      -7.1      0.000      0.000
REMARK  Name = 
REMARK  8 active torsions:
REMARK  status: ('A' for Active; 'I' for Inactive)
REMARK    1  A    between atoms: C_2  and  N_3
REMARK    2  A    between atoms: C_2  and  C_4
REMARK    3  A    between atoms: C_2  and  C_6
REMARK    4  A    between atoms: C_4  and  C_5
REMARK    5  A    between atoms: C_12  and  C_14
REMARK    6  A    between atoms: N_16  and  C_17
REMARK    7  A    between atoms: C_17  and  C_18
REMARK    8  A    between atoms: C_21  and  C_24
REMARK                            x       y       z     vdW  Elec       q    Type
REMARK                         _______ _______ _______ _____ _____    ______ ____
ROOT
ATOM      1  C   UNL     1       8.727  -3.078  24.170  0.00  0.00    +0.234 C 
ATOM      2  N   UNL     1       8.484  -2.144  23.176  0.00  0.00    -0.310 N 
ATOM      3  H   UNL     1       7.539  -1.838  23.000  0.00  0.00    +0.149 HD
ATOM      4  O   UNL     1       9.842  -3.553  24.372  0.00  0.00    -0.274 OA
ENDROOT
BRANCH   1   7
ATOM      5  C   UNL     1       6.006  -4.683  23.621  0.00  0.00    +0.233 C 
ATOM      6  N   UNL     1       6.875  -4.633  24.685  0.00  0.00    -0.289 N 
ATOM      7  C   UNL     1       7.502  -3.372  25.071  0.00  0.00    +0.162 C 
ATOM      8  C   UNL     1       7.966  -3.593  26.519  0.00  0.00    +0.033 C 
ATOM      9  C   UNL     1       7.485  -4.998  26.888  0.00  0.00    +0.021 C 
ATOM     10  C   UNL     1       7.324  -5.701  25.553  0.00  0.00    +0.108 C 
ATOM     11  O   UNL     1       5.694  -3.651  23.015  0.00  0.00    -0.274 OA
BRANCH   5  12
ATOM     12  C   UNL     1       5.394  -6.035  23.178  0.00  0.00    +0.138 C 
BRANCH  12  13
ATOM     13  N   UNL     1       5.408  -6.152  21.702  0.00  0.00    -0.320 NA
ATOM     14  H   UNL     1       6.381  -6.200  21.396  0.00  0.00    +0.119 HD
ATOM     15  H   UNL     1       4.980  -7.037  21.436  0.00  0.00    +0.119 HD
ENDBRANCH  12  13
BRANCH  12  16
ATOM     16  C   UNL     1       3.991  -6.291  23.739  0.00  0.00    +0.024 C 
ATOM     17  C   UNL     1       4.020  -7.131  25.010  0.00  0.00    +0.006 C 
ENDBRANCH  12  16
ENDBRANCH   5  12
ENDBRANCH   1   7
BRANCH   2  18
ATOM     18  C   UNL     1       9.535  -1.688  22.294  0.00  0.00    +0.139 C 
BRANCH  18  19
ATOM     19  C   UNL     1       9.892  -0.245  22.559  0.00  0.00    -0.030 A 
ATOM     20  C   UNL     1       9.566   0.765  21.642  0.00  0.00    +0.006 A 
ATOM     21  C   UNL     1       9.855   2.105  21.927  0.00  0.00    +0.016 A 
ATOM     22  C   UNL     1      10.465   2.452  23.137  0.00  0.00    +0.065 A 
ATOM     23  C   UNL     1      10.816   1.449  24.045  0.00  0.00    +0.016 A 
ATOM     24  C   UNL     1      10.525   0.113  23.760  0.00  0.00    +0.006 A 
BRANCH  22  25
ATOM     25  C   UNL     1      10.719   3.887  23.457  0.00  0.00    +0.308 C 
ATOM     26  N   UNL     1       9.842   4.645  24.036  0.00  0.00    -0.099 NA
ATOM     27  H   UNL     1       8.962   4.147  24.190  0.00  0.00    +0.363 HD
ATOM     28  N   UNL     1      11.908   4.471  23.142  0.00  0.00    -0.247 N 
ATOM     29  H   UNL     1      11.994   5.374  23.602  0.00  0.00    +0.288 HD
ATOM     30  H   UNL     1      12.733   3.894  23.276  0.00  0.00    +0.288 HD
ENDBRANCH  22  25
ENDBRANCH  18  19
ENDBRANCH   2  18
TORSDOF 7
ENDMDL
MODEL 2
REMARK VINA RESULT:      -6.8      2.234      3.203
REMARK  Name = 
REMARK  8 active torsions:
REMARK  status: ('A' for Active; 'I' for Inactive)
REMARK    1  A    between atoms: C_2  and  N_3
REMARK    2  A    between atoms: C_2  and  C_4
REMARK    3  A    between atoms: C_2  and  C_6
REMARK    4  A    between atoms: C_4  and  C_5
REMARK    5  A    between atoms: C_12  and  C_14
REMARK    6  A    between atoms: N_16  and  C_17
REMARK    7  A    between atoms: C_17  and  C_18
REMARK    8  A    between atoms: C_21  and  C_24
REMARK                            x       y       z     vdW  Elec       q    Type
REMARK                         _______ _______ _______ _____ _____    ______ ____
ROOT
ATOM      1  C   UNL     1       9.040  -2.560  23.466  0.00  0.00    +0.234 C 
ATOM      2  N   UNL     1       8.590  -1.251  23.484  0.00  0.00    -0.310 N 
ATOM      3  H   UNL     1       7.671  -1.035  23.125  0.00  0.00    +0.149 HD
ATOM      4  O   UNL     1      10.179  -2.871  23.807  0.00  0.00    -0.274 OA
ENDROOT
BRANCH   1   7
ATOM      5  C   UNL     1       7.662  -4.908  25.159  0.00  0.00    +0.233 C 
ATOM      6  N   UNL     1       7.179  -3.970  24.278  0.00  0.00    -0.289 N 
ATOM      7  C   UNL     1       7.951  -3.597  23.096  0.00  0.00    +0.162 C 
ATOM      8  C   UNL     1       6.927  -2.956  22.147  0.00  0.00    +0.033 C 
ATOM      9  C   UNL     1       5.580  -3.082  22.861  0.00  0.00    +0.021 C 
ATOM     10  C   UNL     1       5.944  -3.217  24.327  0.00  0.00    +0.108 C 
ATOM     11  O   UNL     1       8.728  -5.495  24.932  0.00  0.00    -0.274 OA
BRANCH   5  12
ATOM     12  C   UNL     1       6.868  -5.253  26.444  0.00  0.00    +0.138 C 
BRANCH  12  13
ATOM     13  N   UNL     1       7.768  -5.817  27.474  0.00  0.00    -0.320 NA
ATOM     14  H   UNL     1       8.025  -5.067  28.118  0.00  0.00    +0.119 HD
ATOM     15  H   UNL     1       7.254  -6.503  28.024  0.00  0.00    +0.119 HD
ENDBRANCH  12  13
BRANCH  12  16
ATOM     16  C   UNL     1       5.665  -6.170  26.198  0.00  0.00    +0.024 C 
ATOM     17  C   UNL     1       5.028  -6.651  27.496  0.00  0.00    +0.006 C 
ENDBRANCH  12  16
ENDBRANCH   5  12
ENDBRANCH   1   7
BRANCH   2  18
ATOM     18  C   UNL     1       9.449  -0.160  23.886  0.00  0.00    +0.139 C 
BRANCH  18  19
ATOM     19  C   UNL     1       8.912   1.171  23.414  0.00  0.00    -0.030 A 
ATOM     20  C   UNL     1       8.145   1.270  22.244  0.00  0.00    +0.006 A 
ATOM     21  C   UNL     1       7.608   2.502  21.848  0.00  0.00    +0.016 A 
ATOM     22  C   UNL     1       7.825   3.646  22.624  0.00  0.00    +0.065 A 
ATOM     23  C   UNL     1       8.609   3.559  23.778  0.00  0.00    +0.016 A 
ATOM     24  C   UNL     1       9.142   2.329  24.171  0.00  0.00    +0.006 A 
BRANCH  22  25
ATOM     25  C   UNL     1       7.203   4.942  22.226  0.00  0.00    +0.308 C 
ATOM     26  N   UNL     1       5.922   5.136  22.217  0.00  0.00    -0.099 NA
ATOM     27  H   UNL     1       5.413   4.283  22.466  0.00  0.00    +0.363 HD
ATOM     28  N   UNL     1       7.975   5.996  21.841  0.00  0.00    -0.247 N 
ATOM     29  H   UNL     1       7.420   6.847  21.800  0.00  0.00    +0.288 HD
ATOM     30  H   UNL     1       8.837   6.126  22.362  0.00  0.00    +0.288 HD
ENDBRANCH  22  25
ENDBRANCH  18  19
ENDBRANCH   2  18
TORSDOF 7
ENDMDL
MODEL 3
REMARK VINA RESULT:      -6.7      2.054      3.119
REMARK  Name = 
REMARK  8 active torsions:
REMARK  status: ('A' for Active; 'I' for Inactive)
REMARK    1  A    between atoms: C_2  and  N_3
REMARK    2  A    between atoms: C_2  and  C_4
REMARK    3  A    between atoms: C_2  and  C_6
REMARK    4  A    between atoms: C_4  and  C_5
REMARK    5  A    between atoms: C_12  and  C_14
REMARK    6  A    between atoms: N_16  and  C_17
REMARK    7  A    between atoms: C_17  and  C_18
REMARK    8  A    between atoms: C_21  and  C_24
REMARK                            x       y       z     vdW  Elec       q    Type
REMARK                         _______ _______ _______ _____ _____    ______ ____
ROOT
ATOM      1  C   UNL     1       8.925  -2.443  23.759  0.00  0.00    +0.234 C 
ATOM      2  N   UNL     1       9.563  -1.786  22.720  0.00  0.00    -0.310 N 
ATOM      3  H   UNL     1       9.505  -2.160  21.784  0.00  0.00    +0.149 HD
ATOM      4  O   UNL     1       9.031  -2.085  24.930  0.00  0.00    -0.274 OA
ENDROOT
BRANCH   1   7
ATOM      5  C   UNL     1       7.592  -4.886  25.351  0.00  0.00    +0.233 C 
ATOM      6  N   UNL     1       7.124  -4.009  24.402  0.00  0.00    -0.289 N 
ATOM      7  C   UNL     1       7.980  -3.581  23.300  0.00  0.00    +0.162 C 
ATOM      8  C   UNL     1       7.011  -3.051  22.233  0.00  0.00    +0.033 C 
ATOM      9  C   UNL     1       5.612  -3.292  22.803  0.00  0.00    +0.021 C 
ATOM     10  C   UNL     1       5.827  -3.373  24.302  0.00  0.00    +0.108 C 
ATOM     11  O   UNL     1       8.725  -5.374  25.251  0.00  0.00    -0.274 OA
BRANCH   5  12
ATOM     12  C   UNL     1       6.699  -5.286  26.551  0.00  0.00    +0.138 C 
BRANCH  12  13
ATOM     13  N   UNL     1       7.523  -5.842  27.648  0.00  0.00    -0.320 NA
ATOM     14  H   UNL     1       6.993  -6.591  28.096  0.00  0.00    +0.119 HD
ATOM     15  H   UNL     1       8.354  -6.277  27.250  0.00  0.00    +0.119 HD
ENDBRANCH  12  13
BRANCH  12  16
ATOM     16  C   UNL     1       5.557  -6.238  26.180  0.00  0.00    +0.024 C 
ATOM     17  C   UNL     1       4.900  -6.860  27.406  0.00  0.00    +0.006 C 
ENDBRANCH  12  16
ENDBRANCH   5  12
ENDBRANCH   1   7
BRANCH   2  18
ATOM     18  C   UNL     1      10.418  -0.645  22.957  0.00  0.00    +0.139 C 
BRANCH  18  19
ATOM     19  C   UNL     1       9.652   0.652  22.848  0.00  0.00    -0.030 A 
ATOM     20  C   UNL     1       9.950   1.744  23.676  0.00  0.00    +0.006 A 
ATOM     21  C   UNL     1       9.267   2.958  23.526  0.00  0.00    +0.016 A 
ATOM     22  C   UNL     1       8.285   3.096  22.539  0.00  0.00    +0.065 A 
ATOM     23  C   UNL     1       7.965   2.005  21.726  0.00  0.00    +0.016 A 
ATOM     24  C   UNL     1       8.649   0.796  21.877  0.00  0.00    +0.006 A 
BRANCH  22  25
ATOM     25  C   UNL     1       7.602   4.408  22.349  0.00  0.00    +0.308 C 
ATOM     26  N   UNL     1       6.344   4.512  22.056  0.00  0.00    -0.099 NA
ATOM     27  H   UNL     1       5.913   3.593  21.930  0.00  0.00    +0.363 HD
ATOM     28  N   UNL     1       8.291   5.577  22.472  0.00  0.00    -0.247 N 
ATOM     29  H   UNL     1       7.650   6.365  22.513  0.00  0.00    +0.288 HD
ATOM     30  H   UNL     1       8.982   5.606  23.215  0.00  0.00    +0.288 HD
ENDBRANCH  22  25
ENDBRANCH  18  19
ENDBRANCH   2  18
TORSDOF 7
ENDMDL
MODEL 4
REMARK VINA RESULT:      -6.7      2.176      2.985
REMARK  Name = 
REMARK  8 active torsions:
REMARK  status: ('A' for Active; 'I' for Inactive)
REMARK    1  A    between atoms: C_2  and  N_3
REMARK    2  A    between atoms: C_2  and  C_4
REMARK    3  A    between atoms: C_2  and  C_6
REMARK    4  A    between atoms: C_4  and  C_5
REMARK    5  A    between atoms: C_12  and  C_14
REMARK    6  A    between atoms: N_16  and  C_17
REMARK    7  A    between atoms: C_17  and  C_18
REMARK    8  A    between atoms: C_21  and  C_24
REMARK                            x       y       z     vdW  Elec       q    Type
REMARK                         _______ _______ _______ _____ _____    ______ ____
ROOT
ATOM      1  C   UNL     1       6.736  -3.038  26.627  0.00  0.00    +0.234 C 
ATOM      2  N   UNL     1       7.807  -2.163  26.546  0.00  0.00    -0.310 N 
ATOM      3  H   UNL     1       8.720  -2.515  26.300  0.00  0.00    +0.149 HD
ATOM      4  O   UNL     1       5.621  -2.685  27.005  0.00  0.00    -0.274 OA
ENDROOT
BRANCH   1   7
ATOM      5  C   UNL     1       6.363  -4.345  23.723  0.00  0.00    +0.233 C 
ATOM      6  N   UNL     1       7.363  -4.404  24.664  0.00  0.00    -0.289 N 
ATOM      7  C   UNL     1       7.040  -4.457  26.086  0.00  0.00    +0.162 C 
ATOM      8  C   UNL     1       8.309  -5.005  26.756  0.00  0.00    +0.033 C 
ATOM      9  C   UNL     1       9.276  -5.302  25.608  0.00  0.00    +0.021 C 
ATOM     10  C   UNL     1       8.798  -4.411  24.477  0.00  0.00    +0.108 C 
ATOM     11  O   UNL     1       5.175  -4.399  24.064  0.00  0.00    -0.274 OA
BRANCH   5  12
ATOM     12  C   UNL     1       6.713  -4.224  22.219  0.00  0.00    +0.138 C 
BRANCH  12  13
ATOM     13  N   UNL     1       5.615  -3.560  21.482  0.00  0.00    -0.320 NA
ATOM     14  H   UNL     1       5.153  -2.909  22.119  0.00  0.00    +0.119 HD
ATOM     15  H   UNL     1       6.013  -2.994  20.734  0.00  0.00    +0.119 HD
ENDBRANCH  12  13
BRANCH  12  16
ATOM     16  C   UNL     1       7.091  -5.558  21.565  0.00  0.00    +0.024 C 
ATOM     17  C   UNL     1       6.041  -6.033  20.568  0.00  0.00    +0.006 C 
ENDBRANCH  12  16
ENDBRANCH   5  12
ENDBRANCH   1   7
BRANCH   2  18
ATOM     18  C   UNL     1       7.680  -0.775  26.929  0.00  0.00    +0.139 C 
BRANCH  18  19
ATOM     19  C   UNL     1       8.398   0.134  25.961  0.00  0.00    -0.030 A 
ATOM     20  C   UNL     1       9.555  -0.289  25.290  0.00  0.00    +0.006 A 
ATOM     21  C   UNL     1      10.180   0.545  24.353  0.00  0.00    +0.016 A 
ATOM     22  C   UNL     1       9.649   1.809  24.072  0.00  0.00    +0.065 A 
ATOM     23  C   UNL     1       8.512   2.247  24.755  0.00  0.00    +0.016 A 
ATOM     24  C   UNL     1       7.889   1.413  25.687  0.00  0.00    +0.006 A 
BRANCH  22  25
ATOM     25  C   UNL     1      10.288   2.668  23.034  0.00  0.00    +0.308 C 
ATOM     26  N   UNL     1      10.883   3.785  23.313  0.00  0.00    -0.099 NA
ATOM     27  H   UNL     1      10.810   4.009  24.309  0.00  0.00    +0.363 HD
ATOM     28  N   UNL     1      10.265   2.308  21.721  0.00  0.00    -0.247 N 
ATOM     29  H   UNL     1      10.906   2.885  21.182  0.00  0.00    +0.288 HD
ATOM     30  H   UNL     1      10.390   1.319  21.532  0.00  0.00    +0.288 HD
ENDBRANCH  22  25
ENDBRANCH  18  19
ENDBRANCH   2  18
TORSDOF 7
ENDMDL
MODEL 5
REMARK VINA RESULT:      -6.6      1.246      1.413
REMARK  Name = 
REMARK  8 active torsions:
REMARK  status: ('A' for Active; 'I' for Inactive)
REMARK    1  A    between atoms: C_2  and  N_3
REMARK    2  A    between atoms: C_2  and  C_4
REMARK    3  A    between atoms: C_2  and  C_6
REMARK    4  A    between atoms: C_4  and  C_5
REMARK    5  A    between atoms: C_12  and  C_14
REMARK    6  A    between atoms: N_16  and  C_17
REMARK    7  A    between atoms: C_17  and  C_18
REMARK    8  A    between atoms: C_21  and  C_24
REMARK                            x       y       z     vdW  Elec       q    Type
REMARK                         _______ _______ _______ _____ _____    ______ ____
ROOT
ATOM      1  C   UNL     1       8.966  -2.224  23.543  0.00  0.00    +0.234 C 
ATOM      2  N   UNL     1       8.375  -1.317  22.680  0.00  0.00    -0.310 N 
ATOM      3  H   UNL     1       7.369  -1.284  22.604  0.00  0.00    +0.149 HD
ATOM      4  O   UNL     1      10.184  -2.371  23.615  0.00  0.00    -0.274 OA
ENDROOT
BRANCH   1   7
ATOM      5  C   UNL     1       6.458  -4.131  22.950  0.00  0.00    +0.233 C 
ATOM      6  N   UNL     1       7.476  -4.169  23.872  0.00  0.00    -0.289 N 
ATOM      7  C   UNL     1       7.967  -2.939  24.486  0.00  0.00    +0.162 C 
ATOM      8  C   UNL     1       8.696  -3.401  25.758  0.00  0.00    +0.033 C 
ATOM      9  C   UNL     1       8.495  -4.916  25.811  0.00  0.00    +0.021 C 
ATOM     10  C   UNL     1       8.217  -5.308  24.373  0.00  0.00    +0.108 C 
ATOM     11  O   UNL     1       5.900  -3.061  22.675  0.00  0.00    -0.274 OA
BRANCH   5  12
ATOM     12  C   UNL     1       5.985  -5.432  22.256  0.00  0.00    +0.138 C 
BRANCH  12  13
ATOM     13  N   UNL     1       5.977  -5.261  20.786  0.00  0.00    -0.320 NA
ATOM     14  H   UNL     1       6.691  -4.573  20.541  0.00  0.00    +0.119 HD
ATOM     15  H   UNL     1       6.264  -6.136  20.349  0.00  0.00    +0.119 HD
ENDBRANCH  12  13
BRANCH  12  16
ATOM     16  C   UNL     1       4.631  -5.944  22.760  0.00  0.00    +0.024 C 
ATOM     17  C   UNL     1       4.722  -6.536  24.161  0.00  0.00    +0.006 C 
ENDBRANCH  12  16
ENDBRANCH   5  12
ENDBRANCH   1   7
BRANCH   2  18
ATOM     18  C   UNL     1       9.164  -0.499  21.785  0.00  0.00    +0.139 C 
BRANCH  18  19
ATOM     19  C   UNL     1       9.250   0.928  22.273  0.00  0.00    -0.030 A 
ATOM     20  C   UNL     1       8.254   1.863  21.961  0.00  0.00    +0.006 A 
ATOM     21  C   UNL     1       8.320   3.169  22.465  0.00  0.00    +0.016 A 
ATOM     22  C   UNL     1       9.380   3.550  23.295  0.00  0.00    +0.065 A 
ATOM     23  C   UNL     1      10.391   2.630  23.589  0.00  0.00    +0.016 A 
ATOM     24  C   UNL     1      10.321   1.328  23.087  0.00  0.00    +0.006 A 
BRANCH  22  25
ATOM     25  C   UNL     1       9.415   4.924  23.873  0.00  0.00    +0.308 C 
ATOM     26  N   UNL     1       8.992   5.197  25.067  0.00  0.00    -0.099 NA
ATOM     27  H   UNL     1       8.597   4.370  25.521  0.00  0.00    +0.363 HD
ATOM     28  N   UNL     1       9.900   5.972  23.150  0.00  0.00    -0.247 N 
ATOM     29  H   UNL     1      10.039   6.782  23.748  0.00  0.00    +0.288 HD
ATOM     30  H   UNL     1      10.714   5.774  22.576  0.00  0.00    +0.288 HD
ENDBRANCH  22  25
ENDBRANCH  18  19
ENDBRANCH   2  18
TORSDOF 7
ENDMDL
MODEL 6
REMARK VINA RESULT:      -6.5      1.024      1.757
REMARK  Name = 
REMARK  8 active torsions:
REMARK  status: ('A' for Active; 'I' for Inactive)
REMARK    1  A    between atoms: C_2  and  N_3
REMARK    2  A    between atoms: C_2  and  C_4
REMARK    3  A    between atoms: C_2  and  C_6
REMARK    4  A    between atoms: C_4  and  C_5
REMARK    5  A    between atoms: C_12  and  C_14
REMARK    6  A    between atoms: N_16  and  C_17
REMARK    7  A    between atoms: C_17  and  C_18
REMARK    8  A    between atoms: C_21  and  C_24
REMARK                            x       y       z     vdW  Elec       q    Type
REMARK                         _______ _______ _______ _____ _____    ______ ____
ROOT
ATOM      1  C   UNL     1       8.735  -3.066  24.309  0.00  0.00    +0.234 C 
ATOM      2  N   UNL     1       8.548  -2.015  23.427  0.00  0.00    -0.310 N 
ATOM      3  H   UNL     1       7.632  -1.603  23.330  0.00  0.00    +0.149 HD
ATOM      4  O   UNL     1       9.805  -3.664  24.407  0.00  0.00    -0.274 OA
ENDROOT
BRANCH   1   7
ATOM      5  C   UNL     1       5.712  -3.930  23.681  0.00  0.00    +0.233 C 
ATOM      6  N   UNL     1       6.626  -4.314  24.634  0.00  0.00    -0.289 N 
ATOM      7  C   UNL     1       7.524  -3.334  25.237  0.00  0.00    +0.162 C 
ATOM      8  C   UNL     1       8.005  -3.993  26.539  0.00  0.00    +0.033 C 
ATOM      9  C   UNL     1       7.257  -5.325  26.617  0.00  0.00    +0.021 C 
ATOM     10  C   UNL     1       6.883  -5.630  25.179  0.00  0.00    +0.108 C 
ATOM     11  O   UNL     1       5.595  -2.739  23.367  0.00  0.00    -0.274 OA
BRANCH   5  12
ATOM     12  C   UNL     1       4.806  -4.985  23.000  0.00  0.00    +0.138 C 
BRANCH  12  13
ATOM     13  N   UNL     1       3.838  -5.543  23.971  0.00  0.00    -0.320 NA
ATOM     14  H   UNL     1       2.936  -5.639  23.502  0.00  0.00    +0.119 HD
ATOM     15  H   UNL     1       4.130  -6.485  24.225  0.00  0.00    +0.119 HD
ENDBRANCH  12  13
BRANCH  12  16
ATOM     16  C   UNL     1       5.583  -6.100  22.291  0.00  0.00    +0.024 C 
ATOM     17  C   UNL     1       6.401  -5.580  21.115  0.00  0.00    +0.006 C 
ENDBRANCH  12  16
ENDBRANCH   5  12
ENDBRANCH   1   7
BRANCH   2  18
ATOM     18  C   UNL     1       9.603  -1.572  22.543  0.00  0.00    +0.139 C 
BRANCH  18  19
ATOM     19  C   UNL     1       9.944  -0.119  22.774  0.00  0.00    -0.030 A 
ATOM     20  C   UNL     1      10.596   0.297  23.944  0.00  0.00    +0.006 A 
ATOM     21  C   UNL     1      10.954   1.640  24.120  0.00  0.00    +0.016 A 
ATOM     22  C   UNL     1      10.671   2.580  23.123  0.00  0.00    +0.065 A 
ATOM     23  C   UNL     1       9.999   2.178  21.965  0.00  0.00    +0.016 A 
ATOM     24  C   UNL     1       9.645   0.837  21.791  0.00  0.00    +0.006 A 
BRANCH  22  25
ATOM     25  C   UNL     1      11.105   3.997  23.293  0.00  0.00    +0.308 C 
ATOM     26  N   UNL     1      12.350   4.348  23.369  0.00  0.00    -0.099 NA
ATOM     27  H   UNL     1      12.970   3.535  23.346  0.00  0.00    +0.363 HD
ATOM     28  N   UNL     1      10.188   5.000  23.383  0.00  0.00    -0.247 N 
ATOM     29  H   UNL     1      10.642   5.906  23.292  0.00  0.00    +0.288 HD
ATOM     30  H   UNL     1       9.379   4.915  22.776  0.00  0.00    +0.288 HD
ENDBRANCH  22  25
ENDBRANCH  18  19
ENDBRANCH   2  18
TORSDOF 7
ENDMDL
MODEL 7
REMARK VINA RESULT:      -6.5      2.348      8.581
REMARK  Name = 
REMARK  8 active torsions:
REMARK  status: ('A' for Active; 'I' for Inactive)
REMARK    1  A    between atoms: C_2  and  N_3
REMARK    2  A    between atoms: C_2  and  C_4
REMARK    3  A    between atoms: C_2  and  C_6
REMARK    4  A    between atoms: C_4  and  C_5
REMARK    5  A    between atoms: C_12  and  C_14
REMARK    6  A    between atoms: N_16  and  C_17
REMARK    7  A    between atoms: C_17  and  C_18
REMARK    8  A    between atoms: C_21  and  C_24
REMARK                            x       y       z     vdW  Elec       q    Type
REMARK                         _______ _______ _______ _____ _____    ______ ____
ROOT
ATOM      1  C   UNL     1       9.204  -2.083  24.370  0.00  0.00    +0.234 C 
ATOM      2  N   UNL     1       7.974  -2.700  24.218  0.00  0.00    -0.310 N 
ATOM      3  H   UNL     1       7.210  -2.445  24.826  0.00  0.00    +0.149 HD
ATOM      4  O   UNL     1      10.194  -2.414  23.719  0.00  0.00    -0.274 OA
ENDROOT
BRANCH   1   7
ATOM      5  C   UNL     1       9.908   1.013  23.926  0.00  0.00    +0.233 C 
ATOM      6  N   UNL     1       8.907   0.360  24.604  0.00  0.00    -0.289 N 
ATOM      7  C   UNL     1       9.187  -0.872  25.335  0.00  0.00    +0.162 C 
ATOM      8  C   UNL     1       8.021  -1.015  26.324  0.00  0.00    +0.033 C 
ATOM      9  C   UNL     1       7.164   0.236  26.122  0.00  0.00    +0.021 C 
ATOM     10  C   UNL     1       7.504   0.700  24.719  0.00  0.00    +0.108 C 
ATOM     11  O   UNL     1      11.074   0.602  23.978  0.00  0.00    -0.274 OA
BRANCH   5  12
ATOM     12  C   UNL     1       9.590   2.284  23.101  0.00  0.00    +0.138 C 
BRANCH  12  13
ATOM     13  N   UNL     1      10.193   2.191  21.752  0.00  0.00    -0.320 NA
ATOM     14  H   UNL     1      10.438   3.134  21.447  0.00  0.00    +0.119 HD
ATOM     15  H   UNL     1      11.068   1.675  21.816  0.00  0.00    +0.119 HD
ENDBRANCH  12  13
BRANCH  12  16
ATOM     16  C   UNL     1       9.993   3.589  23.798  0.00  0.00    +0.024 C 
ATOM     17  C   UNL     1      11.367   4.080  23.360  0.00  0.00    +0.006 C 
ENDBRANCH  12  16
ENDBRANCH   5  12
ENDBRANCH   1   7
BRANCH   2  18
ATOM     18  C   UNL     1       7.786  -3.797  23.294  0.00  0.00    +0.139 C 
BRANCH  18  19
ATOM     19  C   UNL     1       6.651  -4.695  23.726  0.00  0.00    -0.030 A 
ATOM     20  C   UNL     1       5.689  -5.141  22.808  0.00  0.00    +0.006 A 
ATOM     21  C   UNL     1       4.673  -6.017  23.212  0.00  0.00    +0.016 A 
ATOM     22  C   UNL     1       4.614  -6.464  24.536  0.00  0.00    +0.065 A 
ATOM     23  C   UNL     1       5.555  -6.004  25.463  0.00  0.00    +0.016 A 
ATOM     24  C   UNL     1       6.568  -5.131  25.057  0.00  0.00    +0.006 A 
BRANCH  22  25
ATOM     25  C   UNL     1       3.563  -7.440  24.946  0.00  0.00    +0.308 C 
ATOM     26  N   UNL     1       2.991  -8.250  24.111  0.00  0.00    -0.099 NA
ATOM     27  H   UNL     1       3.318  -8.093  23.155  0.00  0.00    +0.363 HD
ATOM     28  N   UNL     1       3.150  -7.517  26.241  0.00  0.00    -0.247 N 
ATOM     29  H   UNL     1       2.590  -8.353  26.387  0.00  0.00    +0.288 HD
ATOM     30  H   UNL     1       3.876  -7.415  26.943  0.00  0.00    +0.288 HD
ENDBRANCH  22  25
ENDBRANCH  18  19
ENDBRANCH   2  18
TORSDOF 7
ENDMDL
MODEL 8
REMARK VINA RESULT:      -6.5      1.851      2.556
REMARK  Name = 
REMARK  8 active torsions:
REMARK  status: ('A' for Active; 'I' for Inactive)
REMARK    1  A    between atoms: C_2  and  N_3
REMARK    2  A    between atoms: C_2  and  C_4
REMARK    3  A    between atoms: C_2  and  C_6
REMARK    4  A    between atoms: C_4  and  C_5
REMARK    5  A    between atoms: C_12  and  C_14
REMARK    6  A    between atoms: N_16  and  C_17
REMARK    7  A    between atoms: C_17  and  C_18
REMARK    8  A    between atoms: C_21  and  C_24
REMARK                            x       y       z     vdW  Elec       q    Type
REMARK                         _______ _______ _______ _____ _____    ______ ____
ROOT
ATOM      1  C   UNL     1       7.573  -4.757  25.968  0.00  0.00    +0.234 C 
ATOM      2  N   UNL     1       7.944  -3.626  25.260  0.00  0.00    -0.310 N 
ATOM      3  H   UNL     1       7.254  -2.920  25.052  0.00  0.00    +0.149 HD
ATOM      4  O   UNL     1       8.346  -5.690  26.176  0.00  0.00    -0.274 OA
ENDROOT
BRANCH   1   7
ATOM      5  C   UNL     1       4.669  -4.848  24.613  0.00  0.00    +0.233 C 
ATOM      6  N   UNL     1       5.203  -5.422  25.742  0.00  0.00    -0.289 N 
ATOM      7  C   UNL     1       6.149  -4.684  26.573  0.00  0.00    +0.162 C 
ATOM      8  C   UNL     1       6.125  -5.405  27.929  0.00  0.00    +0.033 C 
ATOM      9  C   UNL     1       5.069  -6.502  27.784  0.00  0.00    +0.021 C 
ATOM     10  C   UNL     1       4.983  -6.744  26.290  0.00  0.00    +0.108 C 
ATOM     11  O   UNL     1       4.933  -3.675  24.319  0.00  0.00    -0.274 OA
BRANCH   5  12
ATOM     12  C   UNL     1       3.715  -5.659  23.702  0.00  0.00    +0.138 C 
BRANCH  12  13
ATOM     13  N   UNL     1       4.338  -5.899  22.381  0.00  0.00    -0.320 NA
ATOM     14  H   UNL     1       5.012  -6.660  22.480  0.00  0.00    +0.119 HD
ATOM     15  H   UNL     1       3.625  -6.230  21.734  0.00  0.00    +0.119 HD
ENDBRANCH  12  13
BRANCH  12  16
ATOM     16  C   UNL     1       2.324  -5.033  23.552  0.00  0.00    +0.024 C 
ATOM     17  C   UNL     1       1.355  -5.946  22.810  0.00  0.00    +0.006 C 
ENDBRANCH  12  16
ENDBRANCH   5  12
ENDBRANCH   1   7
BRANCH   2  18
ATOM     18  C   UNL     1       9.268  -3.487  24.696  0.00  0.00    +0.139 C 
BRANCH  18  19
ATOM     19  C   UNL     1       9.484  -2.105  24.127  0.00  0.00    -0.030 A 
ATOM     20  C   UNL     1       9.832  -1.919  22.782  0.00  0.00    +0.006 A 
ATOM     21  C   UNL     1       9.977  -0.629  22.256  0.00  0.00    +0.016 A 
ATOM     22  C   UNL     1       9.765   0.490  23.068  0.00  0.00    +0.065 A 
ATOM     23  C   UNL     1       9.442   0.313  24.417  0.00  0.00    +0.016 A 
ATOM     24  C   UNL     1       9.297  -0.975  24.938  0.00  0.00    +0.006 A 
BRANCH  22  25
ATOM     25  C   UNL     1       9.866   1.860  22.487  0.00  0.00    +0.308 C 
ATOM     26  N   UNL     1      10.595   2.795  23.010  0.00  0.00    -0.099 NA
ATOM     27  H   UNL     1      11.038   2.482  23.877  0.00  0.00    +0.363 HD
ATOM     28  N   UNL     1       9.174   2.193  21.362  0.00  0.00    -0.247 N 
ATOM     29  H   UNL     1       9.504   3.080  20.990  0.00  0.00    +0.288 HD
ATOM     30  H   UNL     1       9.122   1.474  20.647  0.00  0.00    +0.288 HD
ENDBRANCH  22  25
ENDBRANCH  18  19
ENDBRANCH   2  18
TORSDOF 7
ENDMDL
MODEL 9
REMARK VINA RESULT:      -6.5      2.045      3.034
REMARK  Name = 
REMARK  8 active torsions:
REMARK  status: ('A' for Active; 'I' for Inactive)
REMARK    1  A    between atoms: C_2  and  N_3
REMARK    2  A    between atoms: C_2  and  C_4
REMARK    3  A    between atoms: C_2  and  C_6
REMARK    4  A    between atoms: C_4  and  C_5
REMARK    5  A    between atoms: C_12  and  C_14
REMARK    6  A    between atoms: N_16  and  C_17
REMARK    7  A    between atoms: C_17  and  C_18
REMARK    8  A    between atoms: C_21  and  C_24
REMARK                            x       y       z     vdW  Elec       q    Type
REMARK                         _______ _______ _______ _____ _____    ______ ____
ROOT
ATOM      1  C   UNL     1       7.989  -5.012  24.407  0.00  0.00    +0.234 C 
ATOM      2  N   UNL     1       8.607  -3.949  23.770  0.00  0.00    -0.310 N 
ATOM      3  H   UNL     1       8.354  -3.722  22.820  0.00  0.00    +0.149 HD
ATOM      4  O   UNL     1       8.317  -5.389  25.530  0.00  0.00    -0.274 OA
ENDROOT
BRANCH   1   7
ATOM      5  C   UNL     1       4.831  -4.542  24.705  0.00  0.00    +0.233 C 
ATOM      6  N   UNL     1       5.673  -4.644  23.623  0.00  0.00    -0.289 N 
ATOM      7  C   UNL     1       6.781  -5.595  23.633  0.00  0.00    +0.162 C 
ATOM      8  C   UNL     1       7.154  -5.778  22.154  0.00  0.00    +0.033 C 
ATOM      9  C   UNL     1       6.141  -4.937  21.375  0.00  0.00    +0.021 C 
ATOM     10  C   UNL     1       5.661  -3.905  22.379  0.00  0.00    +0.108 C 
ATOM     11  O   UNL     1       4.962  -5.297  25.676  0.00  0.00    -0.274 OA
BRANCH   5  12
ATOM     12  C   UNL     1       3.698  -3.487  24.713  0.00  0.00    +0.138 C 
BRANCH  12  13
ATOM     13  N   UNL     1       3.944  -2.469  25.759  0.00  0.00    -0.320 NA
ATOM     14  H   UNL     1       3.110  -2.408  26.346  0.00  0.00    +0.119 HD
ATOM     15  H   UNL     1       4.697  -2.792  26.364  0.00  0.00    +0.119 HD
ENDBRANCH  12  13
BRANCH  12  16
ATOM     16  C   UNL     1       2.295  -4.090  24.847  0.00  0.00    +0.024 C 
ATOM     17  C   UNL     1       1.999  -5.117  23.761  0.00  0.00    +0.006 C 
ENDBRANCH  12  16
ENDBRANCH   5  12
ENDBRANCH   1   7
BRANCH   2  18
ATOM     18  C   UNL     1       9.700  -3.230  24.385  0.00  0.00    +0.139 C 
BRANCH  18  19
ATOM     19  C   UNL     1       9.789  -1.813  23.870  0.00  0.00    -0.030 A 
ATOM     20  C   UNL     1       9.823  -1.541  22.495  0.00  0.00    +0.006 A 
ATOM     21  C   UNL     1       9.851  -0.219  22.031  0.00  0.00    +0.016 A 
ATOM     22  C   UNL     1       9.835   0.846  22.939  0.00  0.00    +0.065 A 
ATOM     23  C   UNL     1       9.826   0.582  24.312  0.00  0.00    +0.016 A 
ATOM     24  C   UNL     1       9.797  -0.737  24.771  0.00  0.00    +0.006 A 
BRANCH  22  25
ATOM     25  C   UNL     1       9.808   2.250  22.437  0.00  0.00    +0.308 C 
ATOM     26  N   UNL     1       8.865   2.708  21.676  0.00  0.00    -0.099 NA
ATOM     27  H   UNL     1       8.190   1.977  21.436  0.00  0.00    +0.363 HD
ATOM     28  N   UNL     1      10.799   3.125  22.762  0.00  0.00    -0.247 N 
ATOM     29  H   UNL     1      10.531   4.074  22.515  0.00  0.00    +0.288 HD
ATOM     30  H   UNL     1      11.150   3.062  23.713  0.00  0.00    +0.288 HD
ENDBRANCH  22  25
ENDBRANCH  18  19
ENDBRANCH   2  18
TORSDOF 7
ENDMDL
