MODEL 1
REMARK VINA RESULT:      -4.4      0.000      0.000
REMARK  Name = 
REMARK  13 active torsions:
REMARK  status: ('A' for Active; 'I' for Inactive)
REMARK    1  A    between atoms: O_1  and  C_2
REMARK    2  A    between atoms: C_2  and  C_3
REMARK    3  A    between atoms: C_3  and  C_4
REMARK    4  A    between atoms: C_4  and  C_5
REMARK    5  A    between atoms: C_5  and  C_6
REMARK    6  A    between atoms: C_6  and  C_7
REMARK    7  A    between atoms: C_6  and  C_10
REMARK    8  A    between atoms: C_7  and  C_8
REMARK    9  A    between atoms: C_8  and  O_9
REMARK   10  A    between atoms: C_10  and  C_11
REMARK   11  A    between atoms: C_11  and  C_12
REMARK   12  A    between atoms: C_12  and  C_13
REMARK   13  A    between atoms: C_13  and  O_14
REMARK                            x       y       z     vdW  Elec       q    Type
REMARK                         _______ _______ _______ _____ _____    ______ ____
ROOT
ATOM      1  C   UNL     1       9.461  -1.665  24.411  0.00  0.00    -0.009 C 
ENDROOT
BRANCH   1   2
ATOM      2  C   UNL     1       7.954  -1.990  24.228  0.00  0.00    +0.004 C 
BRANCH   2   3
ATOM      3  C   UNL     1       7.516  -3.317  24.854  0.00  0.00    +0.002 C 
BRANCH   3   4
ATOM      4  C   UNL     1       8.488  -4.450  24.526  0.00  0.00    +0.028 C 
BRANCH   4   5
ATOM      5  C   UNL     1       8.949  -5.151  25.797  0.00  0.00    +0.156 C 
BRANCH   5   6
ATOM      6  O   UNL     1      10.310  -5.531  25.656  0.00  0.00    -0.395 OA
ATOM      7  H   UNL     1      10.549  -6.037  26.451  0.00  0.00    +0.209 HD
ENDBRANCH   5   6
ENDBRANCH   4   5
ENDBRANCH   3   4
ENDBRANCH   2   3
ENDBRANCH   1   2
BRANCH   1   8
ATOM      8  C   UNL     1       9.647  -0.355  25.221  0.00  0.00    +0.004 C 
BRANCH   8   9
ATOM      9  C   UNL     1      10.563   0.674  24.548  0.00  0.00    +0.002 C 
BRANCH   9  10
ATOM     10  C   UNL     1       9.783   1.903  24.082  0.00  0.00    +0.028 C 
BRANCH  10  11
ATOM     11  C   UNL     1      10.577   2.706  23.060  0.00  0.00    +0.156 C 
BRANCH  11  12
ATOM     12  O   UNL     1      10.236   2.292  21.745  0.00  0.00    -0.395 OA
ATOM     13  H   UNL     1      10.494   1.359  21.654  0.00  0.00    +0.209 HD
ENDBRANCH  11  12
ENDBRANCH  10  11
ENDBRANCH   9  10
ENDBRANCH   8   9
ENDBRANCH   1   8
BRANCH   1  14
ATOM     14  C   UNL     1      10.176  -1.573  23.041  0.00  0.00    +0.031 C 
BRANCH  14  15
ATOM     15  C   UNL     1       9.249  -1.556  21.828  0.00  0.00    +0.156 C 
BRANCH  15  16
ATOM     16  O   UNL     1       9.556  -0.434  21.007  0.00  0.00    -0.395 OA
ATOM     17  H   UNL     1       9.546   0.358  21.571  0.00  0.00    +0.209 HD
ENDBRANCH  15  16
ENDBRANCH  14  15
ENDBRANCH   1  14
TORSDOF 13
ENDMDL
MODEL 2
REMARK VINA RESULT:      -4.4      2.381      4.036
REMARK  Name = 
REMARK  13 active torsions:
REMARK  status: ('A' for Active; 'I' for Inactive)
REMARK    1  A    between atoms: O_1  and  C_2
REMARK    2  A    between atoms: C_2  and  C_3
REMARK    3  A    between atoms: C_3  and  C_4
REMARK    4  A    between atoms: C_4  and  C_5
REMARK    5  A    between atoms: C_5  and  C_6
REMARK    6  A    between atoms: C_6  and  C_7
REMARK    7  A    between atoms: C_6  and  C_10
REMARK    8  A    between atoms: C_7  and  C_8
REMARK    9  A    between atoms: C_8  and  O_9
REMARK   10  A    between atoms: C_10  and  C_11
REMARK   11  A    between atoms: C_11  and  C_12
REMARK   12  A    between atoms: C_12  and  C_13
REMARK   13  A    between atoms: C_13  and  O_14
REMARK                            x       y       z     vdW  Elec       q    Type
REMARK                         _______ _______ _______ _____ _____    ______ ____
ROOT
ATOM      1  C   UNL     1      10.313   2.247  23.204  0.00  0.00    -0.009 C 
ENDROOT
BRANCH   1   2
ATOM      2  C   UNL     1      10.269   1.271  24.411  0.00  0.00    +0.004 C 
BRANCH   2   3
ATOM      3  C   UNL     1      10.584  -0.185  24.055  0.00  0.00    +0.002 C 
BRANCH   3   4
ATOM      4  C   UNL     1       9.453  -1.127  24.465  0.00  0.00    +0.028 C 
BRANCH   4   5
ATOM      5  C   UNL     1       9.320  -2.276  23.474  0.00  0.00    +0.156 C 
BRANCH   5   6
ATOM      6  O   UNL     1       8.679  -1.808  22.296  0.00  0.00    -0.395 OA
ATOM      7  H   UNL     1       9.378  -1.623  21.646  0.00  0.00    +0.209 HD
ENDBRANCH   5   6
ENDBRANCH   4   5
ENDBRANCH   3   4
ENDBRANCH   2   3
ENDBRANCH   1   2
BRANCH   1   8
ATOM      8  C   UNL     1       9.643   3.599  23.564  0.00  0.00    +0.004 C 
BRANCH   8   9
ATOM      9  C   UNL     1      10.621   4.775  23.669  0.00  0.00    +0.002 C 
BRANCH   9  10
ATOM     10  C   UNL     1      12.059   4.340  23.384  0.00  0.00    +0.028 C 
BRANCH  10  11
ATOM     11  C   UNL     1      12.902   5.509  22.889  0.00  0.00    +0.156 C 
BRANCH  11  12
ATOM     12  O   UNL     1      14.282   5.222  23.064  0.00  0.00    -0.395 OA
ATOM     13  H   UNL     1      14.587   5.713  23.845  0.00  0.00    +0.209 HD
ENDBRANCH  11  12
ENDBRANCH  10  11
ENDBRANCH   9  10
ENDBRANCH   8   9
ENDBRANCH   1   8
BRANCH   1  14
ATOM     14  C   UNL     1       9.645   1.613  21.959  0.00  0.00    +0.031 C 
BRANCH  14  15
ATOM     15  C   UNL     1       8.166   1.943  21.781  0.00  0.00    +0.156 C 
BRANCH  15  16
ATOM     16  O   UNL     1       7.373   0.925  22.384  0.00  0.00    -0.395 OA
ATOM     17  H   UNL     1       6.821   1.345  23.066  0.00  0.00    +0.209 HD
ENDBRANCH  15  16
ENDBRANCH  14  15
ENDBRANCH   1  14
TORSDOF 13
ENDMDL
MODEL 3
REMARK VINA RESULT:      -4.3      1.341      5.928
REMARK  Name = 
REMARK  13 active torsions:
REMARK  status: ('A' for Active; 'I' for Inactive)
REMARK    1  A    between atoms: O_1  and  C_2
REMARK    2  A    between atoms: C_2  and  C_3
REMARK    3  A    between atoms: C_3  and  C_4
REMARK    4  A    between atoms: C_4  and  C_5
REMARK    5  A    between atoms: C_5  and  C_6
REMARK    6  A    between atoms: C_6  and  C_7
REMARK    7  A    between atoms: C_6  and  C_10
REMARK    8  A    between atoms: C_7  and  C_8
REMARK    9  A    between atoms: C_8  and  O_9
REMARK   10  A    between atoms: C_10  and  C_11
REMARK   11  A    between atoms: C_11  and  C_12
REMARK   12  A    between atoms: C_12  and  C_13
REMARK   13  A    between atoms: C_13  and  O_14
REMARK                            x       y       z     vdW  Elec       q    Type
REMARK                         _______ _______ _______ _____ _____    ______ ____
ROOT
ATOM      1  C   UNL     1       8.685  -1.365  24.412  0.00  0.00    -0.009 C 
ENDROOT
BRANCH   1   2
ATOM      2  C   UNL     1       9.840  -0.405  24.807  0.00  0.00    +0.004 C 
BRANCH   2   3
ATOM      3  C   UNL     1       9.432   1.068  24.897  0.00  0.00    +0.002 C 
BRANCH   3   4
ATOM      4  C   UNL     1      10.228   1.939  23.926  0.00  0.00    +0.028 C 
BRANCH   4   5
ATOM      5  C   UNL     1       9.375   2.333  22.727  0.00  0.00    +0.156 C 
BRANCH   5   6
ATOM      6  O   UNL     1      10.127   2.151  21.536  0.00  0.00    -0.395 OA
ATOM      7  H   UNL     1      10.526   3.010  21.317  0.00  0.00    +0.209 HD
ENDBRANCH   5   6
ENDBRANCH   4   5
ENDBRANCH   3   4
ENDBRANCH   2   3
ENDBRANCH   1   2
BRANCH   1   8
ATOM      8  C   UNL     1       8.483  -2.458  25.493  0.00  0.00    +0.004 C 
BRANCH   8   9
ATOM      9  C   UNL     1       9.106  -3.814  25.139  0.00  0.00    +0.002 C 
BRANCH   9  10
ATOM     10  C   UNL     1       9.087  -4.771  26.331  0.00  0.00    +0.028 C 
BRANCH  10  11
ATOM     11  C   UNL     1       7.667  -4.991  26.839  0.00  0.00    +0.156 C 
BRANCH  11  12
ATOM     12  O   UNL     1       7.650  -6.041  27.795  0.00  0.00    -0.395 OA
ATOM     13  H   UNL     1       8.450  -6.576  27.657  0.00  0.00    +0.209 HD
ENDBRANCH  11  12
ENDBRANCH  10  11
ENDBRANCH   9  10
ENDBRANCH   8   9
ENDBRANCH   1   8
BRANCH   1  14
ATOM     14  C   UNL     1       8.949  -2.002  23.025  0.00  0.00    +0.031 C 
BRANCH  14  15
ATOM     15  C   UNL     1      10.178  -1.472  22.293  0.00  0.00    +0.156 C 
BRANCH  15  16
ATOM     16  O   UNL     1       9.772  -0.757  21.130  0.00  0.00    -0.395 OA
ATOM     17  H   UNL     1      10.400  -0.970  20.418  0.00  0.00    +0.209 HD
ENDBRANCH  15  16
ENDBRANCH  14  15
ENDBRANCH   1  14
TORSDOF 13
ENDMDL
MODEL 4
REMARK VINA RESULT:      -4.2      2.569      3.574
REMARK  Name = 
REMARK  13 active torsions:
REMARK  status: ('A' for Active; 'I' for Inactive)
REMARK    1  A    between atoms: O_1  and  C_2
REMARK    2  A    between atoms: C_2  and  C_3
REMARK    3  A    between atoms: C_3  and  C_4
REMARK    4  A    between atoms: C_4  and  C_5
REMARK    5  A    between atoms: C_5  and  C_6
REMARK    6  A    between atoms: C_6  and  C_7
REMARK    7  A    between atoms: C_6  and  C_10
REMARK    8  A    between atoms: C_7  and  C_8
REMARK    9  A    between atoms: C_8  and  O_9
REMARK   10  A    between atoms: C_10  and  C_11
REMARK   11  A    between atoms: C_11  and  C_12
REMARK   12  A    between atoms: C_12  and  C_13
REMARK   13  A    between atoms: C_13  and  O_14
REMARK                            x       y       z     vdW  Elec       q    Type
REMARK                         _______ _______ _______ _____ _____    ______ ____
ROOT
ATOM      1  C   UNL     1       8.049  -2.558  23.879  0.00  0.00    -0.009 C 
ENDROOT
BRANCH   1   2
ATOM      2  C   UNL     1       8.230  -4.096  23.763  0.00  0.00    +0.004 C 
BRANCH   2   3
ATOM      3  C   UNL     1       6.971  -4.846  23.317  0.00  0.00    +0.002 C 
BRANCH   3   4
ATOM      4  C   UNL     1       7.252  -5.778  22.138  0.00  0.00    +0.028 C 
BRANCH   4   5
ATOM      5  C   UNL     1       6.201  -5.605  21.050  0.00  0.00    +0.156 C 
BRANCH   5   6
ATOM      6  O   UNL     1       5.765  -4.253  21.029  0.00  0.00    -0.395 OA
ATOM      7  H   UNL     1       4.913  -4.222  21.496  0.00  0.00    +0.209 HD
ENDBRANCH   5   6
ENDBRANCH   4   5
ENDBRANCH   3   4
ENDBRANCH   2   3
ENDBRANCH   1   2
BRANCH   1   8
ATOM      8  C   UNL     1       8.015  -1.901  22.475  0.00  0.00    +0.004 C 
BRANCH   8   9
ATOM      9  C   UNL     1       9.392  -1.477  21.947  0.00  0.00    +0.002 C 
BRANCH   9  10
ATOM     10  C   UNL     1       9.351  -0.081  21.324  0.00  0.00    +0.028 C 
BRANCH  10  11
ATOM     11  C   UNL     1      10.032   0.944  22.223  0.00  0.00    +0.156 C 
BRANCH  11  12
ATOM     12  O   UNL     1      10.088   2.204  21.569  0.00  0.00    -0.395 OA
ATOM     13  H   UNL     1      10.866   2.198  20.987  0.00  0.00    +0.209 HD
ENDBRANCH  11  12
ENDBRANCH  10  11
ENDBRANCH   9  10
ENDBRANCH   8   9
ENDBRANCH   1   8
BRANCH   1  14
ATOM     14  C   UNL     1       9.166  -1.937  24.753  0.00  0.00    +0.031 C 
BRANCH  14  15
ATOM     15  C   UNL     1       8.746  -0.716  25.566  0.00  0.00    +0.156 C 
BRANCH  15  16
ATOM     16  O   UNL     1       9.861   0.155  25.733  0.00  0.00    -0.395 OA
ATOM     17  H   UNL     1      10.247   0.312  24.854  0.00  0.00    +0.209 HD
ENDBRANCH  15  16
ENDBRANCH  14  15
ENDBRANCH   1  14
TORSDOF 13
ENDMDL
MODEL 5
REMARK VINA RESULT:      -4.2      1.715      5.695
REMARK  Name = 
REMARK  13 active torsions:
REMARK  status: ('A' for Active; 'I' for Inactive)
REMARK    1  A    between atoms: O_1  and  C_2
REMARK    2  A    between atoms: C_2  and  C_3
REMARK    3  A    between atoms: C_3  and  C_4
REMARK    4  A    between atoms: C_4  and  C_5
REMARK    5  A    between atoms: C_5  and  C_6
REMARK    6  A    between atoms: C_6  and  C_7
REMARK    7  A    between atoms: C_6  and  C_10
REMARK    8  A    between atoms: C_7  and  C_8
REMARK    9  A    between atoms: C_8  and  O_9
REMARK   10  A    between atoms: C_10  and  C_11
REMARK   11  A    between atoms: C_11  and  C_12
REMARK   12  A    between atoms: C_12  and  C_13
REMARK   13  A    between atoms: C_13  and  O_14
REMARK                            x       y       z     vdW  Elec       q    Type
REMARK                         _______ _______ _______ _____ _____    ______ ____
ROOT
ATOM      1  C   UNL     1       8.458  -1.874  24.349  0.00  0.00    -0.009 C 
ENDROOT
BRANCH   1   2
ATOM      2  C   UNL     1       9.733  -1.992  23.471  0.00  0.00    +0.004 C 
BRANCH   2   3
ATOM      3  C   UNL     1      10.272  -0.652  22.962  0.00  0.00    +0.002 C 
BRANCH   3   4
ATOM      4  C   UNL     1       9.653  -0.263  21.620  0.00  0.00    +0.028 C 
BRANCH   4   5
ATOM      5  C   UNL     1       9.015   1.118  21.699  0.00  0.00    +0.156 C 
BRANCH   5   6
ATOM      6  O   UNL     1      10.018   2.109  21.527  0.00  0.00    -0.395 OA
ATOM      7  H   UNL     1       9.954   2.422  20.609  0.00  0.00    +0.209 HD
ENDBRANCH   5   6
ENDBRANCH   4   5
ENDBRANCH   3   4
ENDBRANCH   2   3
ENDBRANCH   1   2
BRANCH   1   8
ATOM      8  C   UNL     1       8.695  -2.494  25.750  0.00  0.00    +0.004 C 
BRANCH   8   9
ATOM      9  C   UNL     1       7.638  -3.524  26.168  0.00  0.00    +0.002 C 
BRANCH   9  10
ATOM     10  C   UNL     1       8.250  -4.911  26.363  0.00  0.00    +0.028 C 
BRANCH  10  11
ATOM     11  C   UNL     1       9.649  -4.986  25.764  0.00  0.00    +0.156 C 
BRANCH  11  12
ATOM     12  O   UNL     1       9.631  -5.772  24.582  0.00  0.00    -0.395 OA
ATOM     13  H   UNL     1      10.475  -6.253  24.536  0.00  0.00    +0.209 HD
ENDBRANCH  11  12
ENDBRANCH  10  11
ENDBRANCH   9  10
ENDBRANCH   8   9
ENDBRANCH   1   8
BRANCH   1  14
ATOM     14  C   UNL     1       7.246  -2.537  23.649  0.00  0.00    +0.031 C 
BRANCH  14  15
ATOM     15  C   UNL     1       7.590  -3.401  22.440  0.00  0.00    +0.156 C 
BRANCH  15  16
ATOM     16  O   UNL     1       7.524  -4.778  22.800  0.00  0.00    -0.395 OA
ATOM     17  H   UNL     1       6.591  -5.049  22.761  0.00  0.00    +0.209 HD
ENDBRANCH  15  16
ENDBRANCH  14  15
ENDBRANCH   1  14
TORSDOF 13
ENDMDL
MODEL 6
REMARK VINA RESULT:      -4.2      1.344      5.600
REMARK  Name = 
REMARK  13 active torsions:
REMARK  status: ('A' for Active; 'I' for Inactive)
REMARK    1  A    between atoms: O_1  and  C_2
REMARK    2  A    between atoms: C_2  and  C_3
REMARK    3  A    between atoms: C_3  and  C_4
REMARK    4  A    between atoms: C_4  and  C_5
REMARK    5  A    between atoms: C_5  and  C_6
REMARK    6  A    between atoms: C_6  and  C_7
REMARK    7  A    between atoms: C_6  and  C_10
REMARK    8  A    between atoms: C_7  and  C_8
REMARK    9  A    between atoms: C_8  and  O_9
REMARK   10  A    between atoms: C_10  and  C_11
REMARK   11  A    between atoms: C_11  and  C_12
REMARK   12  A    between atoms: C_12  and  C_13
REMARK   13  A    between atoms: C_13  and  O_14
REMARK                            x       y       z     vdW  Elec       q    Type
REMARK                         _______ _______ _______ _____ _____    ______ ____
ROOT
ATOM      1  C   UNL     1       9.163  -1.401  24.612  0.00  0.00    -0.009 C 
ENDROOT
BRANCH   1   2
ATOM      2  C   UNL     1       8.257  -1.051  23.401  0.00  0.00    +0.004 C 
BRANCH   2   3
ATOM      3  C   UNL     1       8.826  -1.478  22.045  0.00  0.00    +0.002 C 
BRANCH   3   4
ATOM      4  C   UNL     1       9.559  -0.331  21.349  0.00  0.00    +0.028 C 
BRANCH   4   5
ATOM      5  C   UNL     1       8.812   0.983  21.542  0.00  0.00    +0.156 C 
BRANCH   5   6
ATOM      6  O   UNL     1       9.731   2.062  21.454  0.00  0.00    -0.395 OA
ATOM      7  H   UNL     1      10.487   1.749  20.930  0.00  0.00    +0.209 HD
ENDBRANCH   5   6
ENDBRANCH   4   5
ENDBRANCH   3   4
ENDBRANCH   2   3
ENDBRANCH   1   2
BRANCH   1   8
ATOM      8  C   UNL     1       8.416  -2.324  25.610  0.00  0.00    +0.004 C 
BRANCH   8   9
ATOM      9  C   UNL     1       7.658  -3.481  24.948  0.00  0.00    +0.002 C 
BRANCH   9  10
ATOM     10  C   UNL     1       7.979  -4.819  25.614  0.00  0.00    +0.028 C 
BRANCH  10  11
ATOM     11  C   UNL     1       9.391  -4.826  26.186  0.00  0.00    +0.156 C 
BRANCH  11  12
ATOM     12  O   UNL     1      10.256  -5.565  25.337  0.00  0.00    -0.395 OA
ATOM     13  H   UNL     1      11.141  -5.559  25.741  0.00  0.00    +0.209 HD
ENDBRANCH  11  12
ENDBRANCH  10  11
ENDBRANCH   9  10
ENDBRANCH   8   9
ENDBRANCH   1   8
BRANCH   1  14
ATOM     14  C   UNL     1       9.662  -0.115  25.316  0.00  0.00    +0.031 C 
BRANCH  14  15
ATOM     15  C   UNL     1      10.903   0.520  24.698  0.00  0.00    +0.156 C 
BRANCH  15  16
ATOM     16  O   UNL     1      10.604   1.848  24.279  0.00  0.00    -0.395 OA
ATOM     17  H   UNL     1      10.856   2.450  25.000  0.00  0.00    +0.209 HD
ENDBRANCH  15  16
ENDBRANCH  14  15
ENDBRANCH   1  14
TORSDOF 13
ENDMDL
MODEL 7
REMARK VINA RESULT:      -4.1      2.061      3.361
REMARK  Name = 
REMARK  13 active torsions:
REMARK  status: ('A' for Active; 'I' for Inactive)
REMARK    1  A    between atoms: O_1  and  C_2
REMARK    2  A    between atoms: C_2  and  C_3
REMARK    3  A    between atoms: C_3  and  C_4
REMARK    4  A    between atoms: C_4  and  C_5
REMARK    5  A    between atoms: C_5  and  C_6
REMARK    6  A    between atoms: C_6  and  C_7
REMARK    7  A    between atoms: C_6  and  C_10
REMARK    8  A    between atoms: C_7  and  C_8
REMARK    9  A    between atoms: C_8  and  O_9
REMARK   10  A    between atoms: C_10  and  C_11
REMARK   11  A    between atoms: C_11  and  C_12
REMARK   12  A    between atoms: C_12  and  C_13
REMARK   13  A    between atoms: C_13  and  O_14
REMARK                            x       y       z     vdW  Elec       q    Type
REMARK                         _______ _______ _______ _____ _____    ______ ____
ROOT
ATOM      1  C   UNL     1      10.235   1.826  24.159  0.00  0.00    -0.009 C 
ENDROOT
BRANCH   1   2
ATOM      2  C   UNL     1      10.595   0.347  24.461  0.00  0.00    +0.004 C 
BRANCH   2   3
ATOM      3  C   UNL     1       9.538  -0.405  25.275  0.00  0.00    +0.002 C 
BRANCH   3   4
ATOM      4  C   UNL     1       8.851  -1.492  24.449  0.00  0.00    +0.028 C 
BRANCH   4   5
ATOM      5  C   UNL     1       9.875  -2.309  23.671  0.00  0.00    +0.156 C 
BRANCH   5   6
ATOM      6  O   UNL     1      10.005  -3.590  24.270  0.00  0.00    -0.395 OA
ATOM      7  H   UNL     1      10.941  -3.841  24.204  0.00  0.00    +0.209 HD
ENDBRANCH   5   6
ENDBRANCH   4   5
ENDBRANCH   3   4
ENDBRANCH   2   3
ENDBRANCH   1   2
BRANCH   1   8
ATOM      8  C   UNL     1       8.857   2.192  24.769  0.00  0.00    +0.004 C 
BRANCH   8   9
ATOM      9  C   UNL     1       8.165   3.380  24.087  0.00  0.00    +0.002 C 
BRANCH   9  10
ATOM     10  C   UNL     1       6.826   2.973  23.472  0.00  0.00    +0.028 C 
BRANCH  10  11
ATOM     11  C   UNL     1       6.477   1.530  23.814  0.00  0.00    +0.156 C 
BRANCH  11  12
ATOM     12  O   UNL     1       6.349   0.765  22.624  0.00  0.00    -0.395 OA
ATOM     13  H   UNL     1       7.237   0.666  22.242  0.00  0.00    +0.209 HD
ENDBRANCH  11  12
ENDBRANCH  10  11
ENDBRANCH   9  10
ENDBRANCH   8   9
ENDBRANCH   1   8
BRANCH   1  14
ATOM     14  C   UNL     1      10.254   2.097  22.634  0.00  0.00    +0.031 C 
BRANCH  14  15
ATOM     15  C   UNL     1       9.777   0.937  21.766  0.00  0.00    +0.156 C 
BRANCH  15  16
ATOM     16  O   UNL     1       8.712   1.372  20.927  0.00  0.00    -0.395 OA
ATOM     17  H   UNL     1       9.049   2.098  20.374  0.00  0.00    +0.209 HD
ENDBRANCH  15  16
ENDBRANCH  14  15
ENDBRANCH   1  14
TORSDOF 13
ENDMDL
MODEL 8
REMARK VINA RESULT:      -4.1      1.664      5.473
REMARK  Name = 
REMARK  13 active torsions:
REMARK  status: ('A' for Active; 'I' for Inactive)
REMARK    1  A    between atoms: O_1  and  C_2
REMARK    2  A    between atoms: C_2  and  C_3
REMARK    3  A    between atoms: C_3  and  C_4
REMARK    4  A    between atoms: C_4  and  C_5
REMARK    5  A    between atoms: C_5  and  C_6
REMARK    6  A    between atoms: C_6  and  C_7
REMARK    7  A    between atoms: C_6  and  C_10
REMARK    8  A    between atoms: C_7  and  C_8
REMARK    9  A    between atoms: C_8  and  O_9
REMARK   10  A    between atoms: C_10  and  C_11
REMARK   11  A    between atoms: C_11  and  C_12
REMARK   12  A    between atoms: C_12  and  C_13
REMARK   13  A    between atoms: C_13  and  O_14
REMARK                            x       y       z     vdW  Elec       q    Type
REMARK                         _______ _______ _______ _____ _____    ______ ____
ROOT
ATOM      1  C   UNL     1       9.263  -0.781  22.994  0.00  0.00    -0.009 C 
ENDROOT
BRANCH   1   2
ATOM      2  C   UNL     1      10.555  -0.428  23.780  0.00  0.00    +0.004 C 
BRANCH   2   3
ATOM      3  C   UNL     1      10.360   0.637  24.864  0.00  0.00    +0.002 C 
BRANCH   3   4
ATOM      4  C   UNL     1       8.884   0.977  25.069  0.00  0.00    +0.028 C 
BRANCH   4   5
ATOM      5  C   UNL     1       8.636   2.463  24.851  0.00  0.00    +0.156 C 
BRANCH   5   6
ATOM      6  O   UNL     1       9.734   3.024  24.146  0.00  0.00    -0.395 OA
ATOM      7  H   UNL     1      10.543   2.688  24.567  0.00  0.00    +0.209 HD
ENDBRANCH   5   6
ENDBRANCH   4   5
ENDBRANCH   3   4
ENDBRANCH   2   3
ENDBRANCH   1   2
BRANCH   1   8
ATOM      8  C   UNL     1       8.997  -2.308  23.031  0.00  0.00    +0.004 C 
BRANCH   8   9
ATOM      9  C   UNL     1       9.631  -3.027  24.228  0.00  0.00    +0.002 C 
BRANCH   9  10
ATOM     10  C   UNL     1       8.624  -3.236  25.358  0.00  0.00    +0.028 C 
BRANCH  10  11
ATOM     11  C   UNL     1       9.017  -4.419  26.236  0.00  0.00    +0.156 C 
BRANCH  11  12
ATOM     12  O   UNL     1       7.976  -4.707  27.158  0.00  0.00    -0.395 OA
ATOM     13  H   UNL     1       7.153  -4.808  26.651  0.00  0.00    +0.209 HD
ENDBRANCH  11  12
ENDBRANCH  10  11
ENDBRANCH   9  10
ENDBRANCH   8   9
ENDBRANCH   1   8
BRANCH   1  14
ATOM     14  C   UNL     1       9.350  -0.270  21.534  0.00  0.00    +0.031 C 
BRANCH  14  15
ATOM     15  C   UNL     1       8.853   1.156  21.317  0.00  0.00    +0.156 C 
BRANCH  15  16
ATOM     16  O   UNL     1       9.939   2.067  21.455  0.00  0.00    -0.395 OA
ATOM     17  H   UNL     1       9.844   2.746  20.764  0.00  0.00    +0.209 HD
ENDBRANCH  15  16
ENDBRANCH  14  15
ENDBRANCH   1  14
TORSDOF 13
ENDMDL
MODEL 9
REMARK VINA RESULT:      -4.0      2.818      4.684
REMARK  Name = 
REMARK  13 active torsions:
REMARK  status: ('A' for Active; 'I' for Inactive)
REMARK    1  A    between atoms: O_1  and  C_2
REMARK    2  A    between atoms: C_2  and  C_3
REMARK    3  A    between atoms: C_3  and  C_4
REMARK    4  A    between atoms: C_4  and  C_5
REMARK    5  A    between atoms: C_5  and  C_6
REMARK    6  A    between atoms: C_6  and  C_7
REMARK    7  A    between atoms: C_6  and  C_10
REMARK    8  A    between atoms: C_7  and  C_8
REMARK    9  A    between atoms: C_8  and  O_9
REMARK   10  A    between atoms: C_10  and  C_11
REMARK   11  A    between atoms: C_11  and  C_12
REMARK   12  A    between atoms: C_12  and  C_13
REMARK   13  A    between atoms: C_13  and  O_14
REMARK                            x       y       z     vdW  Elec       q    Type
REMARK                         _______ _______ _______ _____ _____    ______ ____
ROOT
ATOM      1  C   UNL     1       7.771  -3.829  24.657  0.00  0.00    -0.009 C 
ENDROOT
BRANCH   1   2
ATOM      2  C   UNL     1       7.650  -4.035  23.123  0.00  0.00    +0.004 C 
BRANCH   2   3
ATOM      3  C   UNL     1       7.492  -5.497  22.695  0.00  0.00    +0.002 C 
BRANCH   3   4
ATOM      4  C   UNL     1       6.195  -5.726  21.919  0.00  0.00    +0.028 C 
BRANCH   4   5
ATOM      5  C   UNL     1       5.000  -5.768  22.863  0.00  0.00    +0.156 C 
BRANCH   5   6
ATOM      6  O   UNL     1       4.172  -4.640  22.621  0.00  0.00    -0.395 OA
ATOM      7  H   UNL     1       4.690  -3.851  22.853  0.00  0.00    +0.209 HD
ENDBRANCH   5   6
ENDBRANCH   4   5
ENDBRANCH   3   4
ENDBRANCH   2   3
ENDBRANCH   1   2
BRANCH   1   8
ATOM      8  C   UNL     1       9.027  -2.988  25.002  0.00  0.00    +0.004 C 
BRANCH   8   9
ATOM      9  C   UNL     1       9.838  -2.541  23.780  0.00  0.00    +0.002 C 
BRANCH   9  10
ATOM     10  C   UNL     1       9.999  -1.021  23.735  0.00  0.00    +0.028 C 
BRANCH  10  11
ATOM     11  C   UNL     1       9.895  -0.498  22.307  0.00  0.00    +0.156 C 
BRANCH  11  12
ATOM     12  O   UNL     1      10.115  -1.554  21.384  0.00  0.00    -0.395 OA
ATOM     13  H   UNL     1      10.896  -2.049  21.685  0.00  0.00    +0.209 HD
ENDBRANCH  11  12
ENDBRANCH  10  11
ENDBRANCH   9  10
ENDBRANCH   8   9
ENDBRANCH   1   8
BRANCH   1  14
ATOM     14  C   UNL     1       7.798  -5.190  25.395  0.00  0.00    +0.031 C 
BRANCH  14  15
ATOM     15  C   UNL     1       7.004  -5.235  26.697  0.00  0.00    +0.156 C 
BRANCH  15  16
ATOM     16  O   UNL     1       7.738  -5.958  27.681  0.00  0.00    -0.395 OA
ATOM     17  H   UNL     1       7.688  -5.459  28.514  0.00  0.00    +0.209 HD
ENDBRANCH  15  16
ENDBRANCH  14  15
ENDBRANCH   1  14
TORSDOF 13
ENDMDL
