MODEL 1
REMARK VINA RESULT:      -7.5      0.000      0.000
REMARK  Name = 
REMARK  3 active torsions:
REMARK  status: ('A' for Active; 'I' for Inactive)
REMARK    1  A    between atoms: C_5  and  C_8
REMARK    2  A    between atoms: C_8  and  C_14
REMARK    3  A    between atoms: C_17  and  C_20
REMARK                            x       y       z     vdW  Elec       q    Type
REMARK                         _______ _______ _______ _____ _____    ______ ____
ROOT
ATOM      1  C   UNL     1       7.663  -3.029  25.637  0.00  0.00    +0.023 C 
ATOM      2  C   UNL     1       8.670  -3.904  26.457  0.00  0.00    +0.031 C 
ATOM      3  C   UNL     1       8.081  -5.234  26.918  0.00  0.00    +0.082 C 
ATOM      4  N   UNL     1       6.907  -5.015  27.758  0.00  0.00    -0.316 NA
ATOM      5  H   UNL     1       6.519  -5.918  28.033  0.00  0.00    +0.122 HD
ATOM      6  C   UNL     1       5.888  -4.239  27.060  0.00  0.00    +0.082 C 
ATOM      7  C   UNL     1       6.429  -2.883  26.584  0.00  0.00    +0.031 C 
ENDROOT
BRANCH   1  12
ATOM      8 CL   UNL     1       6.026  -5.825  20.456  0.00  0.00    -0.084 Cl
ATOM      9  C   UNL     1       6.527  -5.008  21.884  0.00  0.00    +0.041 A 
ATOM     10  C   UNL     1       5.873  -3.852  22.291  0.00  0.00    +0.020 A 
ATOM     11  C   UNL     1       6.254  -3.211  23.476  0.00  0.00    +0.006 A 
ATOM     12  C   UNL     1       7.312  -3.699  24.269  0.00  0.00    -0.037 A 
ATOM     13  C   UNL     1       7.957  -4.871  23.822  0.00  0.00    +0.006 A 
ATOM     14  C   UNL     1       7.570  -5.520  22.644  0.00  0.00    +0.020 A 
ENDBRANCH   1  12
BRANCH   1  15
ATOM     15  C   UNL     1       8.244  -1.614  25.336  0.00  0.00    -0.037 A 
ATOM     16  C   UNL     1       9.405  -1.417  24.568  0.00  0.00    +0.005 A 
ATOM     17  C   UNL     1       9.862  -0.134  24.239  0.00  0.00    +0.009 A 
ATOM     18  C   UNL     1       9.168   1.005  24.655  0.00  0.00    -0.015 A 
ATOM     19  C   UNL     1       8.026   0.831  25.441  0.00  0.00    +0.009 A 
ATOM     20  C   UNL     1       7.580  -0.455  25.786  0.00  0.00    +0.005 A 
BRANCH  18  21
ATOM     21  C   UNL     1       9.598   2.332  24.245  0.00  0.00    +0.019 A 
ATOM     22  C   UNL     1       9.011   3.601  24.463  0.00  0.00    +0.142 A 
ATOM     23  N   UNL     1       9.705   4.595  23.901  0.00  0.00    -0.182 NA
ATOM     24  N   UNL     1      10.740   3.968  23.322  0.00  0.00    -0.284 N 
ATOM     25  H   UNL     1      11.420   4.526  22.816  0.00  0.00    +0.188 HD
ATOM     26  C   UNL     1      10.724   2.614  23.500  0.00  0.00    +0.113 A 
ENDBRANCH  18  21
ENDBRANCH   1  15
TORSDOF 3
ENDMDL
MODEL 2
REMARK VINA RESULT:      -7.3      2.666      4.019
REMARK  Name = 
REMARK  3 active torsions:
REMARK  status: ('A' for Active; 'I' for Inactive)
REMARK    1  A    between atoms: C_5  and  C_8
REMARK    2  A    between atoms: C_8  and  C_14
REMARK    3  A    between atoms: C_17  and  C_20
REMARK                            x       y       z     vdW  Elec       q    Type
REMARK                         _______ _______ _______ _____ _____    ______ ____
ROOT
ATOM      1  C   UNL     1       6.465  -4.007  23.687  0.00  0.00    +0.023 C 
ATOM      2  C   UNL     1       5.040  -3.794  23.072  0.00  0.00    +0.031 C 
ATOM      3  C   UNL     1       4.227  -5.081  22.966  0.00  0.00    +0.082 C 
ATOM      4  N   UNL     1       4.920  -6.062  22.136  0.00  0.00    -0.316 NA
ATOM      5  H   UNL     1       4.369  -6.919  22.100  0.00  0.00    +0.122 HD
ATOM      6  C   UNL     1       6.251  -6.359  22.656  0.00  0.00    +0.082 C 
ATOM      7  C   UNL     1       7.113  -5.095  22.771  0.00  0.00    +0.031 C 
ENDROOT
BRANCH   1  12
ATOM      8 CL   UNL     1       6.033  -6.021  29.439  0.00  0.00    -0.084 Cl
ATOM      9  C   UNL     1       6.172  -5.403  27.840  0.00  0.00    +0.041 A 
ATOM     10  C   UNL     1       7.342  -5.598  27.118  0.00  0.00    +0.020 A 
ATOM     11  C   UNL     1       7.440  -5.131  25.802  0.00  0.00    +0.006 A 
ATOM     12  C   UNL     1       6.378  -4.438  25.186  0.00  0.00    -0.037 A 
ATOM     13  C   UNL     1       5.208  -4.252  25.952  0.00  0.00    +0.006 A 
ATOM     14  C   UNL     1       5.104  -4.729  27.264  0.00  0.00    +0.020 A 
ENDBRANCH   1  12
BRANCH   1  15
ATOM     15  C   UNL     1       7.321  -2.706  23.617  0.00  0.00    -0.037 A 
ATOM     16  C   UNL     1       8.711  -2.723  23.410  0.00  0.00    +0.005 A 
ATOM     17  C   UNL     1       9.449  -1.539  23.266  0.00  0.00    +0.009 A 
ATOM     18  C   UNL     1       8.823  -0.292  23.311  0.00  0.00    -0.015 A 
ATOM     19  C   UNL     1       7.445  -0.254  23.542  0.00  0.00    +0.009 A 
ATOM     20  C   UNL     1       6.711  -1.439  23.705  0.00  0.00    +0.005 A 
BRANCH  18  21
ATOM     21  C   UNL     1       9.576   0.930  23.081  0.00  0.00    +0.019 A 
ATOM     22  C   UNL     1      10.247   1.785  23.987  0.00  0.00    +0.142 A 
ATOM     23  N   UNL     1      10.812   2.836  23.385  0.00  0.00    -0.182 NA
ATOM     24  N   UNL     1      10.506   2.658  22.091  0.00  0.00    -0.284 N 
ATOM     25  H   UNL     1      10.829   3.348  21.420  0.00  0.00    +0.188 HD
ATOM     26  C   UNL     1       9.771   1.532  21.856  0.00  0.00    +0.113 A 
ENDBRANCH  18  21
ENDBRANCH   1  15
TORSDOF 3
ENDMDL
MODEL 3
REMARK VINA RESULT:      -6.7      2.388      2.828
REMARK  Name = 
REMARK  3 active torsions:
REMARK  status: ('A' for Active; 'I' for Inactive)
REMARK    1  A    between atoms: C_5  and  C_8
REMARK    2  A    between atoms: C_8  and  C_14
REMARK    3  A    between atoms: C_17  and  C_20
REMARK                            x       y       z     vdW  Elec       q    Type
REMARK                         _______ _______ _______ _____ _____    ______ ____
ROOT
ATOM      1  C   UNL     1       7.302  -3.536  24.836  0.00  0.00    +0.023 C 
ATOM      2  C   UNL     1       8.645  -4.205  24.389  0.00  0.00    +0.031 C 
ATOM      3  C   UNL     1       8.907  -5.549  25.061  0.00  0.00    +0.082 C 
ATOM      4  N   UNL     1       8.956  -5.399  26.513  0.00  0.00    -0.316 NA
ATOM      5  H   UNL     1       9.108  -6.313  26.939  0.00  0.00    +0.122 HD
ATOM      6  C   UNL     1       7.722  -4.818  27.032  0.00  0.00    +0.082 C 
ATOM      7  C   UNL     1       7.419  -3.456  26.393  0.00  0.00    +0.031 C 
ENDROOT
BRANCH   1  12
ATOM      8 CL   UNL     1       2.361  -6.486  22.781  0.00  0.00    -0.084 Cl
ATOM      9  C   UNL     1       3.769  -5.704  23.385  0.00  0.00    +0.041 A 
ATOM     10  C   UNL     1       4.910  -5.620  22.598  0.00  0.00    +0.020 A 
ATOM     11  C   UNL     1       6.042  -4.947  23.073  0.00  0.00    +0.006 A 
ATOM     12  C   UNL     1       6.067  -4.364  24.356  0.00  0.00    -0.037 A 
ATOM     13  C   UNL     1       4.892  -4.476  25.131  0.00  0.00    +0.006 A 
ATOM     14  C   UNL     1       3.756  -5.137  24.652  0.00  0.00    +0.020 A 
ENDBRANCH   1  12
BRANCH   1  15
ATOM     15  C   UNL     1       7.158  -2.093  24.262  0.00  0.00    -0.037 A 
ATOM     16  C   UNL     1       6.310  -1.130  24.834  0.00  0.00    +0.005 A 
ATOM     17  C   UNL     1       6.259   0.186  24.353  0.00  0.00    +0.009 A 
ATOM     18  C   UNL     1       7.065   0.593  23.287  0.00  0.00    -0.015 A 
ATOM     19  C   UNL     1       7.895  -0.358  22.687  0.00  0.00    +0.009 A 
ATOM     20  C   UNL     1       7.931  -1.679  23.159  0.00  0.00    +0.005 A 
BRANCH  18  21
ATOM     21  C   UNL     1       7.070   1.977  22.841  0.00  0.00    +0.019 A 
ATOM     22  C   UNL     1       6.012   2.907  22.705  0.00  0.00    +0.142 A 
ATOM     23  N   UNL     1       6.421   4.090  22.237  0.00  0.00    -0.182 NA
ATOM     24  N   UNL     1       7.742   3.923  22.072  0.00  0.00    -0.284 N 
ATOM     25  H   UNL     1       8.285   4.702  21.712  0.00  0.00    +0.188 HD
ATOM     26  C   UNL     1       8.181   2.678  22.422  0.00  0.00    +0.113 A 
ENDBRANCH  18  21
ENDBRANCH   1  15
TORSDOF 3
ENDMDL
MODEL 4
REMARK VINA RESULT:      -6.6      3.274      7.708
REMARK  Name = 
REMARK  3 active torsions:
REMARK  status: ('A' for Active; 'I' for Inactive)
REMARK    1  A    between atoms: C_5  and  C_8
REMARK    2  A    between atoms: C_8  and  C_14
REMARK    3  A    between atoms: C_17  and  C_20
REMARK                            x       y       z     vdW  Elec       q    Type
REMARK                         _______ _______ _______ _____ _____    ______ ____
ROOT
ATOM      1  C   UNL     1       8.478   1.038  23.892  0.00  0.00    +0.023 C 
ATOM      2  C   UNL     1       9.998   1.389  24.031  0.00  0.00    +0.031 C 
ATOM      3  C   UNL     1      10.441   2.535  23.127  0.00  0.00    +0.082 C 
ATOM      4  N   UNL     1      10.193   2.212  21.725  0.00  0.00    -0.316 NA
ATOM      5  H   UNL     1      10.475   3.002  21.144  0.00  0.00    +0.122 HD
ATOM      6  C   UNL     1       8.785   1.909  21.486  0.00  0.00    +0.082 C 
ATOM      7  C   UNL     1       8.293   0.752  22.367  0.00  0.00    +0.031 C 
ENDROOT
BRANCH   1  12
ATOM      8 CL   UNL     1       4.808   5.367  26.157  0.00  0.00    -0.084 Cl
ATOM      9  C   UNL     1       5.865   4.188  25.485  0.00  0.00    +0.041 A 
ATOM     10  C   UNL     1       7.074   3.903  26.105  0.00  0.00    +0.020 A 
ATOM     11  C   UNL     1       7.915   2.914  25.581  0.00  0.00    +0.006 A 
ATOM     12  C   UNL     1       7.576   2.204  24.412  0.00  0.00    -0.037 A 
ATOM     13  C   UNL     1       6.344   2.525  23.804  0.00  0.00    +0.006 A 
ATOM     14  C   UNL     1       5.497   3.505  24.334  0.00  0.00    +0.020 A 
ENDBRANCH   1  12
BRANCH   1  15
ATOM     15  C   UNL     1       8.108  -0.244  24.699  0.00  0.00    -0.037 A 
ATOM     16  C   UNL     1       6.969  -1.017  24.414  0.00  0.00    +0.005 A 
ATOM     17  C   UNL     1       6.700  -2.212  25.096  0.00  0.00    +0.009 A 
ATOM     18  C   UNL     1       7.568  -2.687  26.082  0.00  0.00    -0.015 A 
ATOM     19  C   UNL     1       8.691  -1.919  26.399  0.00  0.00    +0.009 A 
ATOM     20  C   UNL     1       8.949  -0.713  25.728  0.00  0.00    +0.005 A 
BRANCH  18  21
ATOM     21  C   UNL     1       7.330  -3.966  26.732  0.00  0.00    +0.019 A 
ATOM     22  C   UNL     1       6.233  -4.421  27.501  0.00  0.00    +0.142 A 
ATOM     23  N   UNL     1       6.400  -5.668  27.952  0.00  0.00    -0.182 NA
ATOM     24  N   UNL     1       7.603  -6.017  27.473  0.00  0.00    -0.284 N 
ATOM     25  H   UNL     1       7.959  -6.942  27.692  0.00  0.00    +0.188 HD
ATOM     26  C   UNL     1       8.200  -5.035  26.735  0.00  0.00    +0.113 A 
ENDBRANCH  18  21
ENDBRANCH   1  15
TORSDOF 3
ENDMDL
MODEL 5
REMARK VINA RESULT:      -6.6      2.339      3.390
REMARK  Name = 
REMARK  3 active torsions:
REMARK  status: ('A' for Active; 'I' for Inactive)
REMARK    1  A    between atoms: C_5  and  C_8
REMARK    2  A    between atoms: C_8  and  C_14
REMARK    3  A    between atoms: C_17  and  C_20
REMARK                            x       y       z     vdW  Elec       q    Type
REMARK                         _______ _______ _______ _____ _____    ______ ____
ROOT
ATOM      1  C   UNL     1       8.014  -2.755  24.239  0.00  0.00    +0.023 C 
ATOM      2  C   UNL     1       7.756  -3.470  22.870  0.00  0.00    +0.031 C 
ATOM      3  C   UNL     1       7.435  -4.955  23.012  0.00  0.00    +0.082 C 
ATOM      4  N   UNL     1       8.530  -5.659  23.672  0.00  0.00    -0.316 NA
ATOM      5  H   UNL     1       8.282  -6.643  23.776  0.00  0.00    +0.122 HD
ATOM      6  C   UNL     1       8.819  -5.087  24.984  0.00  0.00    +0.082 C 
ATOM      7  C   UNL     1       9.160  -3.593  24.893  0.00  0.00    +0.031 C 
ENDROOT
BRANCH   1  12
ATOM      8 CL   UNL     1       2.901  -2.222  27.541  0.00  0.00    -0.084 Cl
ATOM      9  C   UNL     1       4.342  -2.428  26.626  0.00  0.00    +0.041 A 
ATOM     10  C   UNL     1       4.271  -2.716  25.269  0.00  0.00    +0.020 A 
ATOM     11  C   UNL     1       5.444  -2.842  24.517  0.00  0.00    +0.006 A 
ATOM     12  C   UNL     1       6.716  -2.706  25.108  0.00  0.00    -0.037 A 
ATOM     13  C   UNL     1       6.751  -2.421  26.490  0.00  0.00    +0.006 A 
ATOM     14  C   UNL     1       5.578  -2.283  27.241  0.00  0.00    +0.020 A 
ENDBRANCH   1  12
BRANCH   1  15
ATOM     15  C   UNL     1       8.506  -1.290  24.039  0.00  0.00    -0.037 A 
ATOM     16  C   UNL     1       7.800  -0.350  23.268  0.00  0.00    +0.005 A 
ATOM     17  C   UNL     1       8.216   0.985  23.170  0.00  0.00    +0.009 A 
ATOM     18  C   UNL     1       9.349   1.436  23.851  0.00  0.00    -0.015 A 
ATOM     19  C   UNL     1      10.080   0.511  24.600  0.00  0.00    +0.009 A 
ATOM     20  C   UNL     1       9.673  -0.829  24.682  0.00  0.00    +0.005 A 
BRANCH  18  21
ATOM     21  C   UNL     1       9.732   2.838  23.813  0.00  0.00    +0.019 A 
ATOM     22  C   UNL     1       9.017   4.002  24.183  0.00  0.00    +0.142 A 
ATOM     23  N   UNL     1       9.712   5.124  23.976  0.00  0.00    -0.182 NA
ATOM     24  N   UNL     1      10.876   4.684  23.475  0.00  0.00    -0.284 N 
ATOM     25  H   UNL     1      11.584   5.369  23.228  0.00  0.00    +0.188 HD
ATOM     26  C   UNL     1      10.940   3.325  23.359  0.00  0.00    +0.113 A 
ENDBRANCH  18  21
ENDBRANCH   1  15
TORSDOF 3
ENDMDL
MODEL 6
REMARK VINA RESULT:      -6.6      2.036      2.431
REMARK  Name = 
REMARK  3 active torsions:
REMARK  status: ('A' for Active; 'I' for Inactive)
REMARK    1  A    between atoms: C_5  and  C_8
REMARK    2  A    between atoms: C_8  and  C_14
REMARK    3  A    between atoms: C_17  and  C_20
REMARK                            x       y       z     vdW  Elec       q    Type
REMARK                         _______ _______ _______ _____ _____    ______ ____
ROOT
ATOM      1  C   UNL     1       6.555  -3.714  25.930  0.00  0.00    +0.023 C 
ATOM      2  C   UNL     1       7.596  -4.759  26.457  0.00  0.00    +0.031 C 
ATOM      3  C   UNL     1       6.991  -5.796  27.398  0.00  0.00    +0.082 C 
ATOM      4  N   UNL     1       6.393  -5.150  28.562  0.00  0.00    -0.316 NA
ATOM      5  H   UNL     1       5.976  -5.861  29.163  0.00  0.00    +0.122 HD
ATOM      6  C   UNL     1       5.373  -4.182  28.171  0.00  0.00    +0.082 C 
ATOM      7  C   UNL     1       5.936  -3.108  27.230  0.00  0.00    +0.031 C 
ENDROOT
BRANCH   1  12
ATOM      8 CL   UNL     1       2.326  -6.570  22.569  0.00  0.00    -0.084 Cl
ATOM      9  C   UNL     1       3.525  -5.730  23.471  0.00  0.00    +0.041 A 
ATOM     10  C   UNL     1       3.158  -4.700  24.328  0.00  0.00    +0.020 A 
ATOM     11  C   UNL     1       4.131  -4.045  25.093  0.00  0.00    +0.006 A 
ATOM     12  C   UNL     1       5.494  -4.388  25.001  0.00  0.00    -0.037 A 
ATOM     13  C   UNL     1       5.831  -5.434  24.115  0.00  0.00    +0.006 A 
ATOM     14  C   UNL     1       4.859  -6.098  23.359  0.00  0.00    +0.020 A 
ENDBRANCH   1  12
BRANCH   1  15
ATOM     15  C   UNL     1       7.243  -2.577  25.115  0.00  0.00    -0.037 A 
ATOM     16  C   UNL     1       6.578  -1.393  24.754  0.00  0.00    +0.005 A 
ATOM     17  C   UNL     1       7.240  -0.347  24.095  0.00  0.00    +0.009 A 
ATOM     18  C   UNL     1       8.598  -0.440  23.783  0.00  0.00    -0.015 A 
ATOM     19  C   UNL     1       9.270  -1.621  24.110  0.00  0.00    +0.009 A 
ATOM     20  C   UNL     1       8.602  -2.674  24.752  0.00  0.00    +0.005 A 
BRANCH  18  21
ATOM     21  C   UNL     1       9.302   0.676  23.172  0.00  0.00    +0.019 A 
ATOM     22  C   UNL     1       9.973   1.776  23.757  0.00  0.00    +0.142 A 
ATOM     23  N   UNL     1      10.481   2.614  22.850  0.00  0.00    -0.182 NA
ATOM     24  N   UNL     1      10.139   2.055  21.679  0.00  0.00    -0.284 N 
ATOM     25  H   UNL     1      10.416   2.523  20.822  0.00  0.00    +0.188 HD
ATOM     26  C   UNL     1       9.434   0.893  21.817  0.00  0.00    +0.113 A 
ENDBRANCH  18  21
ENDBRANCH   1  15
TORSDOF 3
ENDMDL
MODEL 7
REMARK VINA RESULT:      -6.5      3.529      7.655
REMARK  Name = 
REMARK  3 active torsions:
REMARK  status: ('A' for Active; 'I' for Inactive)
REMARK    1  A    between atoms: C_5  and  C_8
REMARK    2  A    between atoms: C_8  and  C_14
REMARK    3  A    between atoms: C_17  and  C_20
REMARK                            x       y       z     vdW  Elec       q    Type
REMARK                         _______ _______ _______ _____ _____    ______ ____
ROOT
ATOM      1  C   UNL     1       7.973  -1.079  23.589  0.00  0.00    +0.023 C 
ATOM      2  C   UNL     1       9.001  -1.030  24.770  0.00  0.00    +0.031 C 
ATOM      3  C   UNL     1       9.966   0.149  24.685  0.00  0.00    +0.082 C 
ATOM      4  N   UNL     1      10.730   0.103  23.442  0.00  0.00    -0.316 NA
ATOM      5  H   UNL     1      11.349   0.912  23.398  0.00  0.00    +0.122 HD
ATOM      6  C   UNL     1       9.853   0.096  22.275  0.00  0.00    +0.082 C 
ATOM      7  C   UNL     1       8.868  -1.080  22.308  0.00  0.00    +0.031 C 
ENDROOT
BRANCH   1  12
ATOM      8 CL   UNL     1       4.380   3.852  23.927  0.00  0.00    -0.084 Cl
ATOM      9  C   UNL     1       5.347   2.435  23.810  0.00  0.00    +0.041 A 
ATOM     10  C   UNL     1       6.121   2.211  22.680  0.00  0.00    +0.020 A 
ATOM     11  C   UNL     1       6.940   1.078  22.604  0.00  0.00    +0.006 A 
ATOM     12  C   UNL     1       6.985   0.131  23.646  0.00  0.00    -0.037 A 
ATOM     13  C   UNL     1       6.179   0.387  24.776  0.00  0.00    +0.006 A 
ATOM     14  C   UNL     1       5.370   1.525  24.859  0.00  0.00    +0.020 A 
ENDBRANCH   1  12
BRANCH   1  15
ATOM     15  C   UNL     1       7.124  -2.386  23.619  0.00  0.00    -0.037 A 
ATOM     16  C   UNL     1       7.291  -3.376  24.603  0.00  0.00    +0.005 A 
ATOM     17  C   UNL     1       6.460  -4.504  24.660  0.00  0.00    +0.009 A 
ATOM     18  C   UNL     1       5.421  -4.679  23.744  0.00  0.00    -0.015 A 
ATOM     19  C   UNL     1       5.257  -3.719  22.742  0.00  0.00    +0.009 A 
ATOM     20  C   UNL     1       6.101  -2.600  22.674  0.00  0.00    +0.005 A 
BRANCH  18  21
ATOM     21  C   UNL     1       4.511  -5.808  23.854  0.00  0.00    +0.019 A 
ATOM     22  C   UNL     1       4.535  -6.934  24.711  0.00  0.00    +0.142 A 
ATOM     23  N   UNL     1       3.522  -7.775  24.488  0.00  0.00    -0.182 NA
ATOM     24  N   UNL     1       2.842  -7.191  23.490  0.00  0.00    -0.284 N 
ATOM     25  H   UNL     1       2.013  -7.656  23.135  0.00  0.00    +0.188 HD
ATOM     26  C   UNL     1       3.391  -6.011  23.076  0.00  0.00    +0.113 A 
ENDBRANCH  18  21
ENDBRANCH   1  15
TORSDOF 3
ENDMDL
MODEL 8
REMARK VINA RESULT:      -6.5      3.714      7.935
REMARK  Name = 
REMARK  3 active torsions:
REMARK  status: ('A' for Active; 'I' for Inactive)
REMARK    1  A    between atoms: C_5  and  C_8
REMARK    2  A    between atoms: C_8  and  C_14
REMARK    3  A    between atoms: C_17  and  C_20
REMARK                            x       y       z     vdW  Elec       q    Type
REMARK                         _______ _______ _______ _____ _____    ______ ____
ROOT
ATOM      1  C   UNL     1       7.991  -2.282  23.597  0.00  0.00    +0.023 C 
ATOM      2  C   UNL     1       9.412  -2.926  23.736  0.00  0.00    +0.031 C 
ATOM      3  C   UNL     1      10.548  -1.970  23.385  0.00  0.00    +0.082 C 
ATOM      4  N   UNL     1      10.416  -1.495  22.011  0.00  0.00    -0.316 NA
ATOM      5  H   UNL     1      11.172  -0.841  21.808  0.00  0.00    +0.122 HD
ATOM      6  C   UNL     1       9.131  -0.837  21.793  0.00  0.00    +0.082 C 
ATOM      7  C   UNL     1       7.953  -1.764  22.123  0.00  0.00    +0.031 C 
ENDROOT
BRANCH   1  12
ATOM      8 CL   UNL     1       6.861   1.971  27.837  0.00  0.00    -0.084 Cl
ATOM      9  C   UNL     1       7.226   0.803  26.629  0.00  0.00    +0.041 A 
ATOM     10  C   UNL     1       7.942  -0.341  26.960  0.00  0.00    +0.020 A 
ATOM     11  C   UNL     1       8.203  -1.311  25.985  0.00  0.00    +0.006 A 
ATOM     12  C   UNL     1       7.775  -1.149  24.652  0.00  0.00    -0.037 A 
ATOM     13  C   UNL     1       7.058   0.028  24.350  0.00  0.00    +0.006 A 
ATOM     14  C   UNL     1       6.785   0.993  25.326  0.00  0.00    +0.020 A 
ENDBRANCH   1  12
BRANCH   1  15
ATOM     15  C   UNL     1       6.859  -3.336  23.796  0.00  0.00    -0.037 A 
ATOM     16  C   UNL     1       5.572  -3.178  23.255  0.00  0.00    +0.005 A 
ATOM     17  C   UNL     1       4.595  -4.177  23.375  0.00  0.00    +0.009 A 
ATOM     18  C   UNL     1       4.873  -5.379  24.029  0.00  0.00    -0.015 A 
ATOM     19  C   UNL     1       6.139  -5.544  24.596  0.00  0.00    +0.009 A 
ATOM     20  C   UNL     1       7.109  -4.536  24.492  0.00  0.00    +0.005 A 
BRANCH  18  21
ATOM     21  C   UNL     1       3.885  -6.445  24.081  0.00  0.00    +0.019 A 
ATOM     22  C   UNL     1       3.705  -7.492  25.016  0.00  0.00    +0.142 A 
ATOM     23  N   UNL     1       2.685  -8.296  24.703  0.00  0.00    -0.182 NA
ATOM     24  N   UNL     1       2.207  -7.767  23.567  0.00  0.00    -0.284 N 
ATOM     25  H   UNL     1       1.413  -8.218  23.122  0.00  0.00    +0.188 HD
ATOM     26  C   UNL     1       2.887  -6.658  23.154  0.00  0.00    +0.113 A 
ENDBRANCH  18  21
ENDBRANCH   1  15
TORSDOF 3
ENDMDL
MODEL 9
REMARK VINA RESULT:      -6.4      3.307      7.512
REMARK  Name = 
REMARK  3 active torsions:
REMARK  status: ('A' for Active; 'I' for Inactive)
REMARK    1  A    between atoms: C_5  and  C_8
REMARK    2  A    between atoms: C_8  and  C_14
REMARK    3  A    between atoms: C_17  and  C_20
REMARK                            x       y       z     vdW  Elec       q    Type
REMARK                         _______ _______ _______ _____ _____    ______ ____
ROOT
ATOM      1  C   UNL     1       8.259  -1.915  23.983  0.00  0.00    +0.023 C 
ATOM      2  C   UNL     1       9.815  -2.007  24.138  0.00  0.00    +0.031 C 
ATOM      3  C   UNL     1      10.575  -1.132  23.145  0.00  0.00    +0.082 C 
ATOM      4  N   UNL     1      10.250  -1.506  21.772  0.00  0.00    -0.316 NA
ATOM      5  H   UNL     1      10.752  -0.893  21.130  0.00  0.00    +0.122 HD
ATOM      6  C   UNL     1       8.816  -1.412  21.518  0.00  0.00    +0.082 C 
ATOM      7  C   UNL     1       8.006  -2.285  22.486  0.00  0.00    +0.031 C 
ENDROOT
BRANCH   1  12
ATOM      8 CL   UNL     1       6.328   3.762  25.154  0.00  0.00    -0.084 Cl
ATOM      9  C   UNL     1       6.848   2.147  24.874  0.00  0.00    +0.041 A 
ATOM     10  C   UNL     1       6.063   1.284  24.119  0.00  0.00    +0.020 A 
ATOM     11  C   UNL     1       6.507  -0.018  23.857  0.00  0.00    +0.006 A 
ATOM     12  C   UNL     1       7.733  -0.494  24.362  0.00  0.00    -0.037 A 
ATOM     13  C   UNL     1       8.500   0.408  25.131  0.00  0.00    +0.006 A 
ATOM     14  C   UNL     1       8.064   1.713  25.383  0.00  0.00    +0.020 A 
ENDBRANCH   1  12
BRANCH   1  15
ATOM     15  C   UNL     1       7.529  -2.949  24.893  0.00  0.00    -0.037 A 
ATOM     16  C   UNL     1       7.318  -4.284  24.507  0.00  0.00    +0.005 A 
ATOM     17  C   UNL     1       6.735  -5.219  25.375  0.00  0.00    +0.009 A 
ATOM     18  C   UNL     1       6.351  -4.856  26.667  0.00  0.00    -0.015 A 
ATOM     19  C   UNL     1       6.527  -3.527  27.060  0.00  0.00    +0.009 A 
ATOM     20  C   UNL     1       7.094  -2.589  26.184  0.00  0.00    +0.005 A 
BRANCH  18  21
ATOM     21  C   UNL     1       5.820  -5.845  27.593  0.00  0.00    +0.019 A 
ATOM     22  C   UNL     1       6.231  -6.201  28.899  0.00  0.00    +0.142 A 
ATOM     23  N   UNL     1       5.496  -7.186  29.422  0.00  0.00    -0.182 NA
ATOM     24  N   UNL     1       4.609  -7.464  28.454  0.00  0.00    -0.284 N 
ATOM     25  H   UNL     1       3.930  -8.200  28.620  0.00  0.00    +0.188 HD
ATOM     26  C   UNL     1       4.759  -6.689  27.341  0.00  0.00    +0.113 A 
ENDBRANCH  18  21
ENDBRANCH   1  15
TORSDOF 3
ENDMDL
