MODEL 1
REMARK VINA RESULT:      -6.1      0.000      0.000
REMARK  Name = 
REMARK  11 active torsions:
REMARK  status: ('A' for Active; 'I' for Inactive)
REMARK    1  A    between atoms: C_1  and  C_2
REMARK    2  A    between atoms: C_2  and  C_3
REMARK    3  A    between atoms: C_2  and  N_4
REMARK    4  A    between atoms: N_4  and  C_5
REMARK    5  A    between atoms: C_5  and  C_6
REMARK    6  A    between atoms: C_6  and  O_7
REMARK    7  A    between atoms: C_6  and  C_8
REMARK    8  A    between atoms: C_8  and  O_9
REMARK    9  A    between atoms: O_9  and  C_10
REMARK   10  A    between atoms: C_13  and  N_14
REMARK   11  A    between atoms: C_15  and  C_16
REMARK                            x       y       z     vdW  Elec       q    Type
REMARK                         _______ _______ _______ _____ _____    ______ ____
ROOT
ATOM      1  O   UNL     1       9.635  -1.884  22.677  0.00  0.00    -0.489 OA
ENDROOT
BRANCH   1   2
ATOM      2  C   UNL     1       9.851  -0.530  22.781  0.00  0.00    +0.121 A 
ATOM      3  C   UNL     1      10.368  -0.057  23.991  0.00  0.00    +0.047 A 
ATOM      4  C   UNL     1      10.661   1.314  24.152  0.00  0.00    +0.027 A 
ATOM      5  C   UNL     1      10.427   2.215  23.105  0.00  0.00    +0.034 A 
ATOM      6  C   UNL     1       9.892   1.731  21.917  0.00  0.00    +0.027 A 
ATOM      7  C   UNL     1       9.600   0.379  21.762  0.00  0.00    +0.047 A 
BRANCH   5   8
ATOM      8  N   UNL     1      10.778   3.575  23.262  0.00  0.00    -0.286 N 
ATOM      9  H   UNL     1      11.690   3.853  22.921  0.00  0.00    +0.155 HD
ATOM     10  C   UNL     1       9.996   4.547  23.877  0.00  0.00    +0.214 C 
ATOM     11  O   UNL     1       8.979   4.363  24.533  0.00  0.00    -0.276 OA
ATOM     12  C   UNL     1      10.528   5.940  23.698  0.00  0.00    +0.109 C 
ENDBRANCH   5   8
ENDBRANCH   1   2
BRANCH   1  13
ATOM     13  C   UNL     1       9.878  -2.610  23.898  0.00  0.00    +0.261 C 
BRANCH  13  14
ATOM     14  C   UNL     1       8.665  -3.446  24.299  0.00  0.00    +0.166 C 
BRANCH  14  15
ATOM     15  O   UNL     1       8.943  -4.842  24.128  0.00  0.00    -0.387 OA
ATOM     16  H   UNL     1       9.486  -5.109  24.892  0.00  0.00    +0.210 HD
ENDBRANCH  14  15
BRANCH  14  17
ATOM     17  C   UNL     1       7.428  -3.045  23.479  0.00  0.00    +0.115 C 
BRANCH  17  18
ATOM     18  N   UNL     1       7.474  -3.703  22.168  0.00  0.00    -0.311 NA
ATOM     19  H   UNL     1       7.716  -2.993  21.471  0.00  0.00    +0.122 HD
BRANCH  18  21
ATOM     20  C   UNL     1       6.531  -5.851  21.570  0.00  0.00    +0.023 C 
ATOM     21  C   UNL     1       6.223  -4.372  21.810  0.00  0.00    +0.048 C 
ATOM     22  C   UNL     1       5.168  -4.240  22.912  0.00  0.00    +0.023 C 
ENDBRANCH  18  21
ENDBRANCH  17  18
ENDBRANCH  14  17
ENDBRANCH  13  14
ENDBRANCH   1  13
TORSDOF 8
ENDMDL
MODEL 2
REMARK VINA RESULT:      -6.0      1.262      1.828
REMARK  Name = 
REMARK  11 active torsions:
REMARK  status: ('A' for Active; 'I' for Inactive)
REMARK    1  A    between atoms: C_1  and  C_2
REMARK    2  A    between atoms: C_2  and  C_3
REMARK    3  A    between atoms: C_2  and  N_4
REMARK    4  A    between atoms: N_4  and  C_5
REMARK    5  A    between atoms: C_5  and  C_6
REMARK    6  A    between atoms: C_6  and  O_7
REMARK    7  A    between atoms: C_6  and  C_8
REMARK    8  A    between atoms: C_8  and  O_9
REMARK    9  A    between atoms: O_9  and  C_10
REMARK   10  A    between atoms: C_13  and  N_14
REMARK   11  A    between atoms: C_15  and  C_16
REMARK                            x       y       z     vdW  Elec       q    Type
REMARK                         _______ _______ _______ _____ _____    ______ ____
ROOT
ATOM      1  O   UNL     1      10.091  -1.784  22.517  0.00  0.00    -0.489 OA
ENDROOT
BRANCH   1   2
ATOM      2  C   UNL     1      10.161  -0.433  22.764  0.00  0.00    +0.121 A 
ATOM      3  C   UNL     1       9.735   0.425  21.745  0.00  0.00    +0.047 A 
ATOM      4  C   UNL     1       9.732   1.821  21.945  0.00  0.00    +0.027 A 
ATOM      5  C   UNL     1      10.164   2.362  23.164  0.00  0.00    +0.034 A 
ATOM      6  C   UNL     1      10.605   1.496  24.158  0.00  0.00    +0.027 A 
ATOM      7  C   UNL     1      10.611   0.118  23.955  0.00  0.00    +0.047 A 
BRANCH   5   8
ATOM      8  N   UNL     1      10.102   3.759  23.370  0.00  0.00    -0.286 N 
ATOM      9  H   UNL     1       9.179   4.175  23.395  0.00  0.00    +0.155 HD
ATOM     10  C   UNL     1      11.196   4.607  23.503  0.00  0.00    +0.214 C 
ATOM     11  O   UNL     1      12.369   4.330  23.286  0.00  0.00    -0.276 OA
ATOM     12  C   UNL     1      10.823   5.997  23.933  0.00  0.00    +0.109 C 
ENDBRANCH   5   8
ENDBRANCH   1   2
BRANCH   1  13
ATOM     13  C   UNL     1       8.772  -2.341  22.682  0.00  0.00    +0.261 C 
BRANCH  13  14
ATOM     14  C   UNL     1       8.661  -3.129  23.986  0.00  0.00    +0.166 C 
BRANCH  14  15
ATOM     15  O   UNL     1       9.903  -3.782  24.280  0.00  0.00    -0.387 OA
ATOM     16  H   UNL     1      10.234  -3.382  25.105  0.00  0.00    +0.210 HD
ENDBRANCH  14  15
BRANCH  14  17
ATOM     17  C   UNL     1       7.522  -4.159  23.908  0.00  0.00    +0.115 C 
BRANCH  17  18
ATOM     18  N   UNL     1       7.939  -5.289  23.069  0.00  0.00    -0.311 NA
ATOM     19  H   UNL     1       8.541  -4.921  22.327  0.00  0.00    +0.122 HD
BRANCH  18  21
ATOM     20  C   UNL     1       5.609  -5.847  23.420  0.00  0.00    +0.023 C 
ATOM     21  C   UNL     1       6.816  -6.035  22.499  0.00  0.00    +0.048 C 
ATOM     22  C   UNL     1       6.466  -5.550  21.090  0.00  0.00    +0.023 C 
ENDBRANCH  18  21
ENDBRANCH  17  18
ENDBRANCH  14  17
ENDBRANCH  13  14
ENDBRANCH   1  13
TORSDOF 8
ENDMDL
MODEL 3
REMARK VINA RESULT:      -5.9      1.838      2.440
REMARK  Name = 
REMARK  11 active torsions:
REMARK  status: ('A' for Active; 'I' for Inactive)
REMARK    1  A    between atoms: C_1  and  C_2
REMARK    2  A    between atoms: C_2  and  C_3
REMARK    3  A    between atoms: C_2  and  N_4
REMARK    4  A    between atoms: N_4  and  C_5
REMARK    5  A    between atoms: C_5  and  C_6
REMARK    6  A    between atoms: C_6  and  O_7
REMARK    7  A    between atoms: C_6  and  C_8
REMARK    8  A    between atoms: C_8  and  O_9
REMARK    9  A    between atoms: O_9  and  C_10
REMARK   10  A    between atoms: C_13  and  N_14
REMARK   11  A    between atoms: C_15  and  C_16
REMARK                            x       y       z     vdW  Elec       q    Type
REMARK                         _______ _______ _______ _____ _____    ______ ____
ROOT
ATOM      1  O   UNL     1      10.060  -1.660  22.489  0.00  0.00    -0.489 OA
ENDROOT
BRANCH   1   2
ATOM      2  C   UNL     1      10.148  -0.316  22.764  0.00  0.00    +0.121 A 
ATOM      3  C   UNL     1       9.768   0.569  21.750  0.00  0.00    +0.047 A 
ATOM      4  C   UNL     1       9.786   1.961  21.977  0.00  0.00    +0.027 A 
ATOM      5  C   UNL     1      10.193   2.471  23.217  0.00  0.00    +0.034 A 
ATOM      6  C   UNL     1      10.588   1.578  24.207  0.00  0.00    +0.027 A 
ATOM      7  C   UNL     1      10.574   0.204  23.978  0.00  0.00    +0.047 A 
BRANCH   5   8
ATOM      8  N   UNL     1      10.151   3.864  23.448  0.00  0.00    -0.286 N 
ATOM      9  H   UNL     1       9.234   4.286  23.531  0.00  0.00    +0.155 HD
ATOM     10  C   UNL     1      11.256   4.704  23.531  0.00  0.00    +0.214 C 
ATOM     11  O   UNL     1      12.413   4.425  23.244  0.00  0.00    -0.276 OA
ATOM     12  C   UNL     1      10.917   6.089  24.003  0.00  0.00    +0.109 C 
ENDBRANCH   5   8
ENDBRANCH   1   2
BRANCH   1  13
ATOM     13  C   UNL     1       8.738  -2.207  22.665  0.00  0.00    +0.261 C 
BRANCH  13  14
ATOM     14  C   UNL     1       8.680  -3.143  23.871  0.00  0.00    +0.166 C 
BRANCH  14  15
ATOM     15  O   UNL     1       9.997  -3.590  24.219  0.00  0.00    -0.387 OA
ATOM     16  H   UNL     1      10.599  -3.213  23.552  0.00  0.00    +0.210 HD
ENDBRANCH  14  15
BRANCH  14  17
ATOM     17  C   UNL     1       7.768  -4.347  23.586  0.00  0.00    +0.115 C 
BRANCH  17  18
ATOM     18  N   UNL     1       7.819  -5.281  24.717  0.00  0.00    -0.311 NA
ATOM     19  H   UNL     1       7.686  -6.227  24.348  0.00  0.00    +0.122 HD
BRANCH  18  21
ATOM     20  C   UNL     1       5.580  -5.821  25.465  0.00  0.00    +0.023 C 
ATOM     21  C   UNL     1       6.830  -4.990  25.756  0.00  0.00    +0.048 C 
ATOM     22  C   UNL     1       7.356  -5.327  27.154  0.00  0.00    +0.023 C 
ENDBRANCH  18  21
ENDBRANCH  17  18
ENDBRANCH  14  17
ENDBRANCH  13  14
ENDBRANCH   1  13
TORSDOF 8
ENDMDL
MODEL 4
REMARK VINA RESULT:      -5.7      1.906      2.668
REMARK  Name = 
REMARK  11 active torsions:
REMARK  status: ('A' for Active; 'I' for Inactive)
REMARK    1  A    between atoms: C_1  and  C_2
REMARK    2  A    between atoms: C_2  and  C_3
REMARK    3  A    between atoms: C_2  and  N_4
REMARK    4  A    between atoms: N_4  and  C_5
REMARK    5  A    between atoms: C_5  and  C_6
REMARK    6  A    between atoms: C_6  and  O_7
REMARK    7  A    between atoms: C_6  and  C_8
REMARK    8  A    between atoms: C_8  and  O_9
REMARK    9  A    between atoms: O_9  and  C_10
REMARK   10  A    between atoms: C_13  and  N_14
REMARK   11  A    between atoms: C_15  and  C_16
REMARK                            x       y       z     vdW  Elec       q    Type
REMARK                         _______ _______ _______ _____ _____    ______ ____
ROOT
ATOM      1  O   UNL     1      10.316  -1.821  22.882  0.00  0.00    -0.489 OA
ENDROOT
BRANCH   1   2
ATOM      2  C   UNL     1      10.187  -0.454  22.951  0.00  0.00    +0.121 A 
ATOM      3  C   UNL     1      10.390   0.145  24.198  0.00  0.00    +0.047 A 
ATOM      4  C   UNL     1      10.322   1.547  24.335  0.00  0.00    +0.027 A 
ATOM      5  C   UNL     1      10.040   2.353  23.223  0.00  0.00    +0.034 A 
ATOM      6  C   UNL     1       9.819   1.740  21.995  0.00  0.00    +0.027 A 
ATOM      7  C   UNL     1       9.882   0.355  21.865  0.00  0.00    +0.047 A 
BRANCH   5   8
ATOM      8  N   UNL     1      10.031   3.759  23.364  0.00  0.00    -0.286 N 
ATOM      9  H   UNL     1       9.127   4.214  23.340  0.00  0.00    +0.155 HD
ATOM     10  C   UNL     1      11.156   4.566  23.492  0.00  0.00    +0.214 C 
ATOM     11  O   UNL     1      12.322   4.231  23.326  0.00  0.00    -0.276 OA
ATOM     12  C   UNL     1      10.831   5.989  23.847  0.00  0.00    +0.109 C 
ENDBRANCH   5   8
ENDBRANCH   1   2
BRANCH   1  13
ATOM     13  C   UNL     1       9.695  -2.523  23.977  0.00  0.00    +0.261 C 
BRANCH  13  14
ATOM     14  C   UNL     1       8.361  -3.137  23.559  0.00  0.00    +0.166 C 
BRANCH  14  15
ATOM     15  O   UNL     1       8.145  -2.949  22.154  0.00  0.00    -0.387 OA
ATOM     16  H   UNL     1       7.183  -2.850  22.036  0.00  0.00    +0.210 HD
ENDBRANCH  14  15
BRANCH  14  17
ATOM     17  C   UNL     1       7.201  -2.528  24.362  0.00  0.00    +0.115 C 
BRANCH  17  18
ATOM     18  N   UNL     1       6.682  -1.349  23.659  0.00  0.00    -0.311 NA
ATOM     19  H   UNL     1       7.244  -1.218  22.812  0.00  0.00    +0.122 HD
BRANCH  18  21
ATOM     20  C   UNL     1       6.554   1.066  23.538  0.00  0.00    +0.023 C 
ATOM     21  C   UNL     1       6.689  -0.135  24.476  0.00  0.00    +0.048 C 
ATOM     22  C   UNL     1       5.544  -0.123  25.491  0.00  0.00    +0.023 C 
ENDBRANCH  18  21
ENDBRANCH  17  18
ENDBRANCH  14  17
ENDBRANCH  13  14
ENDBRANCH   1  13
TORSDOF 8
ENDMDL
MODEL 5
REMARK VINA RESULT:      -5.6      1.685      2.014
REMARK  Name = 
REMARK  11 active torsions:
REMARK  status: ('A' for Active; 'I' for Inactive)
REMARK    1  A    between atoms: C_1  and  C_2
REMARK    2  A    between atoms: C_2  and  C_3
REMARK    3  A    between atoms: C_2  and  N_4
REMARK    4  A    between atoms: N_4  and  C_5
REMARK    5  A    between atoms: C_5  and  C_6
REMARK    6  A    between atoms: C_6  and  O_7
REMARK    7  A    between atoms: C_6  and  C_8
REMARK    8  A    between atoms: C_8  and  O_9
REMARK    9  A    between atoms: O_9  and  C_10
REMARK   10  A    between atoms: C_13  and  N_14
REMARK   11  A    between atoms: C_15  and  C_16
REMARK                            x       y       z     vdW  Elec       q    Type
REMARK                         _______ _______ _______ _____ _____    ______ ____
ROOT
ATOM      1  O   UNL     1      10.440  -1.229  23.601  0.00  0.00    -0.489 OA
ENDROOT
BRANCH   1   2
ATOM      2  C   UNL     1      10.062   0.087  23.475  0.00  0.00    +0.121 A 
ATOM      3  C   UNL     1       9.953   0.599  22.178  0.00  0.00    +0.047 A 
ATOM      4  C   UNL     1       9.524   1.926  21.971  0.00  0.00    +0.027 A 
ATOM      5  C   UNL     1       9.210   2.747  23.062  0.00  0.00    +0.034 A 
ATOM      6  C   UNL     1       9.344   2.229  24.345  0.00  0.00    +0.027 A 
ATOM      7  C   UNL     1       9.774   0.920  24.547  0.00  0.00    +0.047 A 
BRANCH   5   8
ATOM      8  N   UNL     1       8.726   4.055  22.836  0.00  0.00    -0.286 N 
ATOM      9  H   UNL     1       9.357   4.818  23.046  0.00  0.00    +0.155 HD
ATOM     10  C   UNL     1       7.449   4.379  22.389  0.00  0.00    +0.214 C 
ATOM     11  O   UNL     1       6.491   3.623  22.292  0.00  0.00    -0.276 OA
ATOM     12  C   UNL     1       7.294   5.830  22.030  0.00  0.00    +0.109 C 
ENDBRANCH   5   8
ENDBRANCH   1   2
BRANCH   1  13
ATOM     13  C   UNL     1       9.421  -2.170  23.210  0.00  0.00    +0.261 C 
BRANCH  13  14
ATOM     14  C   UNL     1       9.044  -3.094  24.366  0.00  0.00    +0.166 C 
BRANCH  14  15
ATOM     15  O   UNL     1      10.004  -4.151  24.492  0.00  0.00    -0.387 OA
ATOM     16  H   UNL     1       9.784  -4.805  23.804  0.00  0.00    +0.210 HD
ENDBRANCH  14  15
BRANCH  14  17
ATOM     17  C   UNL     1       7.635  -3.676  24.165  0.00  0.00    +0.115 C 
BRANCH  17  18
ATOM     18  N   UNL     1       7.712  -4.864  23.308  0.00  0.00    -0.311 NA
ATOM     19  H   UNL     1       8.702  -5.086  23.168  0.00  0.00    +0.122 HD
BRANCH  18  21
ATOM     20  C   UNL     1       6.336  -6.013  21.680  0.00  0.00    +0.023 C 
ATOM     21  C   UNL     1       7.036  -4.697  22.020  0.00  0.00    +0.048 C 
ATOM     22  C   UNL     1       6.007  -3.564  22.059  0.00  0.00    +0.023 C 
ENDBRANCH  18  21
ENDBRANCH  17  18
ENDBRANCH  14  17
ENDBRANCH  13  14
ENDBRANCH   1  13
TORSDOF 8
ENDMDL
MODEL 6
REMARK VINA RESULT:      -5.6      1.628      2.304
REMARK  Name = 
REMARK  11 active torsions:
REMARK  status: ('A' for Active; 'I' for Inactive)
REMARK    1  A    between atoms: C_1  and  C_2
REMARK    2  A    between atoms: C_2  and  C_3
REMARK    3  A    between atoms: C_2  and  N_4
REMARK    4  A    between atoms: N_4  and  C_5
REMARK    5  A    between atoms: C_5  and  C_6
REMARK    6  A    between atoms: C_6  and  O_7
REMARK    7  A    between atoms: C_6  and  C_8
REMARK    8  A    between atoms: C_8  and  O_9
REMARK    9  A    between atoms: O_9  and  C_10
REMARK   10  A    between atoms: C_13  and  N_14
REMARK   11  A    between atoms: C_15  and  C_16
REMARK                            x       y       z     vdW  Elec       q    Type
REMARK                         _______ _______ _______ _____ _____    ______ ____
ROOT
ATOM      1  O   UNL     1       9.579  -1.823  22.915  0.00  0.00    -0.489 OA
ENDROOT
BRANCH   1   2
ATOM      2  C   UNL     1       9.806  -0.467  22.961  0.00  0.00    +0.121 A 
ATOM      3  C   UNL     1      10.266   0.063  24.170  0.00  0.00    +0.047 A 
ATOM      4  C   UNL     1      10.567   1.437  24.276  0.00  0.00    +0.027 A 
ATOM      5  C   UNL     1      10.401   2.285  23.173  0.00  0.00    +0.034 A 
ATOM      6  C   UNL     1       9.923   1.745  21.984  0.00  0.00    +0.027 A 
ATOM      7  C   UNL     1       9.621   0.389  21.885  0.00  0.00    +0.047 A 
BRANCH   5   8
ATOM      8  N   UNL     1      10.761   3.647  23.278  0.00  0.00    -0.286 N 
ATOM      9  H   UNL     1      11.672   3.907  22.921  0.00  0.00    +0.155 HD
ATOM     10  C   UNL     1       9.989   4.645  23.862  0.00  0.00    +0.214 C 
ATOM     11  O   UNL     1       8.975   4.492  24.531  0.00  0.00    -0.276 OA
ATOM     12  C   UNL     1      10.528   6.028  23.630  0.00  0.00    +0.109 C 
ENDBRANCH   5   8
ENDBRANCH   1   2
BRANCH   1  13
ATOM     13  C   UNL     1       8.467  -2.201  22.080  0.00  0.00    +0.261 C 
BRANCH  13  14
ATOM     14  C   UNL     1       7.247  -2.582  22.916  0.00  0.00    +0.166 C 
BRANCH  14  15
ATOM     15  O   UNL     1       6.320  -1.488  22.972  0.00  0.00    -0.387 OA
ATOM     16  H   UNL     1       5.431  -1.885  23.012  0.00  0.00    +0.210 HD
ENDBRANCH  14  15
BRANCH  14  17
ATOM     17  C   UNL     1       7.664  -2.999  24.336  0.00  0.00    +0.115 C 
BRANCH  17  18
ATOM     18  N   UNL     1       7.160  -4.347  24.619  0.00  0.00    -0.311 NA
ATOM     19  H   UNL     1       6.270  -4.250  25.116  0.00  0.00    +0.122 HD
BRANCH  18  21
ATOM     20  C   UNL     1       9.502  -4.612  25.172  0.00  0.00    +0.023 C 
ATOM     21  C   UNL     1       8.095  -5.167  25.392  0.00  0.00    +0.048 C 
ATOM     22  C   UNL     1       7.765  -5.152  26.887  0.00  0.00    +0.023 C 
ENDBRANCH  18  21
ENDBRANCH  17  18
ENDBRANCH  14  17
ENDBRANCH  13  14
ENDBRANCH   1  13
TORSDOF 8
ENDMDL
MODEL 7
REMARK VINA RESULT:      -5.5      1.965      6.720
REMARK  Name = 
REMARK  11 active torsions:
REMARK  status: ('A' for Active; 'I' for Inactive)
REMARK    1  A    between atoms: C_1  and  C_2
REMARK    2  A    between atoms: C_2  and  C_3
REMARK    3  A    between atoms: C_2  and  N_4
REMARK    4  A    between atoms: N_4  and  C_5
REMARK    5  A    between atoms: C_5  and  C_6
REMARK    6  A    between atoms: C_6  and  O_7
REMARK    7  A    between atoms: C_6  and  C_8
REMARK    8  A    between atoms: C_8  and  O_9
REMARK    9  A    between atoms: O_9  and  C_10
REMARK   10  A    between atoms: C_13  and  N_14
REMARK   11  A    between atoms: C_15  and  C_16
REMARK                            x       y       z     vdW  Elec       q    Type
REMARK                         _______ _______ _______ _____ _____    ______ ____
ROOT
ATOM      1  O   UNL     1      11.007   0.295  24.183  0.00  0.00    -0.489 OA
ENDROOT
BRANCH   1   2
ATOM      2  C   UNL     1      10.147  -0.656  23.685  0.00  0.00    +0.121 A 
ATOM      3  C   UNL     1       9.315  -1.308  24.602  0.00  0.00    +0.047 A 
ATOM      4  C   UNL     1       8.374  -2.260  24.157  0.00  0.00    +0.027 A 
ATOM      5  C   UNL     1       8.269  -2.567  22.794  0.00  0.00    +0.034 A 
ATOM      6  C   UNL     1       9.118  -1.926  21.899  0.00  0.00    +0.027 A 
ATOM      7  C   UNL     1      10.050  -0.991  22.342  0.00  0.00    +0.047 A 
BRANCH   5   8
ATOM      8  N   UNL     1       7.283  -3.480  22.358  0.00  0.00    -0.286 N 
ATOM      9  H   UNL     1       6.453  -3.087  21.932  0.00  0.00    +0.155 HD
ATOM     10  C   UNL     1       7.341  -4.863  22.499  0.00  0.00    +0.214 C 
ATOM     11  O   UNL     1       8.144  -5.499  23.169  0.00  0.00    -0.276 OA
ATOM     12  C   UNL     1       6.260  -5.584  21.745  0.00  0.00    +0.109 C 
ENDBRANCH   5   8
ENDBRANCH   1   2
BRANCH   1  13
ATOM     13  C   UNL     1      10.382   1.566  24.447  0.00  0.00    +0.261 C 
BRANCH  13  14
ATOM     14  C   UNL     1      10.500   2.504  23.247  0.00  0.00    +0.166 C 
BRANCH  14  15
ATOM     15  O   UNL     1      11.447   3.546  23.521  0.00  0.00    -0.387 OA
ATOM     16  H   UNL     1      11.919   3.713  22.685  0.00  0.00    +0.210 HD
ENDBRANCH  14  15
BRANCH  14  17
ATOM     17  C   UNL     1       9.133   3.108  22.887  0.00  0.00    +0.115 C 
BRANCH  17  18
ATOM     18  N   UNL     1       8.596   2.434  21.699  0.00  0.00    -0.311 NA
ATOM     19  H   UNL     1       8.805   3.020  20.886  0.00  0.00    +0.122 HD
BRANCH  18  21
ATOM     20  C   UNL     1       6.952   1.040  22.802  0.00  0.00    +0.023 C 
ATOM     21  C   UNL     1       7.160   2.162  21.784  0.00  0.00    +0.048 C 
ATOM     22  C   UNL     1       6.370   3.400  22.217  0.00  0.00    +0.023 C 
ENDBRANCH  18  21
ENDBRANCH  17  18
ENDBRANCH  14  17
ENDBRANCH  13  14
ENDBRANCH   1  13
TORSDOF 8
ENDMDL
MODEL 8
REMARK VINA RESULT:      -5.5      1.670      8.009
REMARK  Name = 
REMARK  11 active torsions:
REMARK  status: ('A' for Active; 'I' for Inactive)
REMARK    1  A    between atoms: C_1  and  C_2
REMARK    2  A    between atoms: C_2  and  C_3
REMARK    3  A    between atoms: C_2  and  N_4
REMARK    4  A    between atoms: N_4  and  C_5
REMARK    5  A    between atoms: C_5  and  C_6
REMARK    6  A    between atoms: C_6  and  O_7
REMARK    7  A    between atoms: C_6  and  C_8
REMARK    8  A    between atoms: C_8  and  O_9
REMARK    9  A    between atoms: O_9  and  C_10
REMARK   10  A    between atoms: C_13  and  N_14
REMARK   11  A    between atoms: C_15  and  C_16
REMARK                            x       y       z     vdW  Elec       q    Type
REMARK                         _______ _______ _______ _____ _____    ______ ____
ROOT
ATOM      1  O   UNL     1       9.400   2.031  22.675  0.00  0.00    -0.489 OA
ENDROOT
BRANCH   1   2
ATOM      2  C   UNL     1       8.987   0.723  22.581  0.00  0.00    +0.121 A 
ATOM      3  C   UNL     1       7.761   0.396  23.168  0.00  0.00    +0.047 A 
ATOM      4  C   UNL     1       7.251  -0.915  23.068  0.00  0.00    +0.027 A 
ATOM      5  C   UNL     1       7.973  -1.905  22.388  0.00  0.00    +0.034 A 
ATOM      6  C   UNL     1       9.200  -1.568  21.829  0.00  0.00    +0.027 A 
ATOM      7  C   UNL     1       9.703  -0.274  21.933  0.00  0.00    +0.047 A 
BRANCH   5   8
ATOM      8  N   UNL     1       7.423  -3.199  22.247  0.00  0.00    -0.286 N 
ATOM      9  H   UNL     1       6.635  -3.294  21.618  0.00  0.00    +0.155 HD
ATOM     10  C   UNL     1       7.846  -4.336  22.926  0.00  0.00    +0.214 C 
ATOM     11  O   UNL     1       8.624  -4.380  23.871  0.00  0.00    -0.276 OA
ATOM     12  C   UNL     1       7.226  -5.603  22.410  0.00  0.00    +0.109 C 
ENDBRANCH   5   8
ENDBRANCH   1   2
BRANCH   1  13
ATOM     13  C   UNL     1       9.871   2.402  23.986  0.00  0.00    +0.261 C 
BRANCH  13  14
ATOM     14  C   UNL     1       9.359   3.783  24.392  0.00  0.00    +0.166 C 
BRANCH  14  15
ATOM     15  O   UNL     1       7.948   3.880  24.152  0.00  0.00    -0.387 OA
ATOM     16  H   UNL     1       7.813   3.652  23.215  0.00  0.00    +0.210 HD
ENDBRANCH  14  15
BRANCH  14  17
ATOM     17  C   UNL     1      10.106   4.890  23.631  0.00  0.00    +0.115 C 
BRANCH  17  18
ATOM     18  N   UNL     1      11.335   4.341  23.047  0.00  0.00    -0.311 NA
ATOM     19  H   UNL     1      11.399   3.356  23.322  0.00  0.00    +0.122 HD
BRANCH  18  21
ATOM     20  C   UNL     1      13.224   5.579  22.176  0.00  0.00    +0.023 C 
ATOM     21  C   UNL     1      12.542   5.067  23.445  0.00  0.00    +0.048 C 
ATOM     22  C   UNL     1      12.220   6.247  24.366  0.00  0.00    +0.023 C 
ENDBRANCH  18  21
ENDBRANCH  17  18
ENDBRANCH  14  17
ENDBRANCH  13  14
ENDBRANCH   1  13
TORSDOF 8
ENDMDL
MODEL 9
REMARK VINA RESULT:      -5.4      2.497      4.058
REMARK  Name = 
REMARK  11 active torsions:
REMARK  status: ('A' for Active; 'I' for Inactive)
REMARK    1  A    between atoms: C_1  and  C_2
REMARK    2  A    between atoms: C_2  and  C_3
REMARK    3  A    between atoms: C_2  and  N_4
REMARK    4  A    between atoms: N_4  and  C_5
REMARK    5  A    between atoms: C_5  and  C_6
REMARK    6  A    between atoms: C_6  and  O_7
REMARK    7  A    between atoms: C_6  and  C_8
REMARK    8  A    between atoms: C_8  and  O_9
REMARK    9  A    between atoms: O_9  and  C_10
REMARK   10  A    between atoms: C_13  and  N_14
REMARK   11  A    between atoms: C_15  and  C_16
REMARK                            x       y       z     vdW  Elec       q    Type
REMARK                         _______ _______ _______ _____ _____    ______ ____
ROOT
ATOM      1  O   UNL     1       7.260  -4.780  23.503  0.00  0.00    -0.489 OA
ENDROOT
BRANCH   1   2
ATOM      2  C   UNL     1       8.024  -3.639  23.429  0.00  0.00    +0.121 A 
ATOM      3  C   UNL     1       7.616  -2.654  22.524  0.00  0.00    +0.047 A 
ATOM      4  C   UNL     1       8.324  -1.438  22.429  0.00  0.00    +0.027 A 
ATOM      5  C   UNL     1       9.448  -1.209  23.234  0.00  0.00    +0.034 A 
ATOM      6  C   UNL     1       9.853  -2.207  24.113  0.00  0.00    +0.027 A 
ATOM      7  C   UNL     1       9.155  -3.409  24.201  0.00  0.00    +0.047 A 
BRANCH   5   8
ATOM      8  N   UNL     1      10.112   0.037  23.169  0.00  0.00    -0.286 N 
ATOM      9  H   UNL     1      10.860   0.120  22.493  0.00  0.00    +0.155 HD
ATOM     10  C   UNL     1       9.849   1.137  23.978  0.00  0.00    +0.214 C 
ATOM     11  O   UNL     1       9.145   1.160  24.980  0.00  0.00    -0.276 OA
ATOM     12  C   UNL     1      10.554   2.386  23.532  0.00  0.00    +0.109 C 
ENDBRANCH   5   8
ENDBRANCH   1   2
BRANCH   1  13
ATOM     13  C   UNL     1       7.430  -5.671  22.383  0.00  0.00    +0.261 C 
BRANCH  13  14
ATOM     14  C   UNL     1       6.096  -5.966  21.699  0.00  0.00    +0.166 C 
BRANCH  14  15
ATOM     15  O   UNL     1       5.894  -5.073  20.596  0.00  0.00    -0.387 OA
ATOM     16  H   UNL     1       6.372  -4.253  20.816  0.00  0.00    +0.210 HD
ENDBRANCH  14  15
BRANCH  14  17
ATOM     17  C   UNL     1       4.932  -5.851  22.697  0.00  0.00    +0.115 C 
BRANCH  17  18
ATOM     18  N   UNL     1       4.879  -7.058  23.530  0.00  0.00    -0.311 NA
ATOM     19  H   UNL     1       4.256  -7.729  23.069  0.00  0.00    +0.122 HD
BRANCH  18  21
ATOM     20  C   UNL     1       4.159  -5.301  25.032  0.00  0.00    +0.023 C 
ATOM     21  C   UNL     1       4.434  -6.800  24.900  0.00  0.00    +0.048 C 
ATOM     22  C   UNL     1       3.168  -7.587  25.247  0.00  0.00    +0.023 C 
ENDBRANCH  18  21
ENDBRANCH  17  18
ENDBRANCH  14  17
ENDBRANCH  13  14
ENDBRANCH   1  13
TORSDOF 8
ENDMDL
