MODEL 1
REMARK VINA RESULT:      -4.6      0.000      0.000
REMARK  Name = 
REMARK  8 active torsions:
REMARK  status: ('A' for Active; 'I' for Inactive)
REMARK    1  A    between atoms: C_1  and  C_2
REMARK    2  A    between atoms: N_4  and  CA_5
REMARK    3  A    between atoms: CA_5  and  CB_7
REMARK    4  A    between atoms: CA_5  and  C_12
REMARK    5  A    between atoms: CB_7  and  CG_8
REMARK    6  A    between atoms: CG_8  and  CD_9
REMARK    7  A    between atoms: CD_9  and  OE1_10
REMARK    8  A    between atoms: C_12  and  O_13
REMARK                            x       y       z     vdW  Elec       q    Type
REMARK                         _______ _______ _______ _____ _____    ______ ____
ROOT
ATOM      1  CA  GLU A   1       7.638  -2.900  23.222  0.00  0.00    +0.182 C 
ENDROOT
BRANCH   1   4
ATOM      2  C   UNK A   0       6.233  -5.708  21.082  0.00  0.00    +0.109 C 
ATOM      3  C   UNK A   0       6.333  -4.339  21.696  0.00  0.00    +0.211 C 
ATOM      4  N   GLU A   1       7.401  -4.168  22.542  0.00  0.00    -0.303 N 
ATOM      5  H   GLU A   1       8.003  -4.952  22.774  0.00  0.00    +0.149 HD
ATOM      6  O   UNK A   0       5.550  -3.435  21.422  0.00  0.00    -0.276 OA
ENDBRANCH   1   4
BRANCH   1   7
ATOM      7  C   GLU A   1       9.002  -2.369  22.775  0.00  0.00    +0.325 C 
ATOM      8  OXT GLU A   1       9.171  -1.666  21.789  0.00  0.00    -0.249 OA
BRANCH   7   9
ATOM      9  O   GLU A   1      10.031  -2.762  23.565  0.00  0.00    -0.479 OA
ATOM     10  H   GLU A   1       9.873  -3.589  24.060  0.00  0.00    +0.295 HD
ENDBRANCH   7   9
ENDBRANCH   1   7
BRANCH   1  11
ATOM     11  CB  GLU A   1       7.600  -3.088  24.742  0.00  0.00    +0.045 C 
BRANCH  11  12
ATOM     12  CG  GLU A   1       7.277  -4.526  25.150  0.00  0.00    +0.123 C 
BRANCH  12  13
ATOM     13  CD  GLU A   1       8.524  -5.305  25.493  0.00  0.00    +0.305 C 
ATOM     14  OE2 GLU A   1       9.497  -5.431  24.768  0.00  0.00    -0.251 OA
BRANCH  13  15
ATOM     15  OE1 GLU A   1       8.456  -5.870  26.721  0.00  0.00    -0.481 OA
ATOM     16  HE1 GLU A   1       8.658  -5.262  27.457  0.00  0.00    +0.295 HD
ENDBRANCH  13  15
ENDBRANCH  12  13
ENDBRANCH  11  12
ENDBRANCH   1  11
TORSDOF 7
ENDMDL
MODEL 2
REMARK VINA RESULT:      -4.6      1.631      3.920
REMARK  Name = 
REMARK  8 active torsions:
REMARK  status: ('A' for Active; 'I' for Inactive)
REMARK    1  A    between atoms: C_1  and  C_2
REMARK    2  A    between atoms: N_4  and  CA_5
REMARK    3  A    between atoms: CA_5  and  CB_7
REMARK    4  A    between atoms: CA_5  and  C_12
REMARK    5  A    between atoms: CB_7  and  CG_8
REMARK    6  A    between atoms: CG_8  and  CD_9
REMARK    7  A    between atoms: CD_9  and  OE1_10
REMARK    8  A    between atoms: C_12  and  O_13
REMARK                            x       y       z     vdW  Elec       q    Type
REMARK                         _______ _______ _______ _____ _____    ______ ____
ROOT
ATOM      1  CA  GLU A   1       8.612  -4.447  24.336  0.00  0.00    +0.182 C 
ENDROOT
BRANCH   1   4
ATOM      2  C   UNK A   0       5.343  -5.398  22.650  0.00  0.00    +0.109 C 
ATOM      3  C   UNK A   0       6.825  -5.369  22.902  0.00  0.00    +0.211 C 
ATOM      4  N   GLU A   1       7.210  -4.587  23.962  0.00  0.00    -0.303 N 
ATOM      5  H   GLU A   1       6.527  -4.022  24.459  0.00  0.00    +0.149 HD
ATOM      6  O   UNK A   0       7.619  -6.032  22.241  0.00  0.00    -0.276 OA
ENDBRANCH   1   4
BRANCH   1   7
ATOM      7  C   GLU A   1       8.873  -5.345  25.547  0.00  0.00    +0.325 C 
ATOM      8  OXT GLU A   1       7.996  -5.752  26.296  0.00  0.00    -0.249 OA
BRANCH   7   9
ATOM      9  O   GLU A   1      10.181  -5.644  25.738  0.00  0.00    -0.479 OA
ATOM     10  H   GLU A   1      10.723  -4.907  26.078  0.00  0.00    +0.295 HD
ENDBRANCH   7   9
ENDBRANCH   1   7
BRANCH   1  11
ATOM     11  CB  GLU A   1       8.941  -2.986  24.662  0.00  0.00    +0.045 C 
BRANCH  11  12
ATOM     12  CG  GLU A   1       9.917  -2.365  23.661  0.00  0.00    +0.123 C 
BRANCH  12  13
ATOM     13  CD  GLU A   1       9.224  -1.953  22.385  0.00  0.00    +0.305 C 
ATOM     14  OE2 GLU A   1       8.019  -1.973  22.199  0.00  0.00    -0.251 OA
BRANCH  13  15
ATOM     15  OE1 GLU A   1      10.098  -1.546  21.434  0.00  0.00    -0.481 OA
ATOM     16  HE1 GLU A   1      10.317  -2.227  20.770  0.00  0.00    +0.295 HD
ENDBRANCH  13  15
ENDBRANCH  12  13
ENDBRANCH  11  12
ENDBRANCH   1  11
TORSDOF 7
ENDMDL
MODEL 3
REMARK VINA RESULT:      -4.6      3.081      5.589
REMARK  Name = 
REMARK  8 active torsions:
REMARK  status: ('A' for Active; 'I' for Inactive)
REMARK    1  A    between atoms: C_1  and  C_2
REMARK    2  A    between atoms: N_4  and  CA_5
REMARK    3  A    between atoms: CA_5  and  CB_7
REMARK    4  A    between atoms: CA_5  and  C_12
REMARK    5  A    between atoms: CB_7  and  CG_8
REMARK    6  A    between atoms: CG_8  and  CD_9
REMARK    7  A    between atoms: CD_9  and  OE1_10
REMARK    8  A    between atoms: C_12  and  O_13
REMARK                            x       y       z     vdW  Elec       q    Type
REMARK                         _______ _______ _______ _____ _____    ______ ____
ROOT
ATOM      1  CA  GLU A   1      10.251  -0.867  23.774  0.00  0.00    +0.182 C 
ENDROOT
BRANCH   1   4
ATOM      2  C   UNK A   0       7.596  -3.505  24.429  0.00  0.00    +0.109 C 
ATOM      3  C   UNK A   0       8.969  -2.934  24.206  0.00  0.00    +0.211 C 
ATOM      4  N   GLU A   1       8.999  -1.576  24.009  0.00  0.00    -0.303 N 
ATOM      5  H   GLU A   1       8.134  -1.047  23.942  0.00  0.00    +0.149 HD
ATOM      6  O   UNK A   0       9.984  -3.623  24.247  0.00  0.00    -0.276 OA
ENDBRANCH   1   4
BRANCH   1   7
ATOM      7  C   GLU A   1      10.303   0.334  24.721  0.00  0.00    +0.325 C 
ATOM      8  OXT GLU A   1      10.771   1.422  24.418  0.00  0.00    -0.249 OA
BRANCH   7   9
ATOM      9  O   GLU A   1       9.795   0.085  25.952  0.00  0.00    -0.479 OA
ATOM     10  H   GLU A   1      10.373  -0.448  26.533  0.00  0.00    +0.295 HD
ENDBRANCH   7   9
ENDBRANCH   1   7
BRANCH   1  11
ATOM     11  CB  GLU A   1      10.349  -0.412  22.314  0.00  0.00    +0.045 C 
BRANCH  11  12
ATOM     12  CG  GLU A   1       8.984  -0.088  21.706  0.00  0.00    +0.123 C 
BRANCH  12  13
ATOM     13  CD  GLU A   1       8.781   1.399  21.542  0.00  0.00    +0.305 C 
ATOM     14  OE2 GLU A   1       7.702   1.953  21.422  0.00  0.00    -0.251 OA
BRANCH  13  15
ATOM     15  OE1 GLU A   1       9.951   2.080  21.540  0.00  0.00    -0.481 OA
ATOM     16  HE1 GLU A   1      10.008   2.782  20.865  0.00  0.00    +0.295 HD
ENDBRANCH  13  15
ENDBRANCH  12  13
ENDBRANCH  11  12
ENDBRANCH   1  11
TORSDOF 7
ENDMDL
MODEL 4
REMARK VINA RESULT:      -4.5      1.338      3.356
REMARK  Name = 
REMARK  8 active torsions:
REMARK  status: ('A' for Active; 'I' for Inactive)
REMARK    1  A    between atoms: C_1  and  C_2
REMARK    2  A    between atoms: N_4  and  CA_5
REMARK    3  A    between atoms: CA_5  and  CB_7
REMARK    4  A    between atoms: CA_5  and  C_12
REMARK    5  A    between atoms: CB_7  and  CG_8
REMARK    6  A    between atoms: CG_8  and  CD_9
REMARK    7  A    between atoms: CD_9  and  OE1_10
REMARK    8  A    between atoms: C_12  and  O_13
REMARK                            x       y       z     vdW  Elec       q    Type
REMARK                         _______ _______ _______ _____ _____    ______ ____
ROOT
ATOM      1  CA  GLU A   1       7.714  -3.450  22.579  0.00  0.00    +0.182 C 
ENDROOT
BRANCH   1   4
ATOM      2  C   UNK A   0       9.813  -0.921  24.484  0.00  0.00    +0.109 C 
ATOM      3  C   UNK A   0       9.489  -1.979  23.467  0.00  0.00    +0.211 C 
ATOM      4  N   GLU A   1       8.190  -2.422  23.497  0.00  0.00    -0.303 N 
ATOM      5  H   GLU A   1       7.553  -2.098  24.219  0.00  0.00    +0.149 HD
ATOM      6  O   UNK A   0      10.309  -2.376  22.644  0.00  0.00    -0.276 OA
ENDBRANCH   1   4
BRANCH   1   7
ATOM      7  C   GLU A   1       6.308  -3.061  22.118  0.00  0.00    +0.325 C 
ATOM      8  OXT GLU A   1       5.669  -3.682  21.279  0.00  0.00    -0.249 OA
BRANCH   7   9
ATOM      9  O   GLU A   1       5.825  -1.943  22.710  0.00  0.00    -0.479 OA
ATOM     10  H   GLU A   1       5.823  -1.966  23.687  0.00  0.00    +0.295 HD
ENDBRANCH   7   9
ENDBRANCH   1   7
BRANCH   1  11
ATOM     11  CB  GLU A   1       7.702  -4.821  23.263  0.00  0.00    +0.045 C 
BRANCH  11  12
ATOM     12  CG  GLU A   1       7.586  -4.719  24.785  0.00  0.00    +0.123 C 
BRANCH  12  13
ATOM     13  CD  GLU A   1       8.821  -5.245  25.477  0.00  0.00    +0.305 C 
ATOM     14  OE2 GLU A   1       9.964  -5.108  25.077  0.00  0.00    -0.251 OA
BRANCH  13  15
ATOM     15  OE1 GLU A   1       8.527  -5.905  26.621  0.00  0.00    -0.481 OA
ATOM     16  HE1 GLU A   1       9.270  -5.975  27.249  0.00  0.00    +0.295 HD
ENDBRANCH  13  15
ENDBRANCH  12  13
ENDBRANCH  11  12
ENDBRANCH   1  11
TORSDOF 7
ENDMDL
MODEL 5
REMARK VINA RESULT:      -4.5      5.062      7.151
REMARK  Name = 
REMARK  8 active torsions:
REMARK  status: ('A' for Active; 'I' for Inactive)
REMARK    1  A    between atoms: C_1  and  C_2
REMARK    2  A    between atoms: N_4  and  CA_5
REMARK    3  A    between atoms: CA_5  and  CB_7
REMARK    4  A    between atoms: CA_5  and  C_12
REMARK    5  A    between atoms: CB_7  and  CG_8
REMARK    6  A    between atoms: CG_8  and  CD_9
REMARK    7  A    between atoms: CD_9  and  OE1_10
REMARK    8  A    between atoms: C_12  and  O_13
REMARK                            x       y       z     vdW  Elec       q    Type
REMARK                         _______ _______ _______ _____ _____    ______ ____
ROOT
ATOM      1  CA  GLU A   1       9.705   2.094  23.174  0.00  0.00    +0.182 C 
ENDROOT
BRANCH   1   4
ATOM      2  C   UNK A   0      10.735   5.704  23.759  0.00  0.00    +0.109 C 
ATOM      3  C   UNK A   0       9.888   4.465  23.844  0.00  0.00    +0.211 C 
ATOM      4  N   GLU A   1      10.406   3.373  23.192  0.00  0.00    -0.303 N 
ATOM      5  H   GLU A   1      11.253   3.458  22.639  0.00  0.00    +0.149 HD
ATOM      6  O   UNK A   0       8.843   4.423  24.486  0.00  0.00    -0.276 OA
ENDBRANCH   1   4
BRANCH   1   7
ATOM      7  C   GLU A   1      10.051   1.344  24.462  0.00  0.00    +0.325 C 
ATOM      8  OXT GLU A   1      11.084   0.709  24.625  0.00  0.00    -0.249 OA
BRANCH   7   9
ATOM      9  O   GLU A   1       9.096   1.425  25.419  0.00  0.00    -0.479 OA
ATOM     10  H   GLU A   1       9.297   2.046  26.146  0.00  0.00    +0.295 HD
ENDBRANCH   7   9
ENDBRANCH   1   7
BRANCH   1  11
ATOM     11  CB  GLU A   1      10.108   1.275  21.943  0.00  0.00    +0.045 C 
BRANCH  11  12
ATOM     12  CG  GLU A   1       8.967   0.402  21.418  0.00  0.00    +0.123 C 
BRANCH  12  13
ATOM     13  CD  GLU A   1       9.177  -1.055  21.752  0.00  0.00    +0.305 C 
ATOM     14  OE2 GLU A   1       8.303  -1.831  22.100  0.00  0.00    -0.251 OA
BRANCH  13  15
ATOM     15  OE1 GLU A   1      10.472  -1.430  21.626  0.00  0.00    -0.481 OA
ATOM     16  HE1 GLU A   1      11.042  -0.771  21.187  0.00  0.00    +0.295 HD
ENDBRANCH  13  15
ENDBRANCH  12  13
ENDBRANCH  11  12
ENDBRANCH   1  11
TORSDOF 7
ENDMDL
MODEL 6
REMARK VINA RESULT:      -4.4      3.536      5.841
REMARK  Name = 
REMARK  8 active torsions:
REMARK  status: ('A' for Active; 'I' for Inactive)
REMARK    1  A    between atoms: C_1  and  C_2
REMARK    2  A    between atoms: N_4  and  CA_5
REMARK    3  A    between atoms: CA_5  and  CB_7
REMARK    4  A    between atoms: CA_5  and  C_12
REMARK    5  A    between atoms: CB_7  and  CG_8
REMARK    6  A    between atoms: CG_8  and  CD_9
REMARK    7  A    between atoms: CD_9  and  OE1_10
REMARK    8  A    between atoms: C_12  and  O_13
REMARK                            x       y       z     vdW  Elec       q    Type
REMARK                         _______ _______ _______ _____ _____    ______ ____
ROOT
ATOM      1  CA  GLU A   1       9.525  -0.455  23.552  0.00  0.00    +0.182 C 
ENDROOT
BRANCH   1   4
ATOM      2  C   UNK A   0       8.796  -3.556  25.623  0.00  0.00    +0.109 C 
ATOM      3  C   UNK A   0       8.529  -2.252  24.924  0.00  0.00    +0.211 C 
ATOM      4  N   GLU A   1       9.615  -1.718  24.275  0.00  0.00    -0.303 N 
ATOM      5  H   GLU A   1      10.527  -2.156  24.355  0.00  0.00    +0.149 HD
ATOM      6  O   UNK A   0       7.416  -1.734  24.896  0.00  0.00    -0.276 OA
ENDBRANCH   1   4
BRANCH   1   7
ATOM      7  C   GLU A   1       9.796  -0.734  22.072  0.00  0.00    +0.325 C 
ATOM      8  OXT GLU A   1       9.343  -0.061  21.157  0.00  0.00    -0.249 OA
BRANCH   7   9
ATOM      9  O   GLU A   1      10.578  -1.818  21.851  0.00  0.00    -0.479 OA
ATOM     10  H   GLU A   1      10.813  -1.969  20.915  0.00  0.00    +0.295 HD
ENDBRANCH   7   9
ENDBRANCH   1   7
BRANCH   1  11
ATOM     11  CB  GLU A   1      10.532   0.557  24.107  0.00  0.00    +0.045 C 
BRANCH  11  12
ATOM     12  CG  GLU A   1       9.988   1.987  24.113  0.00  0.00    +0.123 C 
BRANCH  12  13
ATOM     13  CD  GLU A   1      10.710   2.865  23.120  0.00  0.00    +0.305 C 
ATOM     14  OE2 GLU A   1      11.503   3.747  23.405  0.00  0.00    -0.251 OA
BRANCH  13  15
ATOM     15  OE1 GLU A   1      10.382   2.572  21.840  0.00  0.00    -0.481 OA
ATOM     16  HE1 GLU A   1       9.686   3.142  21.461  0.00  0.00    +0.295 HD
ENDBRANCH  13  15
ENDBRANCH  12  13
ENDBRANCH  11  12
ENDBRANCH   1  11
TORSDOF 7
ENDMDL
MODEL 7
REMARK VINA RESULT:      -4.4      1.525      4.324
REMARK  Name = 
REMARK  8 active torsions:
REMARK  status: ('A' for Active; 'I' for Inactive)
REMARK    1  A    between atoms: C_1  and  C_2
REMARK    2  A    between atoms: N_4  and  CA_5
REMARK    3  A    between atoms: CA_5  and  CB_7
REMARK    4  A    between atoms: CA_5  and  C_12
REMARK    5  A    between atoms: CB_7  and  CG_8
REMARK    6  A    between atoms: CG_8  and  CD_9
REMARK    7  A    between atoms: CD_9  and  OE1_10
REMARK    8  A    between atoms: C_12  and  O_13
REMARK                            x       y       z     vdW  Elec       q    Type
REMARK                         _______ _______ _______ _____ _____    ______ ____
ROOT
ATOM      1  CA  GLU A   1       8.151  -3.910  24.701  0.00  0.00    +0.182 C 
ENDROOT
BRANCH   1   4
ATOM      2  C   UNK A   0      10.288  -1.570  22.604  0.00  0.00    +0.109 C 
ATOM      3  C   UNK A   0       9.492  -2.047  23.787  0.00  0.00    +0.211 C 
ATOM      4  N   GLU A   1       8.954  -3.303  23.646  0.00  0.00    -0.303 N 
ATOM      5  H   GLU A   1       9.038  -3.802  22.766  0.00  0.00    +0.149 HD
ATOM      6  O   UNK A   0       9.376  -1.385  24.815  0.00  0.00    -0.276 OA
ENDBRANCH   1   4
BRANCH   1   7
ATOM      7  C   GLU A   1       9.094  -4.653  25.649  0.00  0.00    +0.325 C 
ATOM      8  OXT GLU A   1       9.009  -4.611  26.869  0.00  0.00    -0.249 OA
BRANCH   7   9
ATOM      9  O   GLU A   1      10.062  -5.361  25.018  0.00  0.00    -0.479 OA
ATOM     10  H   GLU A   1       9.819  -6.280  24.797  0.00  0.00    +0.295 HD
ENDBRANCH   7   9
ENDBRANCH   1   7
BRANCH   1  11
ATOM     11  CB  GLU A   1       7.114  -4.868  24.106  0.00  0.00    +0.045 C 
BRANCH  11  12
ATOM     12  CG  GLU A   1       7.421  -5.242  22.655  0.00  0.00    +0.123 C 
BRANCH  12  13
ATOM     13  CD  GLU A   1       6.189  -5.175  21.785  0.00  0.00    +0.305 C 
ATOM     14  OE2 GLU A   1       5.698  -4.154  21.336  0.00  0.00    -0.251 OA
BRANCH  13  15
ATOM     15  OE1 GLU A   1       5.662  -6.399  21.547  0.00  0.00    -0.481 OA
ATOM     16  HE1 GLU A   1       5.110  -6.749  22.271  0.00  0.00    +0.295 HD
ENDBRANCH  13  15
ENDBRANCH  12  13
ENDBRANCH  11  12
ENDBRANCH   1  11
TORSDOF 7
ENDMDL
MODEL 8
REMARK VINA RESULT:      -4.4      1.242      3.391
REMARK  Name = 
REMARK  8 active torsions:
REMARK  status: ('A' for Active; 'I' for Inactive)
REMARK    1  A    between atoms: C_1  and  C_2
REMARK    2  A    between atoms: N_4  and  CA_5
REMARK    3  A    between atoms: CA_5  and  CB_7
REMARK    4  A    between atoms: CA_5  and  C_12
REMARK    5  A    between atoms: CB_7  and  CG_8
REMARK    6  A    between atoms: CG_8  and  CD_9
REMARK    7  A    between atoms: CD_9  and  OE1_10
REMARK    8  A    between atoms: C_12  and  O_13
REMARK                            x       y       z     vdW  Elec       q    Type
REMARK                         _______ _______ _______ _____ _____    ______ ____
ROOT
ATOM      1  CA  GLU A   1       7.719  -3.764  22.739  0.00  0.00    +0.182 C 
ENDROOT
BRANCH   1   4
ATOM      2  C   UNK A   0       9.604  -0.523  22.123  0.00  0.00    +0.109 C 
ATOM      3  C   UNK A   0       9.375  -1.938  22.577  0.00  0.00    +0.211 C 
ATOM      4  N   GLU A   1       8.106  -2.412  22.353  0.00  0.00    -0.303 N 
ATOM      5  H   GLU A   1       7.386  -1.798  21.985  0.00  0.00    +0.149 HD
ATOM      6  O   UNK A   0      10.266  -2.627  23.064  0.00  0.00    -0.276 OA
ENDBRANCH   1   4
BRANCH   1   7
ATOM      7  C   GLU A   1       6.548  -4.194  21.853  0.00  0.00    +0.325 C 
ATOM      8  OXT GLU A   1       5.570  -3.495  21.626  0.00  0.00    -0.249 OA
BRANCH   7   9
ATOM      9  O   GLU A   1       6.675  -5.443  21.343  0.00  0.00    -0.479 OA
ATOM     10  H   GLU A   1       6.468  -5.520  20.391  0.00  0.00    +0.295 HD
ENDBRANCH   7   9
ENDBRANCH   1   7
BRANCH   1  11
ATOM     11  CB  GLU A   1       7.325  -3.810  24.219  0.00  0.00    +0.045 C 
BRANCH  11  12
ATOM     12  CG  GLU A   1       7.808  -5.082  24.918  0.00  0.00    +0.123 C 
BRANCH  12  13
ATOM     13  CD  GLU A   1       9.101  -4.855  25.664  0.00  0.00    +0.305 C 
ATOM     14  OE2 GLU A   1       9.189  -4.499  26.827  0.00  0.00    -0.251 OA
BRANCH  13  15
ATOM     15  OE1 GLU A   1      10.188  -5.091  24.893  0.00  0.00    -0.481 OA
ATOM     16  HE1 GLU A   1      10.468  -6.025  24.866  0.00  0.00    +0.295 HD
ENDBRANCH  13  15
ENDBRANCH  12  13
ENDBRANCH  11  12
ENDBRANCH   1  11
TORSDOF 7
ENDMDL
MODEL 9
REMARK VINA RESULT:      -4.3      2.645      4.155
REMARK  Name = 
REMARK  8 active torsions:
REMARK  status: ('A' for Active; 'I' for Inactive)
REMARK    1  A    between atoms: C_1  and  C_2
REMARK    2  A    between atoms: N_4  and  CA_5
REMARK    3  A    between atoms: CA_5  and  CB_7
REMARK    4  A    between atoms: CA_5  and  C_12
REMARK    5  A    between atoms: CB_7  and  CG_8
REMARK    6  A    between atoms: CG_8  and  CD_9
REMARK    7  A    between atoms: CD_9  and  OE1_10
REMARK    8  A    between atoms: C_12  and  O_13
REMARK                            x       y       z     vdW  Elec       q    Type
REMARK                         _______ _______ _______ _____ _____    ______ ____
ROOT
ATOM      1  CA  GLU A   1       9.258  -1.682  24.151  0.00  0.00    +0.182 C 
ENDROOT
BRANCH   1   4
ATOM      2  C   UNK A   0       9.269   2.089  24.610  0.00  0.00    +0.109 C 
ATOM      3  C   UNK A   0       9.827   0.708  24.412  0.00  0.00    +0.211 C 
ATOM      4  N   GLU A   1       8.882  -0.285  24.337  0.00  0.00    -0.303 N 
ATOM      5  H   GLU A   1       7.901  -0.074  24.491  0.00  0.00    +0.149 HD
ATOM      6  O   UNK A   0      11.028   0.494  24.281  0.00  0.00    -0.276 OA
ENDBRANCH   1   4
BRANCH   1   7
ATOM      7  C   GLU A   1       9.265  -1.977  22.650  0.00  0.00    +0.325 C 
ATOM      8  OXT GLU A   1       8.308  -2.433  22.039  0.00  0.00    -0.249 OA
BRANCH   7   9
ATOM      9  O   GLU A   1      10.444  -1.705  22.042  0.00  0.00    -0.479 OA
ATOM     10  H   GLU A   1      10.435  -1.797  21.070  0.00  0.00    +0.295 HD
ENDBRANCH   7   9
ENDBRANCH   1   7
BRANCH   1  11
ATOM     11  CB  GLU A   1       8.278  -2.606  24.882  0.00  0.00    +0.045 C 
BRANCH  11  12
ATOM     12  CG  GLU A   1       8.986  -3.647  25.751  0.00  0.00    +0.123 C 
BRANCH  12  13
ATOM     13  CD  GLU A   1       9.315  -4.898  24.972  0.00  0.00    +0.305 C 
ATOM     14  OE2 GLU A   1       8.681  -5.321  24.021  0.00  0.00    -0.251 OA
BRANCH  13  15
ATOM     15  OE1 GLU A   1      10.415  -5.526  25.448  0.00  0.00    -0.481 OA
ATOM     16  HE1 GLU A   1      11.188  -4.944  25.576  0.00  0.00    +0.295 HD
ENDBRANCH  13  15
ENDBRANCH  12  13
ENDBRANCH  11  12
ENDBRANCH   1  11
TORSDOF 7
ENDMDL
