MODEL 1
REMARK VINA RESULT:      -8.0      0.000      0.000
REMARK  Name = 
REMARK  5 active torsions:
REMARK  status: ('A' for Active; 'I' for Inactive)
REMARK    1  A    between atoms: C_1  and  O_2
REMARK    2  A    between atoms: O_2  and  C_3
REMARK    3  A    between atoms: C_5  and  N_9
REMARK    4  A    between atoms: C_15  and  S_17
REMARK    5  A    between atoms: S_17  and  N_18
REMARK                            x       y       z     vdW  Elec       q    Type
REMARK                         _______ _______ _______ _____ _____    ______ ____
ROOT
ATOM      1  N   UNL     1       9.370   1.839  23.120  0.00  0.00    -0.202 N 
ATOM      2  S   UNL     1       9.499   0.871  24.536  0.00  0.00    +0.081 S 
ATOM      3  O   UNL     1       8.443   1.232  25.456  0.00  0.00    -0.149 OA
ATOM      4  O   UNL     1      10.888   0.776  24.928  0.00  0.00    -0.149 OA
ATOM      5  C   UNL     1       9.126  -0.744  23.947  0.00  0.00    +0.151 A 
ATOM      6  S   UNL     1       8.840  -1.982  25.064  0.00  0.00    -0.048 S 
ATOM      7  C   UNL     1       8.665  -3.137  23.811  0.00  0.00    +0.144 A 
ATOM      8  C   UNL     1       8.831  -2.563  22.562  0.00  0.00    +0.042 A 
ATOM      9  C   UNL     1       9.100  -1.157  22.638  0.00  0.00    -0.010 A 
ATOM     10  C   UNL     1       9.322  -0.215  21.494  0.00  0.00    +0.058 C 
ATOM     11  C   UNL     1       9.817   1.220  21.826  0.00  0.00    +0.136 C 
ENDROOT
BRANCH   1  16
ATOM     12  C   UNL     1      11.716   4.775  23.506  0.00  0.00    +0.122 A 
ATOM     13  C   UNL     1      10.850   5.717  24.055  0.00  0.00    +0.046 A 
ATOM     14  C   UNL     1       9.510   5.386  24.282  0.00  0.00    +0.005 A 
ATOM     15  C   UNL     1       9.026   4.119  23.948  0.00  0.00    +0.025 A 
ATOM     16  C   UNL     1       9.876   3.180  23.367  0.00  0.00    +0.055 A 
ATOM     17  C   UNL     1      11.228   3.503  23.185  0.00  0.00    +0.070 A 
BRANCH  12  19
ATOM     18  C   UNL     1      13.378   5.684  22.061  0.00  0.00    +0.277 C 
ATOM     19  O   UNL     1      13.045   4.957  23.238  0.00  0.00    -0.495 OA
ENDBRANCH  12  19
ENDBRANCH   1  16
BRANCH   7  20
ATOM     20  S   UNL     1       8.354  -4.805  24.335  0.00  0.00    +0.062 S 
ATOM     21  O   UNL     1       8.073  -5.524  23.119  0.00  0.00    -0.153 OA
ATOM     22  O   UNL     1       7.429  -4.712  25.438  0.00  0.00    -0.153 OA
BRANCH  20  23
ATOM     23  N   UNL     1       9.816  -5.399  24.918  0.00  0.00    -0.203 NA
ATOM     24  H   UNL     1      10.622  -4.927  24.509  0.00  0.00    +0.144 HD
ATOM     25  H   UNL     1       9.828  -5.463  25.939  0.00  0.00    +0.144 HD
ENDBRANCH  20  23
ENDBRANCH   7  20
TORSDOF 4
ENDMDL
MODEL 2
REMARK VINA RESULT:      -7.6      1.123      1.877
REMARK  Name = 
REMARK  5 active torsions:
REMARK  status: ('A' for Active; 'I' for Inactive)
REMARK    1  A    between atoms: C_1  and  O_2
REMARK    2  A    between atoms: O_2  and  C_3
REMARK    3  A    between atoms: C_5  and  N_9
REMARK    4  A    between atoms: C_15  and  S_17
REMARK    5  A    between atoms: S_17  and  N_18
REMARK                            x       y       z     vdW  Elec       q    Type
REMARK                         _______ _______ _______ _____ _____    ______ ____
ROOT
ATOM      1  N   UNL     1       9.441   1.908  23.184  0.00  0.00    -0.202 N 
ATOM      2  S   UNL     1       9.534   0.896  24.572  0.00  0.00    +0.081 S 
ATOM      3  O   UNL     1       8.477   1.253  25.492  0.00  0.00    -0.149 OA
ATOM      4  O   UNL     1      10.917   0.757  24.974  0.00  0.00    -0.149 OA
ATOM      5  C   UNL     1       9.130  -0.692  23.931  0.00  0.00    +0.151 A 
ATOM      6  S   UNL     1       8.805  -1.956  25.008  0.00  0.00    -0.048 S 
ATOM      7  C   UNL     1       8.617  -3.069  23.720  0.00  0.00    +0.144 A 
ATOM      8  C   UNL     1       8.809  -2.462  22.490  0.00  0.00    +0.042 A 
ATOM      9  C   UNL     1       9.109  -1.065  22.610  0.00  0.00    -0.010 A 
ATOM     10  C   UNL     1       9.364  -0.095  21.497  0.00  0.00    +0.058 C 
ATOM     11  C   UNL     1       9.887   1.317  21.877  0.00  0.00    +0.136 C 
ENDROOT
BRANCH   1  16
ATOM     12  C   UNL     1       9.661   5.583  24.032  0.00  0.00    +0.122 A 
ATOM     13  C   UNL     1      11.019   5.807  23.826  0.00  0.00    +0.046 A 
ATOM     14  C   UNL     1      11.848   4.754  23.425  0.00  0.00    +0.005 A 
ATOM     15  C   UNL     1      11.327   3.471  23.242  0.00  0.00    +0.025 A 
ATOM     16  C   UNL     1       9.975   3.229  23.476  0.00  0.00    +0.055 A 
ATOM     17  C   UNL     1       9.142   4.299  23.834  0.00  0.00    +0.070 A 
BRANCH  12  19
ATOM     18  C   UNL     1       7.771   6.912  23.448  0.00  0.00    +0.277 C 
ATOM     19  O   UNL     1       8.736   6.516  24.416  0.00  0.00    -0.495 OA
ENDBRANCH  12  19
ENDBRANCH   1  16
BRANCH   7  20
ATOM     20  S   UNL     1       8.264  -4.745  24.190  0.00  0.00    +0.062 S 
ATOM     21  O   UNL     1       8.009  -5.427  22.948  0.00  0.00    -0.153 OA
ATOM     22  O   UNL     1       7.306  -4.664  25.267  0.00  0.00    -0.153 OA
BRANCH  20  23
ATOM     23  N   UNL     1       9.698  -5.377  24.802  0.00  0.00    -0.203 NA
ATOM     24  H   UNL     1       9.779  -6.382  24.653  0.00  0.00    +0.144 HD
ATOM     25  H   UNL     1      10.515  -4.832  24.514  0.00  0.00    +0.144 HD
ENDBRANCH  20  23
ENDBRANCH   7  20
TORSDOF 4
ENDMDL
MODEL 3
REMARK VINA RESULT:      -7.0      1.637      2.130
REMARK  Name = 
REMARK  5 active torsions:
REMARK  status: ('A' for Active; 'I' for Inactive)
REMARK    1  A    between atoms: C_1  and  O_2
REMARK    2  A    between atoms: O_2  and  C_3
REMARK    3  A    between atoms: C_5  and  N_9
REMARK    4  A    between atoms: C_15  and  S_17
REMARK    5  A    between atoms: S_17  and  N_18
REMARK                            x       y       z     vdW  Elec       q    Type
REMARK                         _______ _______ _______ _____ _____    ______ ____
ROOT
ATOM      1  N   UNL     1       8.677   1.382  22.986  0.00  0.00    -0.202 N 
ATOM      2  S   UNL     1       7.770   0.672  24.264  0.00  0.00    +0.081 S 
ATOM      3  O   UNL     1       6.382   0.579  23.868  0.00  0.00    -0.149 OA
ATOM      4  O   UNL     1       8.195   1.236  25.527  0.00  0.00    -0.149 OA
ATOM      5  C   UNL     1       8.389  -0.974  24.320  0.00  0.00    +0.151 A 
ATOM      6  S   UNL     1       7.568  -2.132  25.241  0.00  0.00    -0.048 S 
ATOM      7  C   UNL     1       8.747  -3.323  24.883  0.00  0.00    +0.144 A 
ATOM      8  C   UNL     1       9.750  -2.818  24.072  0.00  0.00    +0.042 A 
ATOM      9  C   UNL     1       9.543  -1.440  23.738  0.00  0.00    -0.010 A 
ATOM     10  C   UNL     1      10.413  -0.576  22.877  0.00  0.00    +0.058 C 
ATOM     11  C   UNL     1      10.106   0.946  22.838  0.00  0.00    +0.136 C 
ENDROOT
BRANCH   1  16
ATOM     12  C   UNL     1       8.953   5.073  23.745  0.00  0.00    +0.122 A 
ATOM     13  C   UNL     1       7.886   5.563  22.997  0.00  0.00    +0.046 A 
ATOM     14  C   UNL     1       7.097   4.685  22.246  0.00  0.00    +0.005 A 
ATOM     15  C   UNL     1       7.380   3.317  22.227  0.00  0.00    +0.025 A 
ATOM     16  C   UNL     1       8.465   2.821  22.946  0.00  0.00    +0.055 A 
ATOM     17  C   UNL     1       9.223   3.700  23.733  0.00  0.00    +0.070 A 
BRANCH  12  19
ATOM     18  C   UNL     1      11.109   6.047  24.025  0.00  0.00    +0.277 C 
ATOM     19  O   UNL     1       9.799   5.811  24.527  0.00  0.00    -0.495 OA
ENDBRANCH  12  19
ENDBRANCH   1  16
BRANCH   7  20
ATOM     20  S   UNL     1       8.490  -4.914  25.628  0.00  0.00    +0.062 S 
ATOM     21  O   UNL     1       7.349  -5.460  24.940  0.00  0.00    -0.153 OA
ATOM     22  O   UNL     1       8.532  -4.699  27.054  0.00  0.00    -0.153 OA
BRANCH  20  23
ATOM     23  N   UNL     1       9.812  -5.859  25.194  0.00  0.00    -0.203 NA
ATOM     24  H   UNL     1       9.868  -6.018  24.189  0.00  0.00    +0.144 HD
ATOM     25  H   UNL     1      10.680  -5.531  25.627  0.00  0.00    +0.144 HD
ENDBRANCH  20  23
ENDBRANCH   7  20
TORSDOF 4
ENDMDL
MODEL 4
REMARK VINA RESULT:      -7.0      1.755      2.452
REMARK  Name = 
REMARK  5 active torsions:
REMARK  status: ('A' for Active; 'I' for Inactive)
REMARK    1  A    between atoms: C_1  and  O_2
REMARK    2  A    between atoms: O_2  and  C_3
REMARK    3  A    between atoms: C_5  and  N_9
REMARK    4  A    between atoms: C_15  and  S_17
REMARK    5  A    between atoms: S_17  and  N_18
REMARK                            x       y       z     vdW  Elec       q    Type
REMARK                         _______ _______ _______ _____ _____    ______ ____
ROOT
ATOM      1  N   UNL     1       8.786   1.698  24.972  0.00  0.00    -0.202 N 
ATOM      2  S   UNL     1       9.156   0.493  23.801  0.00  0.00    +0.081 S 
ATOM      3  O   UNL     1      10.575   0.519  23.524  0.00  0.00    -0.149 OA
ATOM      4  O   UNL     1       8.149   0.507  22.762  0.00  0.00    -0.149 OA
ATOM      5  C   UNL     1       8.837  -1.007  24.663  0.00  0.00    +0.151 A 
ATOM      6  S   UNL     1       9.355  -2.470  23.988  0.00  0.00    -0.048 S 
ATOM      7  C   UNL     1       8.645  -3.365  25.265  0.00  0.00    +0.144 A 
ATOM      8  C   UNL     1       8.021  -2.536  26.183  0.00  0.00    +0.042 A 
ATOM      9  C   UNL     1       8.134  -1.150  25.833  0.00  0.00    -0.010 A 
ATOM     10  C   UNL     1       7.593   0.022  26.594  0.00  0.00    +0.058 C 
ATOM     11  C   UNL     1       7.646   1.414  25.907  0.00  0.00    +0.136 C 
ENDROOT
BRANCH   1  16
ATOM     12  C   UNL     1       9.902   5.053  23.640  0.00  0.00    +0.122 A 
ATOM     13  C   UNL     1       8.668   5.640  23.375  0.00  0.00    +0.046 A 
ATOM     14  C   UNL     1       7.488   4.931  23.624  0.00  0.00    +0.005 A 
ATOM     15  C   UNL     1       7.537   3.627  24.124  0.00  0.00    +0.025 A 
ATOM     16  C   UNL     1       8.767   3.018  24.361  0.00  0.00    +0.055 A 
ATOM     17  C   UNL     1       9.944   3.752  24.153  0.00  0.00    +0.070 A 
BRANCH  12  19
ATOM     18  C   UNL     1      12.237   4.755  23.272  0.00  0.00    +0.277 C 
ATOM     19  O   UNL     1      11.129   5.629  23.454  0.00  0.00    -0.495 OA
ENDBRANCH  12  19
ENDBRANCH   1  16
BRANCH   7  20
ATOM     20  S   UNL     1       8.802  -5.130  25.153  0.00  0.00    +0.062 S 
ATOM     21  O   UNL     1       8.583  -5.430  23.762  0.00  0.00    -0.153 OA
ATOM     22  O   UNL     1       7.998  -5.672  26.222  0.00  0.00    -0.153 OA
BRANCH  20  23
ATOM     23  N   UNL     1      10.416  -5.482  25.473  0.00  0.00    -0.203 NA
ATOM     24  H   UNL     1      11.056  -4.988  24.852  0.00  0.00    +0.144 HD
ATOM     25  H   UNL     1      10.639  -5.407  26.469  0.00  0.00    +0.144 HD
ENDBRANCH  20  23
ENDBRANCH   7  20
TORSDOF 4
ENDMDL
MODEL 5
REMARK VINA RESULT:      -7.0      1.467      1.846
REMARK  Name = 
REMARK  5 active torsions:
REMARK  status: ('A' for Active; 'I' for Inactive)
REMARK    1  A    between atoms: C_1  and  O_2
REMARK    2  A    between atoms: O_2  and  C_3
REMARK    3  A    between atoms: C_5  and  N_9
REMARK    4  A    between atoms: C_15  and  S_17
REMARK    5  A    between atoms: S_17  and  N_18
REMARK                            x       y       z     vdW  Elec       q    Type
REMARK                         _______ _______ _______ _____ _____    ______ ____
ROOT
ATOM      1  N   UNL     1       9.040   2.048  24.282  0.00  0.00    -0.202 N 
ATOM      2  S   UNL     1      10.028   0.751  23.730  0.00  0.00    +0.081 S 
ATOM      3  O   UNL     1      11.167   0.613  24.609  0.00  0.00    -0.149 OA
ATOM      4  O   UNL     1      10.146   0.816  22.289  0.00  0.00    -0.149 OA
ATOM      5  C   UNL     1       9.011  -0.660  23.996  0.00  0.00    +0.151 A 
ATOM      6  S   UNL     1       9.696  -2.203  23.872  0.00  0.00    -0.048 S 
ATOM      7  C   UNL     1       8.179  -2.950  24.147  0.00  0.00    +0.144 A 
ATOM      8  C   UNL     1       7.174  -2.013  24.325  0.00  0.00    +0.042 A 
ATOM      9  C   UNL     1       7.660  -0.668  24.238  0.00  0.00    -0.010 A 
ATOM     10  C   UNL     1       6.864   0.593  24.389  0.00  0.00    +0.058 C 
ATOM     11  C   UNL     1       7.563   1.934  24.035  0.00  0.00    +0.136 C 
ENDROOT
BRANCH   1  16
ATOM     12  C   UNL     1      11.564   4.717  23.398  0.00  0.00    +0.122 A 
ATOM     13  C   UNL     1      10.754   5.849  23.436  0.00  0.00    +0.046 A 
ATOM     14  C   UNL     1       9.394   5.726  23.738  0.00  0.00    +0.005 A 
ATOM     15  C   UNL     1       8.834   4.471  23.989  0.00  0.00    +0.025 A 
ATOM     16  C   UNL     1       9.628   3.328  23.921  0.00  0.00    +0.055 A 
ATOM     17  C   UNL     1      11.000   3.464  23.663  0.00  0.00    +0.070 A 
BRANCH  12  19
ATOM     18  C   UNL     1      13.394   5.627  22.174  0.00  0.00    +0.277 C 
ATOM     19  O   UNL     1      12.904   4.689  23.125  0.00  0.00    -0.495 OA
ENDBRANCH  12  19
ENDBRANCH   1  16
BRANCH   7  20
ATOM     20  S   UNL     1       8.174  -4.726  24.113  0.00  0.00    +0.062 S 
ATOM     21  O   UNL     1       9.491  -5.104  24.555  0.00  0.00    -0.153 OA
ATOM     22  O   UNL     1       7.625  -5.100  22.832  0.00  0.00    -0.153 OA
BRANCH  20  23
ATOM     23  N   UNL     1       7.103  -5.219  25.314  0.00  0.00    -0.203 NA
ATOM     24  H   UNL     1       6.781  -4.445  25.894  0.00  0.00    +0.144 HD
ATOM     25  H   UNL     1       6.360  -5.820  24.946  0.00  0.00    +0.144 HD
ENDBRANCH  20  23
ENDBRANCH   7  20
TORSDOF 4
ENDMDL
MODEL 6
REMARK VINA RESULT:      -7.0      2.537      8.010
REMARK  Name = 
REMARK  5 active torsions:
REMARK  status: ('A' for Active; 'I' for Inactive)
REMARK    1  A    between atoms: C_1  and  O_2
REMARK    2  A    between atoms: O_2  and  C_3
REMARK    3  A    between atoms: C_5  and  N_9
REMARK    4  A    between atoms: C_15  and  S_17
REMARK    5  A    between atoms: S_17  and  N_18
REMARK                            x       y       z     vdW  Elec       q    Type
REMARK                         _______ _______ _______ _____ _____    ______ ____
ROOT
ATOM      1  N   UNL     1       8.880  -1.662  23.455  0.00  0.00    -0.202 N 
ATOM      2  S   UNL     1       8.089  -0.430  24.359  0.00  0.00    +0.081 S 
ATOM      3  O   UNL     1       8.385  -0.606  25.763  0.00  0.00    -0.149 OA
ATOM      4  O   UNL     1       6.745  -0.250  23.852  0.00  0.00    -0.149 OA
ATOM      5  C   UNL     1       8.921   1.032  23.846  0.00  0.00    +0.151 A 
ATOM      6  S   UNL     1       8.670   2.467  24.708  0.00  0.00    -0.048 S 
ATOM      7  C   UNL     1       9.661   3.348  23.622  0.00  0.00    +0.144 A 
ATOM      8  C   UNL     1      10.164   2.537  22.619  0.00  0.00    +0.042 A 
ATOM      9  C   UNL     1       9.732   1.176  22.748  0.00  0.00    -0.010 A 
ATOM     10  C   UNL     1      10.086   0.026  21.855  0.00  0.00    +0.058 C 
ATOM     11  C   UNL     1       9.322  -1.311  22.063  0.00  0.00    +0.136 C 
ENDROOT
BRANCH   1  16
ATOM     12  C   UNL     1       6.513  -4.525  22.766  0.00  0.00    +0.122 A 
ATOM     13  C   UNL     1       6.656  -5.257  23.942  0.00  0.00    +0.046 A 
ATOM     14  C   UNL     1       7.531  -4.813  24.939  0.00  0.00    +0.005 A 
ATOM     15  C   UNL     1       8.277  -3.646  24.760  0.00  0.00    +0.025 A 
ATOM     16  C   UNL     1       8.166  -2.923  23.574  0.00  0.00    +0.055 A 
ATOM     17  C   UNL     1       7.253  -3.349  22.598  0.00  0.00    +0.070 A 
BRANCH  12  19
ATOM     18  C   UNL     1       6.154  -5.820  20.799  0.00  0.00    +0.277 C 
ATOM     19  O   UNL     1       5.693  -4.834  21.715  0.00  0.00    -0.495 OA
ENDBRANCH  12  19
ENDBRANCH   1  16
BRANCH   7  20
ATOM     20  S   UNL     1       9.818   5.085  23.955  0.00  0.00    +0.062 S 
ATOM     21  O   UNL     1      11.206   5.381  23.708  0.00  0.00    -0.153 OA
ATOM     22  O   UNL     1       9.169   5.310  25.224  0.00  0.00    -0.153 OA
BRANCH  20  23
ATOM     23  N   UNL     1       8.937   5.878  22.761  0.00  0.00    -0.203 NA
ATOM     24  H   UNL     1       8.914   5.362  21.882  0.00  0.00    +0.144 HD
ATOM     25  H   UNL     1       8.023   6.192  23.099  0.00  0.00    +0.144 HD
ENDBRANCH  20  23
ENDBRANCH   7  20
TORSDOF 4
ENDMDL
MODEL 7
REMARK VINA RESULT:      -6.9      2.436      7.963
REMARK  Name = 
REMARK  5 active torsions:
REMARK  status: ('A' for Active; 'I' for Inactive)
REMARK    1  A    between atoms: C_1  and  O_2
REMARK    2  A    between atoms: O_2  and  C_3
REMARK    3  A    between atoms: C_5  and  N_9
REMARK    4  A    between atoms: C_15  and  S_17
REMARK    5  A    between atoms: S_17  and  N_18
REMARK                            x       y       z     vdW  Elec       q    Type
REMARK                         _______ _______ _______ _____ _____    ______ ____
ROOT
ATOM      1  N   UNL     1       8.725  -1.583  23.362  0.00  0.00    -0.202 N 
ATOM      2  S   UNL     1       7.897  -0.338  24.213  0.00  0.00    +0.081 S 
ATOM      3  O   UNL     1       8.076  -0.532  25.634  0.00  0.00    -0.149 OA
ATOM      4  O   UNL     1       6.603  -0.119  23.603  0.00  0.00    -0.149 OA
ATOM      5  C   UNL     1       8.804   1.106  23.781  0.00  0.00    +0.151 A 
ATOM      6  S   UNL     1       8.523   2.540  24.634  0.00  0.00    -0.048 S 
ATOM      7  C   UNL     1       9.619   3.403  23.640  0.00  0.00    +0.144 A 
ATOM      8  C   UNL     1      10.180   2.586  22.671  0.00  0.00    +0.042 A 
ATOM      9  C   UNL     1       9.704   1.236  22.752  0.00  0.00    -0.010 A 
ATOM     10  C   UNL     1      10.098   0.084  21.879  0.00  0.00    +0.058 C 
ATOM     11  C   UNL     1       9.286  -1.233  22.013  0.00  0.00    +0.136 C 
ENDROOT
BRANCH   1  16
ATOM     12  C   UNL     1       7.315  -4.880  24.551  0.00  0.00    +0.122 A 
ATOM     13  C   UNL     1       6.678  -5.313  23.391  0.00  0.00    +0.046 A 
ATOM     14  C   UNL     1       6.707  -4.519  22.239  0.00  0.00    +0.005 A 
ATOM     15  C   UNL     1       7.359  -3.284  22.246  0.00  0.00    +0.025 A 
ATOM     16  C   UNL     1       7.972  -2.826  23.411  0.00  0.00    +0.055 A 
ATOM     17  C   UNL     1       7.978  -3.648  24.548  0.00  0.00    +0.070 A 
BRANCH  12  19
ATOM     18  C   UNL     1       8.107  -4.944  26.797  0.00  0.00    +0.277 C 
ATOM     19  O   UNL     1       7.373  -5.553  25.741  0.00  0.00    -0.495 OA
ENDBRANCH  12  19
ENDBRANCH   1  16
BRANCH   7  20
ATOM     20  S   UNL     1       9.795   5.133  24.001  0.00  0.00    +0.062 S 
ATOM     21  O   UNL     1      11.190   5.413  23.781  0.00  0.00    -0.153 OA
ATOM     22  O   UNL     1       9.127   5.348  25.262  0.00  0.00    -0.153 OA
BRANCH  20  23
ATOM     23  N   UNL     1       8.944   5.954  22.804  0.00  0.00    -0.203 NA
ATOM     24  H   UNL     1       8.128   5.439  22.478  0.00  0.00    +0.144 HD
ATOM     25  H   UNL     1       8.765   6.930  23.057  0.00  0.00    +0.144 HD
ENDBRANCH  20  23
ENDBRANCH   7  20
TORSDOF 4
ENDMDL
MODEL 8
REMARK VINA RESULT:      -6.9      0.974      1.138
REMARK  Name = 
REMARK  5 active torsions:
REMARK  status: ('A' for Active; 'I' for Inactive)
REMARK    1  A    between atoms: C_1  and  O_2
REMARK    2  A    between atoms: O_2  and  C_3
REMARK    3  A    between atoms: C_5  and  N_9
REMARK    4  A    between atoms: C_15  and  S_17
REMARK    5  A    between atoms: S_17  and  N_18
REMARK                            x       y       z     vdW  Elec       q    Type
REMARK                         _______ _______ _______ _____ _____    ______ ____
ROOT
ATOM      1  N   UNL     1       9.353   1.924  23.082  0.00  0.00    -0.202 N 
ATOM      2  S   UNL     1       9.113   1.084  24.565  0.00  0.00    +0.081 S 
ATOM      3  O   UNL     1       7.941   1.613  25.226  0.00  0.00    -0.149 OA
ATOM      4  O   UNL     1      10.386   0.912  25.232  0.00  0.00    -0.149 OA
ATOM      5  C   UNL     1       8.703  -0.542  24.035  0.00  0.00    +0.151 A 
ATOM      6  S   UNL     1       8.088  -1.645  25.162  0.00  0.00    -0.048 S 
ATOM      7  C   UNL     1       8.045  -2.893  23.989  0.00  0.00    +0.144 A 
ATOM      8  C   UNL     1       8.503  -2.451  22.758  0.00  0.00    +0.042 A 
ATOM      9  C   UNL     1       8.889  -1.071  22.781  0.00  0.00    -0.010 A 
ATOM     10  C   UNL     1       9.418  -0.260  21.638  0.00  0.00    +0.058 C 
ATOM     11  C   UNL     1       9.977   1.154  21.954  0.00  0.00    +0.136 C 
ENDROOT
BRANCH   1  16
ATOM     12  C   UNL     1      11.850   4.741  23.414  0.00  0.00    +0.122 A 
ATOM     13  C   UNL     1      11.050   5.716  24.003  0.00  0.00    +0.046 A 
ATOM     14  C   UNL     1       9.704   5.446  24.275  0.00  0.00    +0.005 A 
ATOM     15  C   UNL     1       9.149   4.208  23.945  0.00  0.00    +0.025 A 
ATOM     16  C   UNL     1       9.932   3.236  23.325  0.00  0.00    +0.055 A 
ATOM     17  C   UNL     1      11.291   3.497  23.099  0.00  0.00    +0.070 A 
BRANCH  12  19
ATOM     18  C   UNL     1      13.521   5.802  22.089  0.00  0.00    +0.277 C 
ATOM     19  O   UNL     1      13.176   4.863  23.101  0.00  0.00    -0.495 OA
ENDBRANCH  12  19
ENDBRANCH   1  16
BRANCH   7  20
ATOM     20  S   UNL     1       7.477  -4.475  24.563  0.00  0.00    +0.062 S 
ATOM     21  O   UNL     1       8.523  -4.944  25.435  0.00  0.00    -0.153 OA
ATOM     22  O   UNL     1       7.037  -5.191  23.390  0.00  0.00    -0.153 OA
BRANCH  20  23
ATOM     23  N   UNL     1       6.138  -4.172  25.535  0.00  0.00    -0.203 NA
ATOM     24  H   UNL     1       5.266  -4.483  25.109  0.00  0.00    +0.144 HD
ATOM     25  H   UNL     1       6.282  -4.485  26.499  0.00  0.00    +0.144 HD
ENDBRANCH  20  23
ENDBRANCH   7  20
TORSDOF 4
ENDMDL
MODEL 9
REMARK VINA RESULT:      -6.7      2.280      2.870
REMARK  Name = 
REMARK  5 active torsions:
REMARK  status: ('A' for Active; 'I' for Inactive)
REMARK    1  A    between atoms: C_1  and  O_2
REMARK    2  A    between atoms: O_2  and  C_3
REMARK    3  A    between atoms: C_5  and  N_9
REMARK    4  A    between atoms: C_15  and  S_17
REMARK    5  A    between atoms: S_17  and  N_18
REMARK                            x       y       z     vdW  Elec       q    Type
REMARK                         _______ _______ _______ _____ _____    ______ ____
ROOT
ATOM      1  N   UNL     1       9.083   0.583  24.375  0.00  0.00    -0.202 N 
ATOM      2  S   UNL     1       8.270  -0.061  23.002  0.00  0.00    +0.081 S 
ATOM      3  O   UNL     1       9.217  -0.229  21.923  0.00  0.00    -0.149 OA
ATOM      4  O   UNL     1       6.998   0.610  22.838  0.00  0.00    -0.149 OA
ATOM      5  C   UNL     1       7.817  -1.676  23.533  0.00  0.00    +0.151 A 
ATOM      6  S   UNL     1       7.251  -2.790  22.391  0.00  0.00    -0.048 S 
ATOM      7  C   UNL     1       6.965  -3.963  23.606  0.00  0.00    +0.144 A 
ATOM      8  C   UNL     1       7.302  -3.487  24.863  0.00  0.00    +0.042 A 
ATOM      9  C   UNL     1       7.803  -2.145  24.824  0.00  0.00    -0.010 A 
ATOM     10  C   UNL     1       8.270  -1.319  25.983  0.00  0.00    +0.058 C 
ATOM     11  C   UNL     1       8.562   0.185  25.726  0.00  0.00    +0.136 C 
ENDROOT
BRANCH   1  16
ATOM     12  C   UNL     1      10.790   3.864  23.604  0.00  0.00    +0.122 A 
ATOM     13  C   UNL     1       9.840   4.760  24.087  0.00  0.00    +0.046 A 
ATOM     14  C   UNL     1       8.651   4.283  24.649  0.00  0.00    +0.005 A 
ATOM     15  C   UNL     1       8.399   2.910  24.715  0.00  0.00    +0.025 A 
ATOM     16  C   UNL     1       9.328   2.006  24.204  0.00  0.00    +0.055 A 
ATOM     17  C   UNL     1      10.537   2.490  23.685  0.00  0.00    +0.070 A 
BRANCH  12  19
ATOM     18  C   UNL     1      12.496   5.495  23.284  0.00  0.00    +0.277 C 
ATOM     19  O   UNL     1      11.994   4.187  23.039  0.00  0.00    -0.495 OA
ENDBRANCH  12  19
ENDBRANCH   1  16
BRANCH   7  20
ATOM     20  S   UNL     1       6.278  -5.502  23.049  0.00  0.00    +0.062 S 
ATOM     21  O   UNL     1       5.727  -6.108  24.234  0.00  0.00    -0.153 OA
ATOM     22  O   UNL     1       7.295  -6.123  22.236  0.00  0.00    -0.153 OA
BRANCH  20  23
ATOM     23  N   UNL     1       4.975  -5.108  22.060  0.00  0.00    -0.203 NA
ATOM     24  H   UNL     1       4.688  -5.881  21.462  0.00  0.00    +0.144 HD
ATOM     25  H   UNL     1       4.215  -4.662  22.581  0.00  0.00    +0.144 HD
ENDBRANCH  20  23
ENDBRANCH   7  20
TORSDOF 4
ENDMDL
