MODEL 1
REMARK VINA RESULT:      -6.6      0.000      0.000
REMARK  Name = 
REMARK  9 active torsions:
REMARK  status: ('A' for Active; 'I' for Inactive)
REMARK    1  A    between atoms: C_1  and  C_2
REMARK    2  A    between atoms: C_2  and  C_3
REMARK    3  A    between atoms: C_4  and  C_5
REMARK    4  A    between atoms: C_5  and  O_6
REMARK    5  A    between atoms: O_6  and  C_7
REMARK    6  A    between atoms: C_12  and  N_13
REMARK    7  A    between atoms: N_13  and  C_14
REMARK    8  A    between atoms: C_14  and  C_16
REMARK    9  A    between atoms: C_17  and  C_18
REMARK                            x       y       z     vdW  Elec       q    Type
REMARK                         _______ _______ _______ _____ _____    ______ ____
ROOT
ATOM      1  C   UNL     1       9.672  -1.054  23.511  0.00  0.00    +0.141 A 
ATOM      2  C   UNL     1       9.189  -2.373  23.454  0.00  0.00    +0.070 A 
ATOM      3  C   UNL     1       8.693  -3.021  24.586  0.00  0.00    +0.035 A 
ATOM      4  C   UNL     1       8.627  -2.314  25.787  0.00  0.00    +0.025 A 
ATOM      5  C   UNL     1       9.036  -0.975  25.847  0.00  0.00    +0.025 A 
ATOM      6  C   UNL     1       9.557  -0.347  24.712  0.00  0.00    +0.083 A 
ATOM      7 CL   UNL     1      10.091   1.289  24.858  0.00  0.00    -0.080 Cl
ENDROOT
BRANCH   3   8
ATOM      8  N   UNL     1       8.408  -4.402  24.468  0.00  0.00    -0.308 N 
ATOM      9  H   UNL     1       9.211  -5.019  24.470  0.00  0.00    +0.153 HD
BRANCH   8  10
ATOM     10  C   UNL     1       7.184  -5.020  24.317  0.00  0.00    +0.087 C 
ATOM     11  S   UNL     1       6.151  -5.529  25.532  0.00  0.00    -0.035 S 
BRANCH  10  12
ATOM     12  C   UNL     1       6.698  -5.139  22.942  0.00  0.00    +0.044 A 
ATOM     13  C   UNL     1       6.797  -6.263  22.054  0.00  0.00    +0.051 A 
ATOM     14  C   UNL     1       6.252  -5.882  20.856  0.00  0.00    +0.196 A 
ATOM     15  O   UNL     1       5.796  -4.613  20.933  0.00  0.00    -0.467 OA
ATOM     16  C   UNL     1       6.066  -4.153  22.189  0.00  0.00    +0.111 A 
ATOM     17  C   UNL     1       5.680  -2.739  22.399  0.00  0.00    +0.087 C 
ENDBRANCH  10  12
ENDBRANCH   8  10
ENDBRANCH   3   8
BRANCH   1  18
ATOM     18  O   UNL     1      10.295  -0.435  22.445  0.00  0.00    -0.486 OA
BRANCH  18  19
ATOM     19  C   UNL     1       9.405  -0.047  21.398  0.00  0.00    +0.256 C 
BRANCH  19  22
ATOM     20  C   UNL     1       7.667   3.346  22.160  0.00  0.00    +0.038 C 
ATOM     21  C   UNL     1       7.910   1.870  22.031  0.00  0.00    -0.076 C 
ATOM     22  C   UNL     1       9.051   1.407  21.476  0.00  0.00    +0.012 C 
ATOM     23  C   UNL     1       6.848   0.957  22.587  0.00  0.00    +0.038 C 
ENDBRANCH  19  22
ENDBRANCH  18  19
ENDBRANCH   1  18
TORSDOF 6
ENDMDL
MODEL 2
REMARK VINA RESULT:      -6.1      1.594      2.311
REMARK  Name = 
REMARK  9 active torsions:
REMARK  status: ('A' for Active; 'I' for Inactive)
REMARK    1  A    between atoms: C_1  and  C_2
REMARK    2  A    between atoms: C_2  and  C_3
REMARK    3  A    between atoms: C_4  and  C_5
REMARK    4  A    between atoms: C_5  and  O_6
REMARK    5  A    between atoms: O_6  and  C_7
REMARK    6  A    between atoms: C_12  and  N_13
REMARK    7  A    between atoms: N_13  and  C_14
REMARK    8  A    between atoms: C_14  and  C_16
REMARK    9  A    between atoms: C_17  and  C_18
REMARK                            x       y       z     vdW  Elec       q    Type
REMARK                         _______ _______ _______ _____ _____    ______ ____
ROOT
ATOM      1  C   UNL     1       9.786   0.383  24.075  0.00  0.00    +0.141 A 
ATOM      2  C   UNL     1       9.707  -0.917  24.605  0.00  0.00    +0.070 A 
ATOM      3  C   UNL     1       9.767  -2.046  23.787  0.00  0.00    +0.035 A 
ATOM      4  C   UNL     1       9.967  -1.872  22.418  0.00  0.00    +0.025 A 
ATOM      5  C   UNL     1      10.121  -0.587  21.881  0.00  0.00    +0.025 A 
ATOM      6  C   UNL     1      10.031   0.537  22.706  0.00  0.00    +0.083 A 
ATOM      7 CL   UNL     1      10.180   2.097  21.980  0.00  0.00    -0.080 Cl
ENDROOT
BRANCH   3   8
ATOM      8  N   UNL     1       9.490  -3.295  24.390  0.00  0.00    -0.308 N 
ATOM      9  H   UNL     1      10.297  -3.841  24.664  0.00  0.00    +0.153 HD
BRANCH   8  10
ATOM     10  C   UNL     1       8.265  -3.886  24.625  0.00  0.00    +0.087 C 
ATOM     11  S   UNL     1       7.463  -4.005  26.090  0.00  0.00    -0.035 S 
BRANCH  10  12
ATOM     12  C   UNL     1       7.550  -4.359  23.440  0.00  0.00    +0.044 A 
ATOM     13  C   UNL     1       7.628  -5.644  22.803  0.00  0.00    +0.051 A 
ATOM     14  C   UNL     1       6.823  -5.596  21.695  0.00  0.00    +0.196 A 
ATOM     15  O   UNL     1       6.226  -4.388  21.602  0.00  0.00    -0.467 OA
ATOM     16  C   UNL     1       6.664  -3.631  22.650  0.00  0.00    +0.111 A 
ATOM     17  C   UNL     1       6.141  -2.245  22.640  0.00  0.00    +0.087 C 
ENDBRANCH  10  12
ENDBRANCH   8  10
ENDBRANCH   3   8
BRANCH   1  18
ATOM     18  O   UNL     1       9.593   1.519  24.836  0.00  0.00    -0.486 OA
BRANCH  18  19
ATOM     19  C   UNL     1       8.222   1.802  25.119  0.00  0.00    +0.256 C 
BRANCH  19  22
ATOM     20  C   UNL     1       6.465   4.274  22.688  0.00  0.00    +0.038 C 
ATOM     21  C   UNL     1       6.985   3.002  23.293  0.00  0.00    -0.076 C 
ATOM     22  C   UNL     1       7.746   3.031  24.408  0.00  0.00    +0.012 C 
ATOM     23  C   UNL     1       6.578   1.716  22.619  0.00  0.00    +0.038 C 
ENDBRANCH  19  22
ENDBRANCH  18  19
ENDBRANCH   1  18
TORSDOF 6
ENDMDL
MODEL 3
REMARK VINA RESULT:      -6.1      2.016      2.691
REMARK  Name = 
REMARK  9 active torsions:
REMARK  status: ('A' for Active; 'I' for Inactive)
REMARK    1  A    between atoms: C_1  and  C_2
REMARK    2  A    between atoms: C_2  and  C_3
REMARK    3  A    between atoms: C_4  and  C_5
REMARK    4  A    between atoms: C_5  and  O_6
REMARK    5  A    between atoms: O_6  and  C_7
REMARK    6  A    between atoms: C_12  and  N_13
REMARK    7  A    between atoms: N_13  and  C_14
REMARK    8  A    between atoms: C_14  and  C_16
REMARK    9  A    between atoms: C_17  and  C_18
REMARK                            x       y       z     vdW  Elec       q    Type
REMARK                         _______ _______ _______ _____ _____    ______ ____
ROOT
ATOM      1  C   UNL     1       8.055  -0.017  23.577  0.00  0.00    +0.141 A 
ATOM      2  C   UNL     1       8.387  -1.253  24.159  0.00  0.00    +0.070 A 
ATOM      3  C   UNL     1       9.010  -2.264  23.426  0.00  0.00    +0.035 A 
ATOM      4  C   UNL     1       9.359  -2.012  22.099  0.00  0.00    +0.025 A 
ATOM      5  C   UNL     1       9.102  -0.761  21.523  0.00  0.00    +0.025 A 
ATOM      6  C   UNL     1       8.452   0.233  22.259  0.00  0.00    +0.083 A 
ATOM      7 CL   UNL     1       8.119   1.739  21.480  0.00  0.00    -0.080 Cl
ENDROOT
BRANCH   3   8
ATOM      8  N   UNL     1       9.130  -3.531  24.045  0.00  0.00    -0.308 N 
ATOM      9  H   UNL     1      10.071  -3.814  24.290  0.00  0.00    +0.153 HD
BRANCH   8  10
ATOM     10  C   UNL     1       8.140  -4.448  24.330  0.00  0.00    +0.087 C 
ATOM     11  S   UNL     1       7.754  -5.088  25.828  0.00  0.00    -0.035 S 
BRANCH  10  12
ATOM     12  C   UNL     1       7.269  -4.811  23.212  0.00  0.00    +0.044 A 
ATOM     13  C   UNL     1       7.466  -5.831  22.220  0.00  0.00    +0.051 A 
ATOM     14  C   UNL     1       6.414  -5.754  21.346  0.00  0.00    +0.196 A 
ATOM     15  O   UNL     1       5.559  -4.781  21.728  0.00  0.00    -0.467 OA
ATOM     16  C   UNL     1       6.070  -4.201  22.852  0.00  0.00    +0.111 A 
ATOM     17  C   UNL     1       5.266  -3.061  23.350  0.00  0.00    +0.087 C 
ENDBRANCH  10  12
ENDBRANCH   8  10
ENDBRANCH   3   8
BRANCH   1  18
ATOM     18  O   UNL     1       7.318   0.949  24.232  0.00  0.00    -0.486 OA
BRANCH  18  19
ATOM     19  C   UNL     1       8.038   1.631  25.260  0.00  0.00    +0.256 C 
BRANCH  19  22
ATOM     20  C   UNL     1       9.530   4.946  23.885  0.00  0.00    +0.038 C 
ATOM     21  C   UNL     1       9.396   3.506  24.289  0.00  0.00    -0.076 C 
ATOM     22  C   UNL     1       8.281   3.067  24.913  0.00  0.00    +0.012 C 
ATOM     23  C   UNL     1      10.537   2.591  23.923  0.00  0.00    +0.038 C 
ENDBRANCH  19  22
ENDBRANCH  18  19
ENDBRANCH   1  18
TORSDOF 6
ENDMDL
MODEL 4
REMARK VINA RESULT:      -6.0      2.398      3.377
REMARK  Name = 
REMARK  9 active torsions:
REMARK  status: ('A' for Active; 'I' for Inactive)
REMARK    1  A    between atoms: C_1  and  C_2
REMARK    2  A    between atoms: C_2  and  C_3
REMARK    3  A    between atoms: C_4  and  C_5
REMARK    4  A    between atoms: C_5  and  O_6
REMARK    5  A    between atoms: O_6  and  C_7
REMARK    6  A    between atoms: C_12  and  N_13
REMARK    7  A    between atoms: N_13  and  C_14
REMARK    8  A    between atoms: C_14  and  C_16
REMARK    9  A    between atoms: C_17  and  C_18
REMARK                            x       y       z     vdW  Elec       q    Type
REMARK                         _______ _______ _______ _____ _____    ______ ____
ROOT
ATOM      1  C   UNL     1       8.793  -0.463  24.752  0.00  0.00    +0.141 A 
ATOM      2  C   UNL     1       7.892  -1.492  24.426  0.00  0.00    +0.070 A 
ATOM      3  C   UNL     1       8.125  -2.358  23.356  0.00  0.00    +0.035 A 
ATOM      4  C   UNL     1       9.311  -2.227  22.634  0.00  0.00    +0.025 A 
ATOM      5  C   UNL     1      10.255  -1.254  22.990  0.00  0.00    +0.025 A 
ATOM      6  C   UNL     1       9.997  -0.375  24.045  0.00  0.00    +0.083 A 
ATOM      7 CL   UNL     1      11.176   0.835  24.406  0.00  0.00    -0.080 Cl
ENDROOT
BRANCH   3   8
ATOM      8  N   UNL     1       7.074  -3.233  22.993  0.00  0.00    -0.308 N 
ATOM      9  H   UNL     1       6.258  -2.796  22.583  0.00  0.00    +0.153 HD
BRANCH   8  10
ATOM     10  C   UNL     1       6.998  -4.601  23.154  0.00  0.00    +0.087 C 
ATOM     11  S   UNL     1       7.092  -5.768  21.957  0.00  0.00    -0.035 S 
BRANCH  10  12
ATOM     12  C   UNL     1       6.939  -5.076  24.537  0.00  0.00    +0.044 A 
ATOM     13  C   UNL     1       5.779  -5.373  25.331  0.00  0.00    +0.051 A 
ATOM     14  C   UNL     1       6.222  -5.725  26.579  0.00  0.00    +0.196 A 
ATOM     15  O   UNL     1       7.572  -5.698  26.621  0.00  0.00    -0.467 OA
ATOM     16  C   UNL     1       8.014  -5.301  25.393  0.00  0.00    +0.111 A 
ATOM     17  C   UNL     1       9.486  -5.158  25.309  0.00  0.00    +0.087 C 
ENDBRANCH  10  12
ENDBRANCH   8  10
ENDBRANCH   3   8
BRANCH   1  18
ATOM     18  O   UNL     1       8.527   0.493  25.712  0.00  0.00    -0.486 OA
BRANCH  18  19
ATOM     19  C   UNL     1       7.622   1.511  25.283  0.00  0.00    +0.256 C 
BRANCH  19  22
ATOM     20  C   UNL     1       9.250   4.747  23.873  0.00  0.00    +0.038 C 
ATOM     21  C   UNL     1       8.659   3.369  23.949  0.00  0.00    -0.076 C 
ATOM     22  C   UNL     1       8.301   2.838  25.139  0.00  0.00    +0.012 C 
ATOM     23  C   UNL     1       8.453   2.647  22.642  0.00  0.00    +0.038 C 
ENDBRANCH  19  22
ENDBRANCH  18  19
ENDBRANCH   1  18
TORSDOF 6
ENDMDL
MODEL 5
REMARK VINA RESULT:      -5.8      1.977      2.120
REMARK  Name = 
REMARK  9 active torsions:
REMARK  status: ('A' for Active; 'I' for Inactive)
REMARK    1  A    between atoms: C_1  and  C_2
REMARK    2  A    between atoms: C_2  and  C_3
REMARK    3  A    between atoms: C_4  and  C_5
REMARK    4  A    between atoms: C_5  and  O_6
REMARK    5  A    between atoms: O_6  and  C_7
REMARK    6  A    between atoms: C_12  and  N_13
REMARK    7  A    between atoms: N_13  and  C_14
REMARK    8  A    between atoms: C_14  and  C_16
REMARK    9  A    between atoms: C_17  and  C_18
REMARK                            x       y       z     vdW  Elec       q    Type
REMARK                         _______ _______ _______ _____ _____    ______ ____
ROOT
ATOM      1  C   UNL     1       9.488  -1.758  23.463  0.00  0.00    +0.141 A 
ATOM      2  C   UNL     1       8.832  -2.981  23.238  0.00  0.00    +0.070 A 
ATOM      3  C   UNL     1       8.207  -3.678  24.273  0.00  0.00    +0.035 A 
ATOM      4  C   UNL     1       8.192  -3.113  25.548  0.00  0.00    +0.025 A 
ATOM      5  C   UNL     1       8.778  -1.861  25.776  0.00  0.00    +0.025 A 
ATOM      6  C   UNL     1       9.424  -1.186  24.738  0.00  0.00    +0.083 A 
ATOM      7 CL   UNL     1      10.171   0.331  25.091  0.00  0.00    -0.080 Cl
ENDROOT
BRANCH   3   8
ATOM      8  N   UNL     1       7.741  -4.983  23.984  0.00  0.00    -0.308 N 
ATOM      9  H   UNL     1       8.299  -5.742  24.354  0.00  0.00    +0.153 HD
BRANCH   8  10
ATOM     10  C   UNL     1       6.645  -5.361  23.236  0.00  0.00    +0.087 C 
ATOM     11  S   UNL     1       6.614  -5.741  21.606  0.00  0.00    -0.035 S 
BRANCH  10  12
ATOM     12  C   UNL     1       5.402  -5.552  23.983  0.00  0.00    +0.044 A 
ATOM     13  C   UNL     1       4.726  -6.780  24.295  0.00  0.00    +0.051 A 
ATOM     14  C   UNL     1       3.573  -6.451  24.958  0.00  0.00    +0.196 A 
ATOM     15  O   UNL     1       3.486  -5.112  25.109  0.00  0.00    -0.467 OA
ATOM     16  C   UNL     1       4.584  -4.559  24.518  0.00  0.00    +0.111 A 
ATOM     17  C   UNL     1       4.592  -3.078  24.546  0.00  0.00    +0.087 C 
ENDBRANCH  10  12
ENDBRANCH   8  10
ENDBRANCH   3   8
BRANCH   1  18
ATOM     18  O   UNL     1      10.231  -1.114  22.493  0.00  0.00    -0.486 OA
BRANCH  18  19
ATOM     19  C   UNL     1       9.446  -0.532  21.452  0.00  0.00    +0.256 C 
BRANCH  19  22
ATOM     20  C   UNL     1       8.202   3.025  22.404  0.00  0.00    +0.038 C 
ATOM     21  C   UNL     1       8.231   1.540  22.183  0.00  0.00    -0.076 C 
ATOM     22  C   UNL     1       9.306   0.950  21.618  0.00  0.00    +0.012 C 
ATOM     23  C   UNL     1       7.032   0.761  22.660  0.00  0.00    +0.038 C 
ENDBRANCH  19  22
ENDBRANCH  18  19
ENDBRANCH   1  18
TORSDOF 6
ENDMDL
MODEL 6
REMARK VINA RESULT:      -5.8      1.860      2.683
REMARK  Name = 
REMARK  9 active torsions:
REMARK  status: ('A' for Active; 'I' for Inactive)
REMARK    1  A    between atoms: C_1  and  C_2
REMARK    2  A    between atoms: C_2  and  C_3
REMARK    3  A    between atoms: C_4  and  C_5
REMARK    4  A    between atoms: C_5  and  O_6
REMARK    5  A    between atoms: O_6  and  C_7
REMARK    6  A    between atoms: C_12  and  N_13
REMARK    7  A    between atoms: N_13  and  C_14
REMARK    8  A    between atoms: C_14  and  C_16
REMARK    9  A    between atoms: C_17  and  C_18
REMARK                            x       y       z     vdW  Elec       q    Type
REMARK                         _______ _______ _______ _____ _____    ______ ____
ROOT
ATOM      1  C   UNL     1       9.326   0.287  23.987  0.00  0.00    +0.141 A 
ATOM      2  C   UNL     1       8.856  -0.830  24.699  0.00  0.00    +0.070 A 
ATOM      3  C   UNL     1       8.468  -2.002  24.049  0.00  0.00    +0.035 A 
ATOM      4  C   UNL     1       8.605  -2.078  22.663  0.00  0.00    +0.025 A 
ATOM      5  C   UNL     1       9.140  -1.000  21.944  0.00  0.00    +0.025 A 
ATOM      6  C   UNL     1       9.499   0.178  22.603  0.00  0.00    +0.083 A 
ATOM      7 CL   UNL     1      10.106   1.490  21.657  0.00  0.00    -0.080 Cl
ENDROOT
BRANCH   3   8
ATOM      8  N   UNL     1       7.835  -2.996  24.833  0.00  0.00    -0.308 N 
ATOM      9  H   UNL     1       7.213  -2.656  25.557  0.00  0.00    +0.153 HD
BRANCH   8  10
ATOM     10  C   UNL     1       7.976  -4.367  24.766  0.00  0.00    +0.087 C 
ATOM     11  S   UNL     1       9.313  -5.270  25.210  0.00  0.00    -0.035 S 
BRANCH  10  12
ATOM     12  C   UNL     1       6.781  -5.109  24.363  0.00  0.00    +0.044 A 
ATOM     13  C   UNL     1       5.697  -5.572  25.183  0.00  0.00    +0.051 A 
ATOM     14  C   UNL     1       4.842  -6.268  24.371  0.00  0.00    +0.196 A 
ATOM     15  O   UNL     1       5.293  -6.256  23.098  0.00  0.00    -0.467 OA
ATOM     16  C   UNL     1       6.468  -5.562  23.083  0.00  0.00    +0.111 A 
ATOM     17  C   UNL     1       7.119  -5.524  21.754  0.00  0.00    +0.087 C 
ENDBRANCH  10  12
ENDBRANCH   8  10
ENDBRANCH   3   8
BRANCH   1  18
ATOM     18  O   UNL     1       9.587   1.505  24.584  0.00  0.00    -0.486 OA
BRANCH  18  19
ATOM     19  C   UNL     1       8.416   2.252  24.914  0.00  0.00    +0.256 C 
BRANCH  19  22
ATOM     20  C   UNL     1       7.282   4.883  22.286  0.00  0.00    +0.038 C 
ATOM     21  C   UNL     1       7.431   3.585  23.027  0.00  0.00    -0.076 C 
ATOM     22  C   UNL     1       8.282   3.483  24.071  0.00  0.00    +0.012 C 
ATOM     23  C   UNL     1       6.561   2.441  22.573  0.00  0.00    +0.038 C 
ENDBRANCH  19  22
ENDBRANCH  18  19
ENDBRANCH   1  18
TORSDOF 6
ENDMDL
MODEL 7
REMARK VINA RESULT:      -5.6      2.506      3.581
REMARK  Name = 
REMARK  9 active torsions:
REMARK  status: ('A' for Active; 'I' for Inactive)
REMARK    1  A    between atoms: C_1  and  C_2
REMARK    2  A    between atoms: C_2  and  C_3
REMARK    3  A    between atoms: C_4  and  C_5
REMARK    4  A    between atoms: C_5  and  O_6
REMARK    5  A    between atoms: O_6  and  C_7
REMARK    6  A    between atoms: C_12  and  N_13
REMARK    7  A    between atoms: N_13  and  C_14
REMARK    8  A    between atoms: C_14  and  C_16
REMARK    9  A    between atoms: C_17  and  C_18
REMARK                            x       y       z     vdW  Elec       q    Type
REMARK                         _______ _______ _______ _____ _____    ______ ____
ROOT
ATOM      1  C   UNL     1       8.032   0.493  23.033  0.00  0.00    +0.141 A 
ATOM      2  C   UNL     1       7.353  -0.729  23.184  0.00  0.00    +0.070 A 
ATOM      3  C   UNL     1       7.826  -1.906  22.603  0.00  0.00    +0.035 A 
ATOM      4  C   UNL     1       9.031  -1.871  21.902  0.00  0.00    +0.025 A 
ATOM      5  C   UNL     1       9.759  -0.678  21.802  0.00  0.00    +0.025 A 
ATOM      6  C   UNL     1       9.261   0.500  22.365  0.00  0.00    +0.083 A 
ATOM      7 CL   UNL     1      10.179   1.950  22.168  0.00  0.00    -0.080 Cl
ENDROOT
BRANCH   3   8
ATOM      8  N   UNL     1       6.977  -3.038  22.653  0.00  0.00    -0.308 N 
ATOM      9  H   UNL     1       6.037  -2.900  22.303  0.00  0.00    +0.153 HD
BRANCH   8  10
ATOM     10  C   UNL     1       7.248  -4.297  23.148  0.00  0.00    +0.087 C 
ATOM     11  S   UNL     1       7.165  -5.749  22.319  0.00  0.00    -0.035 S 
BRANCH  10  12
ATOM     12  C   UNL     1       7.769  -4.344  24.515  0.00  0.00    +0.044 A 
ATOM     13  C   UNL     1       9.057  -4.792  24.965  0.00  0.00    +0.051 A 
ATOM     14  C   UNL     1       9.060  -4.705  26.333  0.00  0.00    +0.196 A 
ATOM     15  O   UNL     1       7.882  -4.213  26.773  0.00  0.00    -0.467 OA
ATOM     16  C   UNL     1       7.092  -3.997  25.681  0.00  0.00    +0.111 A 
ATOM     17  C   UNL     1       5.732  -3.517  26.018  0.00  0.00    +0.087 C 
ENDBRANCH  10  12
ENDBRANCH   8  10
ENDBRANCH   3   8
BRANCH   1  18
ATOM     18  O   UNL     1       7.522   1.697  23.476  0.00  0.00    -0.486 OA
BRANCH  18  19
ATOM     19  C   UNL     1       6.540   2.266  22.610  0.00  0.00    +0.256 C 
BRANCH  19  22
ATOM     20  C   UNL     1       7.338   6.014  21.954  0.00  0.00    +0.038 C 
ATOM     21  C   UNL     1       6.758   4.768  22.558  0.00  0.00    -0.076 C 
ATOM     22  C   UNL     1       7.006   3.558  22.011  0.00  0.00    +0.012 C 
ATOM     23  C   UNL     1       5.938   4.941  23.811  0.00  0.00    +0.038 C 
ENDBRANCH  19  22
ENDBRANCH  18  19
ENDBRANCH   1  18
TORSDOF 6
ENDMDL
MODEL 8
REMARK VINA RESULT:      -5.6      3.539      7.556
REMARK  Name = 
REMARK  9 active torsions:
REMARK  status: ('A' for Active; 'I' for Inactive)
REMARK    1  A    between atoms: C_1  and  C_2
REMARK    2  A    between atoms: C_2  and  C_3
REMARK    3  A    between atoms: C_4  and  C_5
REMARK    4  A    between atoms: C_5  and  O_6
REMARK    5  A    between atoms: O_6  and  C_7
REMARK    6  A    between atoms: C_12  and  N_13
REMARK    7  A    between atoms: N_13  and  C_14
REMARK    8  A    between atoms: C_14  and  C_16
REMARK    9  A    between atoms: C_17  and  C_18
REMARK                            x       y       z     vdW  Elec       q    Type
REMARK                         _______ _______ _______ _____ _____    ______ ____
ROOT
ATOM      1  C   UNL     1       7.923  -0.793  23.256  0.00  0.00    +0.141 A 
ATOM      2  C   UNL     1       7.346   0.372  22.720  0.00  0.00    +0.070 A 
ATOM      3  C   UNL     1       8.105   1.310  22.020  0.00  0.00    +0.035 A 
ATOM      4  C   UNL     1       9.458   1.051  21.804  0.00  0.00    +0.025 A 
ATOM      5  C   UNL     1      10.036  -0.139  22.267  0.00  0.00    +0.025 A 
ATOM      6  C   UNL     1       9.271  -1.057  22.991  0.00  0.00    +0.083 A 
ATOM      7 CL   UNL     1      10.050  -2.483  23.579  0.00  0.00    -0.080 Cl
ENDROOT
BRANCH   3   8
ATOM      8  N   UNL     1       7.474   2.532  21.686  0.00  0.00    -0.308 N 
ATOM      9  H   UNL     1       7.396   2.732  20.697  0.00  0.00    +0.153 HD
BRANCH   8  10
ATOM     10  C   UNL     1       6.980   3.505  22.530  0.00  0.00    +0.087 C 
ATOM     11  S   UNL     1       5.457   3.566  23.223  0.00  0.00    -0.035 S 
BRANCH  10  12
ATOM     12  C   UNL     1       7.936   4.533  22.944  0.00  0.00    +0.044 A 
ATOM     13  C   UNL     1       9.073   4.399  23.809  0.00  0.00    +0.051 A 
ATOM     14  C   UNL     1       9.627   5.645  23.947  0.00  0.00    +0.196 A 
ATOM     15  O   UNL     1       8.938   6.546  23.214  0.00  0.00    -0.467 OA
ATOM     16  C   UNL     1       7.910   5.885  22.608  0.00  0.00    +0.111 A 
ATOM     17  C   UNL     1       7.021   6.766  21.817  0.00  0.00    +0.087 C 
ENDBRANCH  10  12
ENDBRANCH   8  10
ENDBRANCH   3   8
BRANCH   1  18
ATOM     18  O   UNL     1       7.232  -1.670  24.068  0.00  0.00    -0.486 OA
BRANCH  18  19
ATOM     19  C   UNL     1       6.089  -2.259  23.446  0.00  0.00    +0.256 C 
BRANCH  19  22
ATOM     20  C   UNL     1       7.031  -5.562  21.626  0.00  0.00    +0.038 C 
ATOM     21  C   UNL     1       6.744  -4.572  22.717  0.00  0.00    -0.076 C 
ATOM     22  C   UNL     1       6.475  -3.281  22.421  0.00  0.00    +0.012 C 
ATOM     23  C   UNL     1       6.732  -5.102  24.128  0.00  0.00    +0.038 C 
ENDBRANCH  19  22
ENDBRANCH  18  19
ENDBRANCH   1  18
TORSDOF 6
ENDMDL
MODEL 9
REMARK VINA RESULT:      -5.6      2.126      2.841
REMARK  Name = 
REMARK  9 active torsions:
REMARK  status: ('A' for Active; 'I' for Inactive)
REMARK    1  A    between atoms: C_1  and  C_2
REMARK    2  A    between atoms: C_2  and  C_3
REMARK    3  A    between atoms: C_4  and  C_5
REMARK    4  A    between atoms: C_5  and  O_6
REMARK    5  A    between atoms: O_6  and  C_7
REMARK    6  A    between atoms: C_12  and  N_13
REMARK    7  A    between atoms: N_13  and  C_14
REMARK    8  A    between atoms: C_14  and  C_16
REMARK    9  A    between atoms: C_17  and  C_18
REMARK                            x       y       z     vdW  Elec       q    Type
REMARK                         _______ _______ _______ _____ _____    ______ ____
ROOT
ATOM      1  C   UNL     1       9.239  -0.587  23.030  0.00  0.00    +0.141 A 
ATOM      2  C   UNL     1       8.089  -1.386  22.910  0.00  0.00    +0.070 A 
ATOM      3  C   UNL     1       7.486  -1.973  24.023  0.00  0.00    +0.035 A 
ATOM      4  C   UNL     1       8.011  -1.709  25.288  0.00  0.00    +0.025 A 
ATOM      5  C   UNL     1       9.113  -0.856  25.434  0.00  0.00    +0.025 A 
ATOM      6  C   UNL     1       9.726  -0.297  24.309  0.00  0.00    +0.083 A 
ATOM      7 CL   UNL     1      11.110   0.708  24.549  0.00  0.00    -0.080 Cl
ENDROOT
BRANCH   3   8
ATOM      8  N   UNL     1       6.452  -2.909  23.779  0.00  0.00    -0.308 N 
ATOM      9  H   UNL     1       5.516  -2.526  23.725  0.00  0.00    +0.153 HD
BRANCH   8  10
ATOM     10  C   UNL     1       6.544  -4.278  23.639  0.00  0.00    +0.087 C 
ATOM     11  S   UNL     1       6.978  -5.127  22.263  0.00  0.00    -0.035 S 
BRANCH  10  12
ATOM     12  C   UNL     1       6.344  -5.057  24.861  0.00  0.00    +0.044 A 
ATOM     13  C   UNL     1       5.123  -5.601  25.384  0.00  0.00    +0.051 A 
ATOM     14  C   UNL     1       5.424  -6.198  26.580  0.00  0.00    +0.196 A 
ATOM     15  O   UNL     1       6.746  -6.092  26.835  0.00  0.00    -0.467 OA
ATOM     16  C   UNL     1       7.310  -5.399  25.804  0.00  0.00    +0.111 A 
ATOM     17  C   UNL     1       8.758  -5.144  25.982  0.00  0.00    +0.087 C 
ENDBRANCH  10  12
ENDBRANCH   8  10
ENDBRANCH   3   8
BRANCH   1  18
ATOM     18  O   UNL     1       9.939  -0.106  21.941  0.00  0.00    -0.486 OA
BRANCH  18  19
ATOM     19  C   UNL     1       9.897   1.315  21.805  0.00  0.00    +0.256 C 
BRANCH  19  22
ATOM     20  C   UNL     1       6.557   3.286  22.064  0.00  0.00    +0.038 C 
ATOM     21  C   UNL     1       7.927   2.762  22.382  0.00  0.00    -0.076 C 
ATOM     22  C   UNL     1       8.500   1.816  21.605  0.00  0.00    +0.012 C 
ATOM     23  C   UNL     1       8.629   3.375  23.567  0.00  0.00    +0.038 C 
ENDBRANCH  19  22
ENDBRANCH  18  19
ENDBRANCH   1  18
TORSDOF 6
ENDMDL
