MODEL 1
REMARK VINA RESULT:      -7.4      0.000      0.000
REMARK  Name = 
REMARK  3 active torsions:
REMARK  status: ('A' for Active; 'I' for Inactive)
REMARK    1  A    between atoms: C_5  and  C_9
REMARK    2  A    between atoms: C_11  and  C_28
REMARK    3  A    between atoms: N_19  and  C_20
REMARK                            x       y       z     vdW  Elec       q    Type
REMARK                         _______ _______ _______ _____ _____    ______ ____
ROOT
ATOM      1  C   UNL     1       6.844  -1.457  23.586  0.00  0.00    -0.010 A 
ATOM      2  C   UNL     1       6.071  -0.947  24.679  0.00  0.00    -0.017 A 
ATOM      3  C   UNL     1       5.110  -1.823  25.450  0.00  0.00    +0.047 C 
ATOM      4  C   UNL     1       4.667  -1.279  26.788  0.00  0.00    +0.101 C 
ATOM      5  C   UNL     1       4.307   0.173  26.707  0.00  0.00    +0.225 C 
ATOM      6  N   UNL     1       5.250   0.955  26.050  0.00  0.00    -0.237 N 
ATOM      7  O   UNL     1       3.331   0.623  27.307  0.00  0.00    -0.275 OA
ATOM      8  C   UNL     1       6.124   0.432  25.030  0.00  0.00    +0.045 A 
ATOM      9  C   UNL     1       6.970   1.282  24.302  0.00  0.00    +0.028 A 
ATOM     10  C   UNL     1       7.732   0.837  23.208  0.00  0.00    -0.042 A 
ATOM     11  C   UNL     1       7.666  -0.528  22.888  0.00  0.00    +0.013 A 
ENDROOT
BRANCH   1  17
ATOM     12  F   UNL     1       6.857  -6.874  21.727  0.00  0.00    -0.205 F 
ATOM     13  C   UNL     1       6.840  -5.615  22.187  0.00  0.00    +0.126 A 
ATOM     14  C   UNL     1       7.607  -5.260  23.281  0.00  0.00    +0.077 A 
ATOM     15  C   UNL     1       7.561  -3.945  23.766  0.00  0.00    +0.134 A 
ATOM     16  F   UNL     1       8.204  -3.742  24.920  0.00  0.00    -0.205 F 
ATOM     17  C   UNL     1       6.857  -2.896  23.125  0.00  0.00    +0.018 A 
ATOM     18  C   UNL     1       6.073  -3.321  22.024  0.00  0.00    +0.014 A 
ATOM     19  C   UNL     1       6.056  -4.655  21.567  0.00  0.00    +0.039 A 
ENDBRANCH   1  17
BRANCH   6  20
ATOM     20  C   UNL     1       5.444   2.284  26.552  0.00  0.00    +0.078 A 
ATOM     21  C   UNL     1       4.762   3.386  26.014  0.00  0.00    +0.064 A 
ATOM     22 CL   UNL     1       3.583   3.211  24.763  0.00  0.00    -0.082 Cl
ATOM     23  C   UNL     1       5.006   4.681  26.497  0.00  0.00    +0.022 A 
ATOM     24  C   UNL     1       5.905   4.889  27.546  0.00  0.00    +0.003 A 
ATOM     25  C   UNL     1       6.528   3.799  28.141  0.00  0.00    +0.022 A 
ATOM     26  C   UNL     1       6.291   2.504  27.660  0.00  0.00    +0.064 A 
ATOM     27 CL   UNL     1       7.086   1.209  28.490  0.00  0.00    -0.082 Cl
ENDBRANCH   6  20
BRANCH  10  28
ATOM     28  C   UNL     1       8.398   1.895  22.315  0.00  0.00    +0.021 C 
ATOM     29  C   UNL     1       9.936   1.878  22.223  0.00  0.00    +0.023 C 
ATOM     30  C   UNL     1      10.604   2.734  23.292  0.00  0.00    +0.081 C 
ATOM     31  N   UNL     1      10.145   4.115  23.175  0.00  0.00    -0.316 NA
ATOM     32  H   UNL     1      10.660   4.706  23.827  0.00  0.00    +0.122 HD
ATOM     33  C   UNL     1       8.716   4.203  23.458  0.00  0.00    +0.081 C 
ATOM     34  C   UNL     1       7.884   3.343  22.507  0.00  0.00    +0.023 C 
ENDBRANCH  10  28
TORSDOF 3
ENDMDL
MODEL 2
REMARK VINA RESULT:      -7.3      3.817      7.232
REMARK  Name = 
REMARK  3 active torsions:
REMARK  status: ('A' for Active; 'I' for Inactive)
REMARK    1  A    between atoms: C_5  and  C_9
REMARK    2  A    between atoms: C_11  and  C_28
REMARK    3  A    between atoms: N_19  and  C_20
REMARK                            x       y       z     vdW  Elec       q    Type
REMARK                         _______ _______ _______ _____ _____    ______ ____
ROOT
ATOM      1  C   UNL     1       7.211  -0.802  24.325  0.00  0.00    -0.010 A 
ATOM      2  C   UNL     1       7.072  -2.205  24.071  0.00  0.00    -0.017 A 
ATOM      3  C   UNL     1       7.908  -2.909  23.026  0.00  0.00    +0.047 C 
ATOM      4  C   UNL     1       7.943  -4.415  23.132  0.00  0.00    +0.101 C 
ATOM      5  C   UNL     1       6.580  -4.989  23.374  0.00  0.00    +0.225 C 
ATOM      6  N   UNL     1       5.872  -4.356  24.389  0.00  0.00    -0.237 N 
ATOM      7  O   UNL     1       6.211  -6.019  22.812  0.00  0.00    -0.275 OA
ATOM      8  C   UNL     1       6.082  -2.975  24.744  0.00  0.00    +0.045 A 
ATOM      9  C   UNL     1       5.257  -2.340  25.685  0.00  0.00    +0.028 A 
ATOM     10  C   UNL     1       5.336  -0.962  25.955  0.00  0.00    -0.042 A 
ATOM     11  C   UNL     1       6.326  -0.229  25.282  0.00  0.00    +0.013 A 
ENDROOT
BRANCH   1  17
ATOM     12  F   UNL     1      10.943   2.701  21.755  0.00  0.00    -0.205 F 
ATOM     13  C   UNL     1      10.088   1.858  22.352  0.00  0.00    +0.126 A 
ATOM     14  C   UNL     1      10.409   1.280  23.566  0.00  0.00    +0.077 A 
ATOM     15  C   UNL     1       9.515   0.382  24.168  0.00  0.00    +0.134 A 
ATOM     16  F   UNL     1       9.984  -0.247  25.250  0.00  0.00    -0.205 F 
ATOM     17  C   UNL     1       8.219   0.109  23.664  0.00  0.00    +0.018 A 
ATOM     18  C   UNL     1       7.954   0.709  22.409  0.00  0.00    +0.014 A 
ATOM     19  C   UNL     1       8.871   1.560  21.758  0.00  0.00    +0.039 A 
ENDBRANCH   1  17
BRANCH   6  20
ATOM     20  C   UNL     1       5.031  -5.187  25.200  0.00  0.00    +0.078 A 
ATOM     21  C   UNL     1       3.702  -5.466  24.847  0.00  0.00    +0.064 A 
ATOM     22 CL   UNL     1       3.008  -4.892  23.372  0.00  0.00    -0.082 Cl
ATOM     23  C   UNL     1       2.890  -6.248  25.684  0.00  0.00    +0.022 A 
ATOM     24  C   UNL     1       3.402  -6.790  26.864  0.00  0.00    +0.003 A 
ATOM     25  C   UNL     1       4.739  -6.588  27.187  0.00  0.00    +0.022 A 
ATOM     26  C   UNL     1       5.553  -5.806  26.358  0.00  0.00    +0.064 A 
ATOM     27 CL   UNL     1       7.212  -5.642  26.826  0.00  0.00    -0.082 Cl
ENDBRANCH   6  20
BRANCH  10  28
ATOM     28  C   UNL     1       4.211  -0.325  26.784  0.00  0.00    +0.021 C 
ATOM     29  C   UNL     1       4.561   0.931  27.607  0.00  0.00    +0.023 C 
ATOM     30  C   UNL     1       5.055   0.601  29.010  0.00  0.00    +0.081 C 
ATOM     31  N   UNL     1       4.034  -0.156  29.726  0.00  0.00    -0.316 NA
ATOM     32  H   UNL     1       4.323  -0.297  30.694  0.00  0.00    +0.122 HD
ATOM     33  C   UNL     1       3.818  -1.451  29.088  0.00  0.00    +0.081 C 
ATOM     34  C   UNL     1       3.372  -1.310  27.633  0.00  0.00    +0.023 C 
ENDBRANCH  10  28
TORSDOF 3
ENDMDL
MODEL 3
REMARK VINA RESULT:      -7.3      3.838      7.453
REMARK  Name = 
REMARK  3 active torsions:
REMARK  status: ('A' for Active; 'I' for Inactive)
REMARK    1  A    between atoms: C_5  and  C_9
REMARK    2  A    between atoms: C_11  and  C_28
REMARK    3  A    between atoms: N_19  and  C_20
REMARK                            x       y       z     vdW  Elec       q    Type
REMARK                         _______ _______ _______ _____ _____    ______ ____
ROOT
ATOM      1  C   UNL     1       7.206  -0.937  24.316  0.00  0.00    -0.010 A 
ATOM      2  C   UNL     1       7.069  -2.337  24.042  0.00  0.00    -0.017 A 
ATOM      3  C   UNL     1       7.909  -3.026  22.990  0.00  0.00    +0.047 C 
ATOM      4  C   UNL     1       7.946  -4.533  23.075  0.00  0.00    +0.101 C 
ATOM      5  C   UNL     1       6.582  -5.111  23.305  0.00  0.00    +0.225 C 
ATOM      6  N   UNL     1       5.871  -4.493  24.326  0.00  0.00    -0.237 N 
ATOM      7  O   UNL     1       6.216  -6.134  22.727  0.00  0.00    -0.275 OA
ATOM      8  C   UNL     1       6.078  -3.117  24.701  0.00  0.00    +0.045 A 
ATOM      9  C   UNL     1       5.249  -2.496  25.648  0.00  0.00    +0.028 A 
ATOM     10  C   UNL     1       5.326  -1.122  25.937  0.00  0.00    -0.042 A 
ATOM     11  C   UNL     1       6.318  -0.379  25.278  0.00  0.00    +0.013 A 
ENDROOT
BRANCH   1  17
ATOM     12  F   UNL     1      10.943   2.605  21.807  0.00  0.00    -0.205 F 
ATOM     13  C   UNL     1      10.087   1.753  22.389  0.00  0.00    +0.126 A 
ATOM     14  C   UNL     1      10.411   1.146  23.588  0.00  0.00    +0.077 A 
ATOM     15  C   UNL     1       9.515   0.238  24.173  0.00  0.00    +0.134 A 
ATOM     16  F   UNL     1       9.987  -0.418  25.238  0.00  0.00    -0.205 F 
ATOM     17  C   UNL     1       8.216  -0.016  23.671  0.00  0.00    +0.018 A 
ATOM     18  C   UNL     1       7.947   0.614  22.431  0.00  0.00    +0.014 A 
ATOM     19  C   UNL     1       8.865   1.475  21.796  0.00  0.00    +0.039 A 
ENDBRANCH   1  17
BRANCH   6  20
ATOM     20  C   UNL     1       5.028  -5.336  25.123  0.00  0.00    +0.078 A 
ATOM     21  C   UNL     1       5.476  -5.917  26.318  0.00  0.00    +0.064 A 
ATOM     22 CL   UNL     1       7.049  -5.595  26.957  0.00  0.00    -0.082 Cl
ATOM     23  C   UNL     1       4.641  -6.773  27.054  0.00  0.00    +0.022 A 
ATOM     24  C   UNL     1       3.338  -7.032  26.625  0.00  0.00    +0.003 A 
ATOM     25  C   UNL     1       2.853  -6.403  25.484  0.00  0.00    +0.022 A 
ATOM     26  C   UNL     1       3.683  -5.550  24.745  0.00  0.00    +0.064 A 
ATOM     27 CL   UNL     1       2.977  -4.785  23.361  0.00  0.00    -0.082 Cl
ENDBRANCH   6  20
BRANCH  10  28
ATOM     28  C   UNL     1       4.198  -0.497  26.772  0.00  0.00    +0.021 C 
ATOM     29  C   UNL     1       4.540   0.758  27.599  0.00  0.00    +0.023 C 
ATOM     30  C   UNL     1       5.040   0.427  28.999  0.00  0.00    +0.081 C 
ATOM     31  N   UNL     1       4.027  -0.342  29.715  0.00  0.00    -0.316 NA
ATOM     32  H   UNL     1       4.320  -0.484  30.681  0.00  0.00    +0.122 HD
ATOM     33  C   UNL     1       3.820  -1.635  29.072  0.00  0.00    +0.081 C 
ATOM     34  C   UNL     1       3.369  -1.493  27.618  0.00  0.00    +0.023 C 
ENDBRANCH  10  28
TORSDOF 3
ENDMDL
MODEL 4
REMARK VINA RESULT:      -7.3      3.406      7.054
REMARK  Name = 
REMARK  3 active torsions:
REMARK  status: ('A' for Active; 'I' for Inactive)
REMARK    1  A    between atoms: C_5  and  C_9
REMARK    2  A    between atoms: C_11  and  C_28
REMARK    3  A    between atoms: N_19  and  C_20
REMARK                            x       y       z     vdW  Elec       q    Type
REMARK                         _______ _______ _______ _____ _____    ______ ____
ROOT
ATOM      1  C   UNL     1       6.906  -0.057  26.236  0.00  0.00    -0.010 A 
ATOM      2  C   UNL     1       6.378  -1.388  26.202  0.00  0.00    -0.017 A 
ATOM      3  C   UNL     1       5.456  -1.905  27.283  0.00  0.00    +0.047 C 
ATOM      4  C   UNL     1       4.679  -3.151  26.931  0.00  0.00    +0.101 C 
ATOM      5  C   UNL     1       5.544  -4.177  26.264  0.00  0.00    +0.225 C 
ATOM      6  N   UNL     1       6.325  -3.673  25.231  0.00  0.00    -0.237 N 
ATOM      7  O   UNL     1       5.437  -5.373  26.532  0.00  0.00    -0.275 OA
ATOM      8  C   UNL     1       6.767  -2.302  25.183  0.00  0.00    +0.045 A 
ATOM      9  C   UNL     1       7.661  -1.868  24.191  0.00  0.00    +0.028 A 
ATOM     10  C   UNL     1       8.226  -0.581  24.191  0.00  0.00    -0.042 A 
ATOM     11  C   UNL     1       7.819   0.302  25.204  0.00  0.00    +0.013 A 
ENDROOT
BRANCH   1  17
ATOM     12  F   UNL     1       5.516   3.925  30.111  0.00  0.00    -0.205 F 
ATOM     13  C   UNL     1       5.868   3.006  29.201  0.00  0.00    +0.126 A 
ATOM     14  C   UNL     1       6.832   2.060  29.500  0.00  0.00    +0.077 A 
ATOM     15  C   UNL     1       7.208   1.119  28.529  0.00  0.00    +0.134 A 
ATOM     16  F   UNL     1       8.258   0.358  28.854  0.00  0.00    -0.205 F 
ATOM     17  C   UNL     1       6.568   0.990  27.273  0.00  0.00    +0.018 A 
ATOM     18  C   UNL     1       5.606   1.996  27.013  0.00  0.00    +0.014 A 
ATOM     19  C   UNL     1       5.267   2.991  27.953  0.00  0.00    +0.039 A 
ENDBRANCH   1  17
BRANCH   6  20
ATOM     20  C   UNL     1       6.537  -4.538  24.106  0.00  0.00    +0.078 A 
ATOM     21  C   UNL     1       7.751  -5.212  23.908  0.00  0.00    +0.064 A 
ATOM     22 CL   UNL     1       9.049  -5.111  25.045  0.00  0.00    -0.082 Cl
ATOM     23  C   UNL     1       7.944  -6.017  22.774  0.00  0.00    +0.022 A 
ATOM     24  C   UNL     1       6.918  -6.188  21.844  0.00  0.00    +0.003 A 
ATOM     25  C   UNL     1       5.683  -5.589  22.066  0.00  0.00    +0.022 A 
ATOM     26  C   UNL     1       5.486  -4.782  23.195  0.00  0.00    +0.064 A 
ATOM     27 CL   UNL     1       3.904  -4.110  23.404  0.00  0.00    -0.082 Cl
ENDBRANCH   6  20
BRANCH  10  28
ATOM     28  C   UNL     1       9.395  -0.307  23.233  0.00  0.00    +0.021 C 
ATOM     29  C   UNL     1      10.476   0.688  23.700  0.00  0.00    +0.023 C 
ATOM     30  C   UNL     1      10.161   2.128  23.315  0.00  0.00    +0.081 C 
ATOM     31  N   UNL     1      10.026   2.232  21.865  0.00  0.00    -0.316 NA
ATOM     32  H   UNL     1       9.910   3.209  21.598  0.00  0.00    +0.122 HD
ATOM     33  C   UNL     1       8.879   1.458  21.403  0.00  0.00    +0.081 C 
ATOM     34  C   UNL     1       8.996  -0.023  21.765  0.00  0.00    +0.023 C 
ENDBRANCH  10  28
TORSDOF 3
ENDMDL
MODEL 5
REMARK VINA RESULT:      -7.3      0.257      1.609
REMARK  Name = 
REMARK  3 active torsions:
REMARK  status: ('A' for Active; 'I' for Inactive)
REMARK    1  A    between atoms: C_5  and  C_9
REMARK    2  A    between atoms: C_11  and  C_28
REMARK    3  A    between atoms: N_19  and  C_20
REMARK                            x       y       z     vdW  Elec       q    Type
REMARK                         _______ _______ _______ _____ _____    ______ ____
ROOT
ATOM      1  C   UNL     1       6.869  -1.696  23.575  0.00  0.00    -0.010 A 
ATOM      2  C   UNL     1       6.094  -1.159  24.654  0.00  0.00    -0.017 A 
ATOM      3  C   UNL     1       5.114  -2.010  25.429  0.00  0.00    +0.047 C 
ATOM      4  C   UNL     1       4.668  -1.441  26.755  0.00  0.00    +0.101 C 
ATOM      5  C   UNL     1       4.329   0.016  26.650  0.00  0.00    +0.225 C 
ATOM      6  N   UNL     1       5.289   0.774  25.991  0.00  0.00    -0.237 N 
ATOM      7  O   UNL     1       3.355   0.488  27.235  0.00  0.00    -0.275 OA
ATOM      8  C   UNL     1       6.164   0.224  24.986  0.00  0.00    +0.045 A 
ATOM      9  C   UNL     1       7.029   1.051  24.253  0.00  0.00    +0.028 A 
ATOM     10  C   UNL     1       7.793   0.580  23.172  0.00  0.00    -0.042 A 
ATOM     11  C   UNL     1       7.710  -0.789  22.871  0.00  0.00    +0.013 A 
ENDROOT
BRANCH   1  17
ATOM     12  F   UNL     1       6.821  -7.139  21.793  0.00  0.00    -0.205 F 
ATOM     13  C   UNL     1       6.818  -5.873  22.234  0.00  0.00    +0.126 A 
ATOM     14  C   UNL     1       7.564  -5.517  23.343  0.00  0.00    +0.077 A 
ATOM     15  C   UNL     1       7.532  -4.194  23.808  0.00  0.00    +0.134 A 
ATOM     16  F   UNL     1       8.150  -3.987  24.975  0.00  0.00    -0.205 F 
ATOM     17  C   UNL     1       6.865  -3.142  23.134  0.00  0.00    +0.018 A 
ATOM     18  C   UNL     1       6.100  -3.567  22.021  0.00  0.00    +0.014 A 
ATOM     19  C   UNL     1       6.068  -4.907  21.582  0.00  0.00    +0.039 A 
ENDBRANCH   1  17
BRANCH   6  20
ATOM     20  C   UNL     1       5.498   2.107  26.475  0.00  0.00    +0.078 A 
ATOM     21  C   UNL     1       6.316   2.375  27.582  0.00  0.00    +0.064 A 
ATOM     22 CL   UNL     1       7.193   1.126  28.394  0.00  0.00    -0.082 Cl
ATOM     23  C   UNL     1       6.466   3.686  28.059  0.00  0.00    +0.022 A 
ATOM     24  C   UNL     1       5.832   4.751  27.417  0.00  0.00    +0.003 A 
ATOM     25  C   UNL     1       5.081   4.512  26.272  0.00  0.00    +0.022 A 
ATOM     26  C   UNL     1       4.925   3.204  25.794  0.00  0.00    +0.064 A 
ATOM     27 CL   UNL     1       4.002   3.012  24.341  0.00  0.00    -0.082 Cl
ENDBRANCH   6  20
BRANCH  10  28
ATOM     28  C   UNL     1       8.482   1.615  22.270  0.00  0.00    +0.021 C 
ATOM     29  C   UNL     1      10.022   1.665  22.296  0.00  0.00    +0.023 C 
ATOM     30  C   UNL     1      10.567   2.610  23.359  0.00  0.00    +0.081 C 
ATOM     31  N   UNL     1      10.061   3.959  23.124  0.00  0.00    -0.316 NA
ATOM     32  H   UNL     1      10.498   4.610  23.776  0.00  0.00    +0.122 HD
ATOM     33  C   UNL     1       8.612   3.996  23.292  0.00  0.00    +0.081 C 
ATOM     34  C   UNL     1       7.894   3.046  22.334  0.00  0.00    +0.023 C 
ENDBRANCH  10  28
TORSDOF 3
ENDMDL
MODEL 6
REMARK VINA RESULT:      -7.1      3.379      6.907
REMARK  Name = 
REMARK  3 active torsions:
REMARK  status: ('A' for Active; 'I' for Inactive)
REMARK    1  A    between atoms: C_5  and  C_9
REMARK    2  A    between atoms: C_11  and  C_28
REMARK    3  A    between atoms: N_19  and  C_20
REMARK                            x       y       z     vdW  Elec       q    Type
REMARK                         _______ _______ _______ _____ _____    ______ ____
ROOT
ATOM      1  C   UNL     1       6.127   0.460  25.759  0.00  0.00    -0.010 A 
ATOM      2  C   UNL     1       5.975  -0.948  25.978  0.00  0.00    -0.017 A 
ATOM      3  C   UNL     1       5.589  -1.504  27.329  0.00  0.00    +0.047 C 
ATOM      4  C   UNL     1       5.090  -2.930  27.325  0.00  0.00    +0.101 C 
ATOM      5  C   UNL     1       5.946  -3.817  26.472  0.00  0.00    +0.225 C 
ATOM      6  N   UNL     1       6.220  -3.298  25.213  0.00  0.00    -0.237 N 
ATOM      7  O   UNL     1       6.237  -4.958  26.829  0.00  0.00    -0.275 OA
ATOM      8  C   UNL     1       6.259  -1.882  24.943  0.00  0.00    +0.045 A 
ATOM      9  C   UNL     1       6.667  -1.399  23.690  0.00  0.00    +0.028 A 
ATOM     10  C   UNL     1       6.854  -0.031  23.430  0.00  0.00    -0.042 A 
ATOM     11  C   UNL     1       6.560   0.869  24.466  0.00  0.00    +0.013 A 
ENDROOT
BRANCH   1  17
ATOM     12  F   UNL     1       5.240   4.566  29.653  0.00  0.00    -0.205 F 
ATOM     13  C   UNL     1       5.431   3.586  28.758  0.00  0.00    +0.126 A 
ATOM     14  C   UNL     1       4.381   3.139  27.976  0.00  0.00    +0.077 A 
ATOM     15  C   UNL     1       4.590   2.097  27.060  0.00  0.00    +0.134 A 
ATOM     16  F   UNL     1       3.485   1.626  26.474  0.00  0.00    -0.205 F 
ATOM     17  C   UNL     1       5.862   1.536  26.787  0.00  0.00    +0.018 A 
ATOM     18  C   UNL     1       6.893   2.015  27.631  0.00  0.00    +0.014 A 
ATOM     19  C   UNL     1       6.684   3.014  28.604  0.00  0.00    +0.039 A 
ENDBRANCH   1  17
BRANCH   6  20
ATOM     20  C   UNL     1       6.297  -4.238  24.133  0.00  0.00    +0.078 A 
ATOM     21  C   UNL     1       5.150  -4.703  23.471  0.00  0.00    +0.064 A 
ATOM     22 CL   UNL     1       3.571  -4.117  23.857  0.00  0.00    -0.082 Cl
ATOM     23  C   UNL     1       5.255  -5.658  22.447  0.00  0.00    +0.022 A 
ATOM     24  C   UNL     1       6.505  -6.133  22.046  0.00  0.00    +0.003 A 
ATOM     25  C   UNL     1       7.654  -5.624  22.639  0.00  0.00    +0.022 A 
ATOM     26  C   UNL     1       7.556  -4.674  23.664  0.00  0.00    +0.064 A 
ATOM     27 CL   UNL     1       9.044  -4.074  24.314  0.00  0.00    -0.082 Cl
ENDBRANCH   6  20
BRANCH  10  28
ATOM     28  C   UNL     1       7.566   0.365  22.127  0.00  0.00    +0.021 C 
ATOM     29  C   UNL     1       8.987  -0.187  21.900  0.00  0.00    +0.023 C 
ATOM     30  C   UNL     1      10.072   0.721  22.464  0.00  0.00    +0.081 C 
ATOM     31  N   UNL     1       9.980   2.040  21.848  0.00  0.00    -0.316 NA
ATOM     32  H   UNL     1      10.762   2.620  22.153  0.00  0.00    +0.122 HD
ATOM     33  C   UNL     1       8.723   2.686  22.209  0.00  0.00    +0.081 C 
ATOM     34  C   UNL     1       7.507   1.870  21.770  0.00  0.00    +0.023 C 
ENDBRANCH  10  28
TORSDOF 3
ENDMDL
MODEL 7
REMARK VINA RESULT:      -6.9      2.213      2.657
REMARK  Name = 
REMARK  3 active torsions:
REMARK  status: ('A' for Active; 'I' for Inactive)
REMARK    1  A    between atoms: C_5  and  C_9
REMARK    2  A    between atoms: C_11  and  C_28
REMARK    3  A    between atoms: N_19  and  C_20
REMARK                            x       y       z     vdW  Elec       q    Type
REMARK                         _______ _______ _______ _____ _____    ______ ____
ROOT
ATOM      1  C   UNL     1       6.544  -2.113  25.162  0.00  0.00    -0.010 A 
ATOM      2  C   UNL     1       5.845  -0.935  25.582  0.00  0.00    -0.017 A 
ATOM      3  C   UNL     1       4.496  -1.011  26.261  0.00  0.00    +0.047 C 
ATOM      4  C   UNL     1       4.065   0.241  26.988  0.00  0.00    +0.101 C 
ATOM      5  C   UNL     1       4.319   1.473  26.173  0.00  0.00    +0.225 C 
ATOM      6  N   UNL     1       5.594   1.536  25.624  0.00  0.00    -0.237 N 
ATOM      7  O   UNL     1       3.504   2.394  26.138  0.00  0.00    -0.275 OA
ATOM      8  C   UNL     1       6.365   0.361  25.305  0.00  0.00    +0.045 A 
ATOM      9  C   UNL     1       7.593   0.466  24.633  0.00  0.00    +0.028 A 
ATOM     10  C   UNL     1       8.307  -0.657  24.179  0.00  0.00    -0.042 A 
ATOM     11  C   UNL     1       7.774  -1.922  24.472  0.00  0.00    +0.013 A 
ENDROOT
BRANCH   1  17
ATOM     12  F   UNL     1       4.829  -7.485  26.166  0.00  0.00    -0.205 F 
ATOM     13  C   UNL     1       5.242  -6.236  25.905  0.00  0.00    +0.126 A 
ATOM     14  C   UNL     1       4.657  -5.505  24.887  0.00  0.00    +0.077 A 
ATOM     15  C   UNL     1       5.116  -4.208  24.610  0.00  0.00    +0.134 A 
ATOM     16  F   UNL     1       4.605  -3.649  23.509  0.00  0.00    -0.205 F 
ATOM     17  C   UNL     1       6.080  -3.532  25.397  0.00  0.00    +0.018 A 
ATOM     18  C   UNL     1       6.660  -4.336  26.409  0.00  0.00    +0.014 A 
ATOM     19  C   UNL     1       6.257  -5.664  26.656  0.00  0.00    +0.039 A 
ENDBRANCH   1  17
BRANCH   6  20
ATOM     20  C   UNL     1       6.195   2.835  25.542  0.00  0.00    +0.078 A 
ATOM     21  C   UNL     1       6.071   3.639  24.399  0.00  0.00    +0.064 A 
ATOM     22 CL   UNL     1       5.120   3.154  23.039  0.00  0.00    -0.082 Cl
ATOM     23  C   UNL     1       6.707   4.889  24.333  0.00  0.00    +0.022 A 
ATOM     24  C   UNL     1       7.445   5.367  25.417  0.00  0.00    +0.003 A 
ATOM     25  C   UNL     1       7.512   4.617  26.585  0.00  0.00    +0.022 A 
ATOM     26  C   UNL     1       6.881   3.367  26.656  0.00  0.00    +0.064 A 
ATOM     27 CL   UNL     1       6.991   2.525  28.165  0.00  0.00    -0.082 Cl
ENDBRANCH   6  20
BRANCH  10  28
ATOM     28  C   UNL     1       9.482  -0.423  23.218  0.00  0.00    +0.021 C 
ATOM     29  C   UNL     1      10.564   0.586  23.652  0.00  0.00    +0.023 C 
ATOM     30  C   UNL     1      10.256   2.011  23.210  0.00  0.00    +0.081 C 
ATOM     31  N   UNL     1      10.130   2.059  21.757  0.00  0.00    -0.316 NA
ATOM     32  H   UNL     1      10.018   3.026  21.452  0.00  0.00    +0.122 HD
ATOM     33  C   UNL     1       8.983   1.272  21.318  0.00  0.00    +0.081 C 
ATOM     34  C   UNL     1       9.093  -0.194  21.737  0.00  0.00    +0.023 C 
ENDBRANCH  10  28
TORSDOF 3
ENDMDL
MODEL 8
REMARK VINA RESULT:      -6.8      3.555      7.040
REMARK  Name = 
REMARK  3 active torsions:
REMARK  status: ('A' for Active; 'I' for Inactive)
REMARK    1  A    between atoms: C_5  and  C_9
REMARK    2  A    between atoms: C_11  and  C_28
REMARK    3  A    between atoms: N_19  and  C_20
REMARK                            x       y       z     vdW  Elec       q    Type
REMARK                         _______ _______ _______ _____ _____    ______ ____
ROOT
ATOM      1  C   UNL     1       7.293  -1.379  25.198  0.00  0.00    -0.010 A 
ATOM      2  C   UNL     1       6.339  -1.271  26.262  0.00  0.00    -0.017 A 
ATOM      3  C   UNL     1       6.291  -0.059  27.165  0.00  0.00    +0.047 C 
ATOM      4  C   UNL     1       5.021   0.102  27.967  0.00  0.00    +0.101 C 
ATOM      5  C   UNL     1       4.586  -1.192  28.585  0.00  0.00    +0.225 C 
ATOM      6  N   UNL     1       4.578  -2.266  27.703  0.00  0.00    -0.237 N 
ATOM      7  O   UNL     1       4.139  -1.234  29.731  0.00  0.00    -0.275 OA
ATOM      8  C   UNL     1       5.447  -2.340  26.556  0.00  0.00    +0.045 A 
ATOM      9  C   UNL     1       5.500  -3.500  25.766  0.00  0.00    +0.028 A 
ATOM     10  C   UNL     1       6.431  -3.666  24.726  0.00  0.00    -0.042 A 
ATOM     11  C   UNL     1       7.293  -2.593  24.454  0.00  0.00    +0.013 A 
ENDROOT
BRANCH   1  17
ATOM     12  F   UNL     1      11.153   2.588  23.729  0.00  0.00    -0.205 F 
ATOM     13  C   UNL     1      10.236   1.679  24.090  0.00  0.00    +0.126 A 
ATOM     14  C   UNL     1       8.919   1.819  23.693  0.00  0.00    +0.077 A 
ATOM     15  C   UNL     1       7.966   0.873  24.099  0.00  0.00    +0.134 A 
ATOM     16  F   UNL     1       6.699   1.182  23.806  0.00  0.00    -0.205 F 
ATOM     17  C   UNL     1       8.287  -0.311  24.806  0.00  0.00    +0.018 A 
ATOM     18  C   UNL     1       9.644  -0.390  25.206  0.00  0.00    +0.014 A 
ATOM     19  C   UNL     1      10.600   0.588  24.864  0.00  0.00    +0.039 A 
ENDBRANCH   1  17
BRANCH   6  20
ATOM     20  C   UNL     1       3.539  -3.237  27.883  0.00  0.00    +0.078 A 
ATOM     21  C   UNL     1       3.766  -4.455  28.542  0.00  0.00    +0.064 A 
ATOM     22 CL   UNL     1       5.294  -4.837  29.254  0.00  0.00    -0.082 Cl
ATOM     23  C   UNL     1       2.739  -5.404  28.664  0.00  0.00    +0.022 A 
ATOM     24  C   UNL     1       1.465  -5.137  28.161  0.00  0.00    +0.003 A 
ATOM     25  C   UNL     1       1.203  -3.904  27.575  0.00  0.00    +0.022 A 
ATOM     26  C   UNL     1       2.225  -2.955  27.448  0.00  0.00    +0.064 A 
ATOM     27 CL   UNL     1       1.792  -1.436  26.737  0.00  0.00    -0.082 Cl
ENDBRANCH   6  20
BRANCH  10  28
ATOM     28  C   UNL     1       6.588  -5.068  24.118  0.00  0.00    +0.021 C 
ATOM     29  C   UNL     1       7.313  -5.175  22.761  0.00  0.00    +0.023 C 
ATOM     30  C   UNL     1       6.367  -5.048  21.573  0.00  0.00    +0.081 C 
ATOM     31  N   UNL     1       5.348  -6.090  21.641  0.00  0.00    -0.316 NA
ATOM     32  H   UNL     1       4.773  -6.066  20.800  0.00  0.00    +0.122 HD
ATOM     33  C   UNL     1       4.505  -5.903  22.817  0.00  0.00    +0.081 C 
ATOM     34  C   UNL     1       5.308  -5.938  24.117  0.00  0.00    +0.023 C 
ENDBRANCH  10  28
TORSDOF 3
ENDMDL
MODEL 9
REMARK VINA RESULT:      -6.8      3.621      7.354
REMARK  Name = 
REMARK  3 active torsions:
REMARK  status: ('A' for Active; 'I' for Inactive)
REMARK    1  A    between atoms: C_5  and  C_9
REMARK    2  A    between atoms: C_11  and  C_28
REMARK    3  A    between atoms: N_19  and  C_20
REMARK                            x       y       z     vdW  Elec       q    Type
REMARK                         _______ _______ _______ _____ _____    ______ ____
ROOT
ATOM      1  C   UNL     1       8.421   1.088  25.014  0.00  0.00    -0.010 A 
ATOM      2  C   UNL     1       8.357  -0.192  24.373  0.00  0.00    -0.017 A 
ATOM      3  C   UNL     1       8.952  -0.425  23.003  0.00  0.00    +0.047 C 
ATOM      4  C   UNL     1       9.160  -1.872  22.624  0.00  0.00    +0.101 C 
ATOM      5  C   UNL     1       7.971  -2.715  22.972  0.00  0.00    +0.225 C 
ATOM      6  N   UNL     1       7.498  -2.520  24.265  0.00  0.00    -0.237 N 
ATOM      7  O   UNL     1       7.569  -3.597  22.214  0.00  0.00    -0.275 OA
ATOM      8  C   UNL     1       7.659  -1.276  24.975  0.00  0.00    +0.045 A 
ATOM      9  C   UNL     1       7.053  -1.078  26.226  0.00  0.00    +0.028 A 
ATOM     10  C   UNL     1       7.067   0.162  26.886  0.00  0.00    -0.042 A 
ATOM     11  C   UNL     1       7.768   1.212  26.273  0.00  0.00    +0.013 A 
ENDROOT
BRANCH   1  17
ATOM     12  F   UNL     1      11.005   5.772  22.968  0.00  0.00    -0.205 F 
ATOM     13  C   UNL     1      10.404   4.662  23.421  0.00  0.00    +0.126 A 
ATOM     14  C   UNL     1      11.135   3.507  23.628  0.00  0.00    +0.077 A 
ATOM     15  C   UNL     1      10.489   2.346  24.080  0.00  0.00    +0.134 A 
ATOM     16  F   UNL     1      11.245   1.244  24.091  0.00  0.00    -0.205 F 
ATOM     17  C   UNL     1       9.126   2.305  24.462  0.00  0.00    +0.018 A 
ATOM     18  C   UNL     1       8.422   3.508  24.207  0.00  0.00    +0.014 A 
ATOM     19  C   UNL     1       9.044   4.663  23.688  0.00  0.00    +0.039 A 
ENDBRANCH   1  17
BRANCH   6  20
ATOM     20  C   UNL     1       6.985  -3.675  24.942  0.00  0.00    +0.078 A 
ATOM     21  C   UNL     1       5.617  -3.985  24.948  0.00  0.00    +0.064 A 
ATOM     22 CL   UNL     1       4.462  -3.041  24.074  0.00  0.00    -0.082 Cl
ATOM     23  C   UNL     1       5.140  -5.099  25.657  0.00  0.00    +0.022 A 
ATOM     24  C   UNL     1       6.024  -5.937  26.338  0.00  0.00    +0.003 A 
ATOM     25  C   UNL     1       7.390  -5.687  26.277  0.00  0.00    +0.022 A 
ATOM     26  C   UNL     1       7.872  -4.575  25.574  0.00  0.00    +0.064 A 
ATOM     27 CL   UNL     1       9.590  -4.369  25.526  0.00  0.00    -0.082 Cl
ENDBRANCH   6  20
BRANCH  10  28
ATOM     28  C   UNL     1       6.144   0.342  28.101  0.00  0.00    +0.021 C 
ATOM     29  C   UNL     1       4.785  -0.385  28.073  0.00  0.00    +0.023 C 
ATOM     30  C   UNL     1       3.680   0.449  27.437  0.00  0.00    +0.081 C 
ATOM     31  N   UNL     1       3.524   1.702  28.169  0.00  0.00    -0.316 NA
ATOM     32  H   UNL     1       2.724   2.218  27.804  0.00  0.00    +0.122 HD
ATOM     33  C   UNL     1       4.729   2.516  28.049  0.00  0.00    +0.081 C 
ATOM     34  C   UNL     1       5.967   1.801  28.589  0.00  0.00    +0.023 C 
ENDBRANCH  10  28
TORSDOF 3
ENDMDL
