MODEL 1
REMARK VINA RESULT:      -6.7      0.000      0.000
REMARK  Name = 
REMARK  14 active torsions:
REMARK  status: ('A' for Active; 'I' for Inactive)
REMARK    1  A    between atoms: C_1  and  S_2
REMARK    2  A    between atoms: S_2  and  C_3
REMARK    3  A    between atoms: C_3  and  C_4
REMARK    4  A    between atoms: C_4  and  C_5
REMARK    5  A    between atoms: C_5  and  N_7
REMARK    6  A    between atoms: C_5  and  C_8
REMARK    7  A    between atoms: N_10  and  S_11
REMARK    8  A    between atoms: S_11  and  O_14
REMARK    9  A    between atoms: O_14  and  C_15
REMARK   10  A    between atoms: C_15  and  C_16
REMARK   11  A    between atoms: C_19  and  N_27
REMARK   12  A    between atoms: C_21  and  O_23
REMARK   13  A    between atoms: C_24  and  O_26
REMARK   14  A    between atoms: C_31  and  N_32
REMARK                            x       y       z     vdW  Elec       q    Type
REMARK                         _______ _______ _______ _____ _____    ______ ____
ROOT
ATOM      1  C   UNL     1      10.270   1.308  23.699  0.00  0.00    +0.180 C 
ATOM      2  C   UNL     1       9.488   1.306  22.401  0.00  0.00    +0.178 C 
ATOM      3  C   UNL     1       8.046   1.674  22.772  0.00  0.00    +0.193 C 
ATOM      4  C   UNL     1       8.001   1.856  24.304  0.00  0.00    +0.240 C 
ATOM      5  O   UNL     1       9.361   1.596  24.761  0.00  0.00    -0.348 OA
ENDROOT
BRANCH   4   6
ATOM      6  N   UNL     1       7.613   3.206  24.823  0.00  0.00    -0.265 N 
ATOM      7  C   UNL     1       8.282   4.502  24.478  0.00  0.00    +0.255 C 
ATOM      8  C   UNL     1       7.394   4.984  23.353  0.00  0.00    +0.169 C 
ATOM      9  C   UNL     1       7.778   5.972  22.524  0.00  0.00    +0.284 C 
ATOM     10  N   UNL     1       8.959   6.585  22.854  0.00  0.00    -0.195 N 
ATOM     11  H   UNL     1       9.053   7.530  22.499  0.00  0.00    +0.299 HD
ATOM     12  C   UNL     1       9.802   6.084  23.823  0.00  0.00    +0.300 C 
ATOM     13  N   UNL     1       6.149   4.405  23.445  0.00  0.00    -0.233 NA
ATOM     14  N   UNL     1       9.688   4.967  24.487  0.00  0.00    -0.225 NA
ATOM     15  C   UNL     1       6.322   3.503  24.368  0.00  0.00    +0.188 C 
BRANCH   9  16
ATOM     16  N   UNL     1       7.009   6.402  21.465  0.00  0.00    -0.250 N 
ATOM     17  H   UNL     1       6.348   7.117  21.757  0.00  0.00    +0.288 HD
ATOM     18  H   UNL     1       7.639   6.786  20.750  0.00  0.00    +0.288 HD
ENDBRANCH   9  16
ENDBRANCH   4   6
BRANCH   2  19
ATOM     19  O   UNL     1      10.046   2.252  21.472  0.00  0.00    -0.386 OA
ATOM     20  H   UNL     1      10.432   1.767  20.721  0.00  0.00    +0.210 HD
ENDBRANCH   2  19
BRANCH   3  21
ATOM     21  O   UNL     1       7.217   0.567  22.358  0.00  0.00    -0.385 OA
ATOM     22  H   UNL     1       7.798  -0.206  22.274  0.00  0.00    +0.210 HD
ENDBRANCH   3  21
BRANCH   1  23
ATOM     23  C   UNL     1      10.989  -0.013  24.017  0.00  0.00    +0.229 C 
BRANCH  23  24
ATOM     24  O   UNL     1      10.094  -0.953  24.579  0.00  0.00    -0.220 OA
BRANCH  24  25
ATOM     25  S   UNL     1       9.703  -2.225  23.643  0.00  0.00    +0.169 S 
ATOM     26  O   UNL     1      10.168  -1.934  22.299  0.00  0.00    -0.126 OA
ATOM     27  O   UNL     1      10.065  -3.464  24.287  0.00  0.00    -0.126 OA
BRANCH  25  29
ATOM     28  C   UNL     1       7.272  -3.062  22.815  0.00  0.00    +0.250 C 
ATOM     29  N   UNL     1       8.048  -2.155  23.545  0.00  0.00    -0.164 N 
ATOM     30  H   UNL     1       7.600  -1.281  23.852  0.00  0.00    +0.179 HD
ATOM     31  O   UNL     1       7.739  -4.103  22.356  0.00  0.00    -0.272 OA
BRANCH  28  32
ATOM     32  C   UNL     1       5.786  -2.697  22.715  0.00  0.00    +0.140 C 
BRANCH  32  33
ATOM     33  N   UNL     1       5.442  -1.622  23.686  0.00  0.00    -0.320 NA
ATOM     34  H   UNL     1       4.624  -1.935  24.219  0.00  0.00    +0.119 HD
ATOM     35  H   UNL     1       6.186  -1.577  24.386  0.00  0.00    +0.119 HD
ENDBRANCH  32  33
BRANCH  32  36
ATOM     36  C   UNL     1       4.979  -3.980  22.969  0.00  0.00    +0.038 C 
BRANCH  36  37
ATOM     37  C   UNL     1       4.611  -4.261  24.426  0.00  0.00    +0.071 C 
BRANCH  37  39
ATOM     38  C   UNL     1       6.599  -4.413  26.332  0.00  0.00    +0.084 C 
ATOM     39  S   UNL     1       5.721  -5.493  25.179  0.00  0.00    -0.164 S 
ENDBRANCH  37  39
ENDBRANCH  36  37
ENDBRANCH  32  36
ENDBRANCH  28  32
ENDBRANCH  25  29
ENDBRANCH  24  25
ENDBRANCH  23  24
ENDBRANCH   1  23
TORSDOF 13
ENDMDL
MODEL 2
REMARK VINA RESULT:      -6.7      2.799      8.221
REMARK  Name = 
REMARK  14 active torsions:
REMARK  status: ('A' for Active; 'I' for Inactive)
REMARK    1  A    between atoms: C_1  and  S_2
REMARK    2  A    between atoms: S_2  and  C_3
REMARK    3  A    between atoms: C_3  and  C_4
REMARK    4  A    between atoms: C_4  and  C_5
REMARK    5  A    between atoms: C_5  and  N_7
REMARK    6  A    between atoms: C_5  and  C_8
REMARK    7  A    between atoms: N_10  and  S_11
REMARK    8  A    between atoms: S_11  and  O_14
REMARK    9  A    between atoms: O_14  and  C_15
REMARK   10  A    between atoms: C_15  and  C_16
REMARK   11  A    between atoms: C_19  and  N_27
REMARK   12  A    between atoms: C_21  and  O_23
REMARK   13  A    between atoms: C_24  and  O_26
REMARK   14  A    between atoms: C_31  and  N_32
REMARK                            x       y       z     vdW  Elec       q    Type
REMARK                         _______ _______ _______ _____ _____    ______ ____
ROOT
ATOM      1  C   UNL     1       9.349  -0.646  24.395  0.00  0.00    +0.180 C 
ATOM      2  C   UNL     1       8.076  -0.575  25.213  0.00  0.00    +0.178 C 
ATOM      3  C   UNL     1       7.038  -1.420  24.462  0.00  0.00    +0.193 C 
ATOM      4  C   UNL     1       7.721  -1.950  23.183  0.00  0.00    +0.240 C 
ATOM      5  O   UNL     1       9.079  -1.419  23.225  0.00  0.00    -0.348 OA
ENDROOT
BRANCH   4   6
ATOM      6  N   UNL     1       7.836  -3.436  23.033  0.00  0.00    -0.265 N 
ATOM      7  C   UNL     1       8.475  -4.369  24.016  0.00  0.00    +0.255 C 
ATOM      8  C   UNL     1       7.264  -4.818  24.803  0.00  0.00    +0.169 C 
ATOM      9  C   UNL     1       7.385  -5.437  25.992  0.00  0.00    +0.284 C 
ATOM     10  N   UNL     1       8.669  -5.740  26.365  0.00  0.00    -0.195 N 
ATOM     11  H   UNL     1       8.743  -6.511  27.020  0.00  0.00    +0.299 HD
ATOM     12  C   UNL     1       9.766  -5.251  25.688  0.00  0.00    +0.300 C 
ATOM     13  N   UNL     1       6.122  -4.661  24.054  0.00  0.00    -0.233 NA
ATOM     14  N   UNL     1       9.787  -4.396  24.704  0.00  0.00    -0.225 NA
ATOM     15  C   UNL     1       6.546  -3.982  23.026  0.00  0.00    +0.188 C 
BRANCH   9  16
ATOM     16  N   UNL     1       6.300  -5.819  26.751  0.00  0.00    -0.250 N 
ATOM     17  H   UNL     1       5.827  -5.011  27.147  0.00  0.00    +0.288 HD
ATOM     18  H   UNL     1       5.652  -6.333  26.142  0.00  0.00    +0.288 HD
ENDBRANCH   9  16
ENDBRANCH   4   6
BRANCH   2  19
ATOM     19  O   UNL     1       8.298  -1.082  26.541  0.00  0.00    -0.386 OA
ATOM     20  H   UNL     1       9.107  -0.678  26.901  0.00  0.00    +0.210 HD
ENDBRANCH   2  19
BRANCH   3  21
ATOM     21  O   UNL     1       5.945  -0.536  24.134  0.00  0.00    -0.385 OA
ATOM     22  H   UNL     1       6.184   0.345  24.464  0.00  0.00    +0.210 HD
ENDBRANCH   3  21
BRANCH   1  23
ATOM     23  C   UNL     1       9.908   0.718  23.959  0.00  0.00    +0.229 C 
BRANCH  23  24
ATOM     24  O   UNL     1       8.880   1.685  23.883  0.00  0.00    -0.220 OA
BRANCH  24  25
ATOM     25  S   UNL     1       8.294   2.000  22.398  0.00  0.00    +0.169 S 
ATOM     26  O   UNL     1       9.292   1.567  21.438  0.00  0.00    -0.126 OA
ATOM     27  O   UNL     1       6.928   1.552  22.281  0.00  0.00    -0.126 OA
BRANCH  25  29
ATOM     28  C   UNL     1       7.696   4.493  23.247  0.00  0.00    +0.250 C 
ATOM     29  N   UNL     1       8.308   3.657  22.307  0.00  0.00    -0.164 N 
ATOM     30  H   UNL     1       8.586   4.072  21.407  0.00  0.00    +0.179 HD
ATOM     31  O   UNL     1       7.277   4.073  24.324  0.00  0.00    -0.272 OA
BRANCH  28  32
ATOM     32  C   UNL     1       7.675   5.978  22.865  0.00  0.00    +0.140 C 
BRANCH  32  33
ATOM     33  N   UNL     1       7.411   6.143  21.409  0.00  0.00    -0.320 NA
ATOM     34  H   UNL     1       6.670   6.844  21.306  0.00  0.00    +0.119 HD
ATOM     35  H   UNL     1       8.229   6.590  20.988  0.00  0.00    +0.119 HD
ENDBRANCH  32  33
BRANCH  32  36
ATOM     36  C   UNL     1       9.029   6.578  23.276  0.00  0.00    +0.038 C 
BRANCH  36  37
ATOM     37  C   UNL     1       9.841   5.767  24.287  0.00  0.00    +0.071 C 
BRANCH  37  39
ATOM     38  C   UNL     1      11.716   3.991  23.320  0.00  0.00    +0.084 C 
ATOM     39  S   UNL     1      11.608   5.716  23.850  0.00  0.00    -0.164 S 
ENDBRANCH  37  39
ENDBRANCH  36  37
ENDBRANCH  32  36
ENDBRANCH  28  32
ENDBRANCH  25  29
ENDBRANCH  24  25
ENDBRANCH  23  24
ENDBRANCH   1  23
TORSDOF 13
ENDMDL
MODEL 3
REMARK VINA RESULT:      -6.6      1.455      2.230
REMARK  Name = 
REMARK  14 active torsions:
REMARK  status: ('A' for Active; 'I' for Inactive)
REMARK    1  A    between atoms: C_1  and  S_2
REMARK    2  A    between atoms: S_2  and  C_3
REMARK    3  A    between atoms: C_3  and  C_4
REMARK    4  A    between atoms: C_4  and  C_5
REMARK    5  A    between atoms: C_5  and  N_7
REMARK    6  A    between atoms: C_5  and  C_8
REMARK    7  A    between atoms: N_10  and  S_11
REMARK    8  A    between atoms: S_11  and  O_14
REMARK    9  A    between atoms: O_14  and  C_15
REMARK   10  A    between atoms: C_15  and  C_16
REMARK   11  A    between atoms: C_19  and  N_27
REMARK   12  A    between atoms: C_21  and  O_23
REMARK   13  A    between atoms: C_24  and  O_26
REMARK   14  A    between atoms: C_31  and  N_32
REMARK                            x       y       z     vdW  Elec       q    Type
REMARK                         _______ _______ _______ _____ _____    ______ ____
ROOT
ATOM      1  C   UNL     1      10.290   1.598  24.071  0.00  0.00    +0.180 C 
ATOM      2  C   UNL     1      10.138   1.875  22.589  0.00  0.00    +0.178 C 
ATOM      3  C   UNL     1       8.643   2.133  22.355  0.00  0.00    +0.193 C 
ATOM      4  C   UNL     1       7.933   1.967  23.715  0.00  0.00    +0.240 C 
ATOM      5  O   UNL     1       8.990   1.630  24.661  0.00  0.00    -0.348 OA
ENDROOT
BRANCH   4   6
ATOM      6  N   UNL     1       7.218   3.162  24.265  0.00  0.00    -0.265 N 
ATOM      7  C   UNL     1       7.742   4.566  24.282  0.00  0.00    +0.255 C 
ATOM      8  C   UNL     1       7.116   5.114  23.021  0.00  0.00    +0.169 C 
ATOM      9  C   UNL     1       7.544   6.261  22.461  0.00  0.00    +0.284 C 
ATOM     10  N   UNL     1       8.487   6.946  23.182  0.00  0.00    -0.195 N 
ATOM     11  H   UNL     1       8.522   7.941  22.986  0.00  0.00    +0.299 HD
ATOM     12  C   UNL     1       9.114   6.398  24.281  0.00  0.00    +0.300 C 
ATOM     13  N   UNL     1       5.997   4.388  22.687  0.00  0.00    -0.233 NA
ATOM     14  N   UNL     1       9.006   5.184  24.744  0.00  0.00    -0.225 NA
ATOM     15  C   UNL     1       6.061   3.375  23.504  0.00  0.00    +0.188 C 
BRANCH   9  16
ATOM     16  N   UNL     1       7.022   6.762  21.288  0.00  0.00    -0.250 N 
ATOM     17  H   UNL     1       6.159   6.287  21.037  0.00  0.00    +0.288 HD
ATOM     18  H   UNL     1       6.837   7.763  21.425  0.00  0.00    +0.288 HD
ENDBRANCH   9  16
ENDBRANCH   4   6
BRANCH   2  19
ATOM     19  O   UNL     1      10.930   3.012  22.202  0.00  0.00    -0.386 OA
ATOM     20  H   UNL     1      11.142   2.941  21.255  0.00  0.00    +0.210 HD
ENDBRANCH   2  19
BRANCH   3  21
ATOM     21  O   UNL     1       8.195   1.135  21.413  0.00  0.00    -0.385 OA
ATOM     22  H   UNL     1       8.942   0.944  20.824  0.00  0.00    +0.210 HD
ENDBRANCH   3  21
BRANCH   1  23
ATOM     23  C   UNL     1      10.945   0.248  24.407  0.00  0.00    +0.229 C 
BRANCH  23  24
ATOM     24  O   UNL     1       9.967  -0.729  24.702  0.00  0.00    -0.220 OA
BRANCH  24  25
ATOM     25  S   UNL     1       9.599  -1.766  23.503  0.00  0.00    +0.169 S 
ATOM     26  O   UNL     1       8.262  -1.439  23.043  0.00  0.00    -0.126 OA
ATOM     27  O   UNL     1      10.688  -1.868  22.562  0.00  0.00    -0.126 OA
BRANCH  25  29
ATOM     28  C   UNL     1       8.888  -3.377  25.550  0.00  0.00    +0.250 C 
ATOM     29  N   UNL     1       9.439  -3.227  24.274  0.00  0.00    -0.164 N 
ATOM     30  H   UNL     1       9.969  -4.019  23.885  0.00  0.00    +0.179 HD
ATOM     31  O   UNL     1       8.291  -2.465  26.119  0.00  0.00    -0.272 OA
BRANCH  28  32
ATOM     32  C   UNL     1       9.010  -4.788  26.138  0.00  0.00    +0.140 C 
BRANCH  32  33
ATOM     33  N   UNL     1       9.829  -5.659  25.249  0.00  0.00    -0.320 NA
ATOM     34  H   UNL     1       9.840  -5.229  24.319  0.00  0.00    +0.119 HD
ATOM     35  H   UNL     1      10.802  -5.598  25.557  0.00  0.00    +0.119 HD
ENDBRANCH  32  33
BRANCH  32  36
ATOM     36  C   UNL     1       7.585  -5.334  26.323  0.00  0.00    +0.038 C 
BRANCH  36  37
ATOM     37  C   UNL     1       6.700  -5.328  25.077  0.00  0.00    +0.071 C 
BRANCH  37  39
ATOM     38  C   UNL     1       5.300  -3.355  23.752  0.00  0.00    +0.084 C 
ATOM     39  S   UNL     1       5.224  -4.283  25.301  0.00  0.00    -0.164 S 
ENDBRANCH  37  39
ENDBRANCH  36  37
ENDBRANCH  32  36
ENDBRANCH  28  32
ENDBRANCH  25  29
ENDBRANCH  24  25
ENDBRANCH  23  24
ENDBRANCH   1  23
TORSDOF 13
ENDMDL
MODEL 4
REMARK VINA RESULT:      -6.6      3.477      5.351
REMARK  Name = 
REMARK  14 active torsions:
REMARK  status: ('A' for Active; 'I' for Inactive)
REMARK    1  A    between atoms: C_1  and  S_2
REMARK    2  A    between atoms: S_2  and  C_3
REMARK    3  A    between atoms: C_3  and  C_4
REMARK    4  A    between atoms: C_4  and  C_5
REMARK    5  A    between atoms: C_5  and  N_7
REMARK    6  A    between atoms: C_5  and  C_8
REMARK    7  A    between atoms: N_10  and  S_11
REMARK    8  A    between atoms: S_11  and  O_14
REMARK    9  A    between atoms: O_14  and  C_15
REMARK   10  A    between atoms: C_15  and  C_16
REMARK   11  A    between atoms: C_19  and  N_27
REMARK   12  A    between atoms: C_21  and  O_23
REMARK   13  A    between atoms: C_24  and  O_26
REMARK   14  A    between atoms: C_31  and  N_32
REMARK                            x       y       z     vdW  Elec       q    Type
REMARK                         _______ _______ _______ _____ _____    ______ ____
ROOT
ATOM      1  C   UNL     1       6.180  -2.368  25.739  0.00  0.00    +0.180 C 
ATOM      2  C   UNL     1       5.474  -1.563  24.668  0.00  0.00    +0.178 C 
ATOM      3  C   UNL     1       6.049  -0.143  24.753  0.00  0.00    +0.193 C 
ATOM      4  C   UNL     1       7.070  -0.133  25.910  0.00  0.00    +0.240 C 
ATOM      5  O   UNL     1       7.059  -1.491  26.443  0.00  0.00    -0.348 OA
ENDROOT
BRANCH   4   6
ATOM      6  N   UNL     1       8.491   0.191  25.567  0.00  0.00    -0.265 N 
ATOM      7  C   UNL     1       9.290  -0.433  24.463  0.00  0.00    +0.255 C 
ATOM      8  C   UNL     1       9.082   0.579  23.360  0.00  0.00    +0.169 C 
ATOM      9  C   UNL     1       9.369   0.294  22.076  0.00  0.00    +0.284 C 
ATOM     10  N   UNL     1       9.976  -0.918  21.869  0.00  0.00    -0.195 N 
ATOM     11  H   UNL     1      10.526  -0.970  21.018  0.00  0.00    +0.299 HD
ATOM     12  C   UNL     1      10.081  -1.867  22.864  0.00  0.00    +0.300 C 
ATOM     13  N   UNL     1       8.753   1.805  23.891  0.00  0.00    -0.233 NA
ATOM     14  N   UNL     1       9.576  -1.831  24.065  0.00  0.00    -0.225 NA
ATOM     15  C   UNL     1       8.553   1.526  25.147  0.00  0.00    +0.188 C 
BRANCH   9  16
ATOM     16  N   UNL     1       9.148   1.180  21.045  0.00  0.00    -0.250 N 
ATOM     17  H   UNL     1       8.158   1.251  20.827  0.00  0.00    +0.288 HD
ATOM     18  H   UNL     1       9.504   2.100  21.335  0.00  0.00    +0.288 HD
ENDBRANCH   9  16
ENDBRANCH   4   6
BRANCH   2  19
ATOM     19  O   UNL     1       5.699  -2.140  23.369  0.00  0.00    -0.386 OA
ATOM     20  H   UNL     1       4.982  -2.768  23.174  0.00  0.00    +0.210 HD
ENDBRANCH   2  19
BRANCH   3  21
ATOM     21  O   UNL     1       4.939   0.736  25.036  0.00  0.00    -0.385 OA
ATOM     22  H   UNL     1       4.698   0.597  25.966  0.00  0.00    +0.210 HD
ENDBRANCH   3  21
BRANCH   1  23
ATOM     23  C   UNL     1       5.244  -3.040  26.758  0.00  0.00    +0.229 C 
BRANCH  23  24
ATOM     24  O   UNL     1       5.984  -3.741  27.739  0.00  0.00    -0.220 OA
BRANCH  24  25
ATOM     25  S   UNL     1       5.926  -5.365  27.663  0.00  0.00    +0.169 S 
ATOM     26  O   UNL     1       6.603  -5.877  28.840  0.00  0.00    -0.126 OA
ATOM     27  O   UNL     1       4.595  -5.814  27.334  0.00  0.00    -0.126 OA
BRANCH  25  29
ATOM     28  C   UNL     1       8.197  -5.180  26.214  0.00  0.00    +0.250 C 
ATOM     29  N   UNL     1       6.929  -5.742  26.397  0.00  0.00    -0.164 N 
ATOM     30  H   UNL     1       6.508  -6.241  25.601  0.00  0.00    +0.179 HD
ATOM     31  O   UNL     1       8.752  -4.516  27.087  0.00  0.00    -0.272 OA
BRANCH  28  32
ATOM     32  C   UNL     1       8.868  -5.534  24.881  0.00  0.00    +0.140 C 
BRANCH  32  33
ATOM     33  N   UNL     1      10.253  -4.990  24.829  0.00  0.00    -0.320 NA
ATOM     34  H   UNL     1      10.341  -4.294  25.576  0.00  0.00    +0.119 HD
ATOM     35  H   UNL     1      10.896  -5.734  25.113  0.00  0.00    +0.119 HD
ENDBRANCH  32  33
BRANCH  32  36
ATOM     36  C   UNL     1       7.986  -4.970  23.757  0.00  0.00    +0.038 C 
BRANCH  36  37
ATOM     37  C   UNL     1       7.636  -5.942  22.630  0.00  0.00    +0.071 C 
BRANCH  37  39
ATOM     38  C   UNL     1       4.906  -5.629  22.858  0.00  0.00    +0.084 C 
ATOM     39  S   UNL     1       6.219  -5.356  21.647  0.00  0.00    -0.164 S 
ENDBRANCH  37  39
ENDBRANCH  36  37
ENDBRANCH  32  36
ENDBRANCH  28  32
ENDBRANCH  25  29
ENDBRANCH  24  25
ENDBRANCH  23  24
ENDBRANCH   1  23
TORSDOF 13
ENDMDL
MODEL 5
REMARK VINA RESULT:      -6.6      2.960      8.348
REMARK  Name = 
REMARK  14 active torsions:
REMARK  status: ('A' for Active; 'I' for Inactive)
REMARK    1  A    between atoms: C_1  and  S_2
REMARK    2  A    between atoms: S_2  and  C_3
REMARK    3  A    between atoms: C_3  and  C_4
REMARK    4  A    between atoms: C_4  and  C_5
REMARK    5  A    between atoms: C_5  and  N_7
REMARK    6  A    between atoms: C_5  and  C_8
REMARK    7  A    between atoms: N_10  and  S_11
REMARK    8  A    between atoms: S_11  and  O_14
REMARK    9  A    between atoms: O_14  and  C_15
REMARK   10  A    between atoms: C_15  and  C_16
REMARK   11  A    between atoms: C_19  and  N_27
REMARK   12  A    between atoms: C_21  and  O_23
REMARK   13  A    between atoms: C_24  and  O_26
REMARK   14  A    between atoms: C_31  and  N_32
REMARK                            x       y       z     vdW  Elec       q    Type
REMARK                         _______ _______ _______ _____ _____    ______ ____
ROOT
ATOM      1  C   UNL     1       9.926  -0.591  24.757  0.00  0.00    +0.180 C 
ATOM      2  C   UNL     1       8.643  -0.372  25.534  0.00  0.00    +0.178 C 
ATOM      3  C   UNL     1       7.519  -0.967  24.676  0.00  0.00    +0.193 C 
ATOM      4  C   UNL     1       8.166  -1.500  23.381  0.00  0.00    +0.240 C 
ATOM      5  O   UNL     1       9.589  -1.210  23.515  0.00  0.00    -0.348 OA
ENDROOT
BRANCH   4   6
ATOM      6  N   UNL     1       8.042  -2.967  23.105  0.00  0.00    -0.265 N 
ATOM      7  C   UNL     1       8.519  -4.070  24.000  0.00  0.00    +0.255 C 
ATOM      8  C   UNL     1       7.250  -4.384  24.759  0.00  0.00    +0.169 C 
ATOM      9  C   UNL     1       7.266  -5.113  25.890  0.00  0.00    +0.284 C 
ATOM     10  N   UNL     1       8.485  -5.648  26.223  0.00  0.00    -0.195 N 
ATOM     11  H   UNL     1       8.432  -6.474  26.810  0.00  0.00    +0.299 HD
ATOM     12  C   UNL     1       9.647  -5.285  25.578  0.00  0.00    +0.300 C 
ATOM     13  N   UNL     1       6.150  -3.984  24.038  0.00  0.00    -0.233 NA
ATOM     14  N   UNL     1       9.808  -4.365  24.668  0.00  0.00    -0.225 NA
ATOM     15  C   UNL     1       6.681  -3.297  23.067  0.00  0.00    +0.188 C 
BRANCH   9  16
ATOM     16  N   UNL     1       6.132  -5.379  26.626  0.00  0.00    -0.250 N 
ATOM     17  H   UNL     1       5.717  -4.522  26.983  0.00  0.00    +0.288 HD
ATOM     18  H   UNL     1       5.461  -5.857  26.013  0.00  0.00    +0.288 HD
ENDBRANCH   9  16
ENDBRANCH   4   6
BRANCH   2  19
ATOM     19  O   UNL     1       8.714  -1.014  26.819  0.00  0.00    -0.386 OA
ATOM     20  H   UNL     1       9.199  -1.853  26.727  0.00  0.00    +0.210 HD
ENDBRANCH   2  19
BRANCH   3  21
ATOM     21  O   UNL     1       6.603   0.112  24.390  0.00  0.00    -0.385 OA
ATOM     22  H   UNL     1       6.593   0.690  25.169  0.00  0.00    +0.210 HD
ENDBRANCH   3  21
BRANCH   1  23
ATOM     23  C   UNL     1      10.723   0.690  24.462  0.00  0.00    +0.229 C 
BRANCH  23  24
ATOM     24  O   UNL     1       9.898   1.834  24.567  0.00  0.00    -0.220 OA
BRANCH  24  25
ATOM     25  S   UNL     1       9.384   2.484  23.167  0.00  0.00    +0.169 S 
ATOM     26  O   UNL     1      10.191   1.916  22.104  0.00  0.00    -0.126 OA
ATOM     27  O   UNL     1       7.944   2.451  23.086  0.00  0.00    -0.126 OA
BRANCH  25  29
ATOM     28  C   UNL     1      11.182   4.473  23.489  0.00  0.00    +0.250 C 
ATOM     29  N   UNL     1       9.862   4.070  23.264  0.00  0.00    -0.164 N 
ATOM     30  H   UNL     1       9.120   4.774  23.382  0.00  0.00    +0.179 HD
ATOM     31  O   UNL     1      12.127   3.688  23.429  0.00  0.00    -0.272 OA
BRANCH  28  32
ATOM     32  C   UNL     1      11.361   5.977  23.724  0.00  0.00    +0.140 C 
BRANCH  32  33
ATOM     33  N   UNL     1      12.568   6.240  24.556  0.00  0.00    -0.320 NA
ATOM     34  H   UNL     1      13.390   5.992  23.996  0.00  0.00    +0.119 HD
ATOM     35  H   UNL     1      12.654   7.252  24.679  0.00  0.00    +0.119 HD
ENDBRANCH  32  33
BRANCH  32  36
ATOM     36  C   UNL     1      10.079   6.495  24.393  0.00  0.00    +0.038 C 
BRANCH  36  37
ATOM     37  C   UNL     1      10.218   6.944  25.848  0.00  0.00    +0.071 C 
BRANCH  37  39
ATOM     38  C   UNL     1       8.039   5.268  26.068  0.00  0.00    +0.084 C 
ATOM     39  S   UNL     1       8.636   6.834  26.745  0.00  0.00    -0.164 S 
ENDBRANCH  37  39
ENDBRANCH  36  37
ENDBRANCH  32  36
ENDBRANCH  28  32
ENDBRANCH  25  29
ENDBRANCH  24  25
ENDBRANCH  23  24
ENDBRANCH   1  23
TORSDOF 13
ENDMDL
MODEL 6
REMARK VINA RESULT:      -6.6      2.105      3.341
REMARK  Name = 
REMARK  14 active torsions:
REMARK  status: ('A' for Active; 'I' for Inactive)
REMARK    1  A    between atoms: C_1  and  S_2
REMARK    2  A    between atoms: S_2  and  C_3
REMARK    3  A    between atoms: C_3  and  C_4
REMARK    4  A    between atoms: C_4  and  C_5
REMARK    5  A    between atoms: C_5  and  N_7
REMARK    6  A    between atoms: C_5  and  C_8
REMARK    7  A    between atoms: N_10  and  S_11
REMARK    8  A    between atoms: S_11  and  O_14
REMARK    9  A    between atoms: O_14  and  C_15
REMARK   10  A    between atoms: C_15  and  C_16
REMARK   11  A    between atoms: C_19  and  N_27
REMARK   12  A    between atoms: C_21  and  O_23
REMARK   13  A    between atoms: C_24  and  O_26
REMARK   14  A    between atoms: C_31  and  N_32
REMARK                            x       y       z     vdW  Elec       q    Type
REMARK                         _______ _______ _______ _____ _____    ______ ____
ROOT
ATOM      1  C   UNL     1       8.393  -1.397  22.987  0.00  0.00    +0.180 C 
ATOM      2  C   UNL     1       9.251  -0.945  21.823  0.00  0.00    +0.178 C 
ATOM      3  C   UNL     1       9.311   0.586  21.907  0.00  0.00    +0.193 C 
ATOM      4  C   UNL     1       8.449   1.011  23.114  0.00  0.00    +0.240 C 
ATOM      5  O   UNL     1       7.932  -0.233  23.673  0.00  0.00    -0.348 OA
ENDROOT
BRANCH   4   6
ATOM      6  N   UNL     1       9.139   1.738  24.227  0.00  0.00    -0.265 N 
ATOM      7  C   UNL     1      10.101   2.876  24.066  0.00  0.00    +0.255 C 
ATOM      8  C   UNL     1       9.171   4.056  24.239  0.00  0.00    +0.169 C 
ATOM      9  C   UNL     1       9.535   5.300  23.879  0.00  0.00    +0.284 C 
ATOM     10  N   UNL     1      10.838   5.433  23.472  0.00  0.00    -0.195 N 
ATOM     11  H   UNL     1      11.215   6.369  23.575  0.00  0.00    +0.299 HD
ATOM     12  C   UNL     1      11.648   4.343  23.233  0.00  0.00    +0.300 C 
ATOM     13  N   UNL     1       8.054   3.684  24.949  0.00  0.00    -0.233 NA
ATOM     14  N   UNL     1      11.323   3.081  23.254  0.00  0.00    -0.225 NA
ATOM     15  C   UNL     1       8.168   2.387  25.001  0.00  0.00    +0.188 C 
BRANCH   9  16
ATOM     16  N   UNL     1       8.694   6.386  23.985  0.00  0.00    -0.250 N 
ATOM     17  H   UNL     1       8.954   7.117  23.328  0.00  0.00    +0.288 HD
ATOM     18  H   UNL     1       7.738   6.068  23.785  0.00  0.00    +0.288 HD
ENDBRANCH   9  16
ENDBRANCH   4   6
BRANCH   2  19
ATOM     19  O   UNL     1      10.565  -1.524  21.907  0.00  0.00    -0.386 OA
ATOM     20  H   UNL     1      10.544  -2.264  22.539  0.00  0.00    +0.210 HD
ENDBRANCH   2  19
BRANCH   3  21
ATOM     21  O   UNL     1       8.756   1.090  20.673  0.00  0.00    -0.385 OA
ATOM     22  H   UNL     1       8.077   0.458  20.389  0.00  0.00    +0.210 HD
ENDBRANCH   3  21
BRANCH   1  23
ATOM     23  C   UNL     1       7.173  -2.245  22.593  0.00  0.00    +0.229 C 
BRANCH  23  24
ATOM     24  O   UNL     1       7.575  -3.490  22.056  0.00  0.00    -0.220 OA
BRANCH  24  25
ATOM     25  S   UNL     1       6.594  -4.754  22.352  0.00  0.00    +0.169 S 
ATOM     26  O   UNL     1       5.284  -4.418  21.826  0.00  0.00    -0.126 OA
ATOM     27  O   UNL     1       7.232  -5.994  21.982  0.00  0.00    -0.126 OA
BRANCH  25  29
ATOM     28  C   UNL     1       7.439  -5.016  24.904  0.00  0.00    +0.250 C 
ATOM     29  N   UNL     1       6.408  -4.737  24.001  0.00  0.00    -0.164 N 
ATOM     30  H   UNL     1       5.443  -4.739  24.360  0.00  0.00    +0.179 HD
ATOM     31  O   UNL     1       8.615  -5.094  24.553  0.00  0.00    -0.272 OA
BRANCH  28  32
ATOM     32  C   UNL     1       6.996  -5.124  26.368  0.00  0.00    +0.140 C 
BRANCH  32  33
ATOM     33  N   UNL     1       8.059  -5.762  27.193  0.00  0.00    -0.320 NA
ATOM     34  H   UNL     1       8.082  -5.278  28.096  0.00  0.00    +0.119 HD
ATOM     35  H   UNL     1       7.749  -6.707  27.432  0.00  0.00    +0.119 HD
ENDBRANCH  32  33
BRANCH  32  36
ATOM     36  C   UNL     1       5.687  -5.928  26.395  0.00  0.00    +0.038 C 
BRANCH  36  37
ATOM     37  C   UNL     1       4.576  -5.366  27.283  0.00  0.00    +0.071 C 
BRANCH  37  39
ATOM     38  C   UNL     1       3.731  -3.150  25.875  0.00  0.00    +0.084 C 
ATOM     39  S   UNL     1       4.644  -3.548  27.383  0.00  0.00    -0.164 S 
ENDBRANCH  37  39
ENDBRANCH  36  37
ENDBRANCH  32  36
ENDBRANCH  28  32
ENDBRANCH  25  29
ENDBRANCH  24  25
ENDBRANCH  23  24
ENDBRANCH   1  23
TORSDOF 13
ENDMDL
MODEL 7
REMARK VINA RESULT:      -6.5      2.227      3.974
REMARK  Name = 
REMARK  14 active torsions:
REMARK  status: ('A' for Active; 'I' for Inactive)
REMARK    1  A    between atoms: C_1  and  S_2
REMARK    2  A    between atoms: S_2  and  C_3
REMARK    3  A    between atoms: C_3  and  C_4
REMARK    4  A    between atoms: C_4  and  C_5
REMARK    5  A    between atoms: C_5  and  N_7
REMARK    6  A    between atoms: C_5  and  C_8
REMARK    7  A    between atoms: N_10  and  S_11
REMARK    8  A    between atoms: S_11  and  O_14
REMARK    9  A    between atoms: O_14  and  C_15
REMARK   10  A    between atoms: C_15  and  C_16
REMARK   11  A    between atoms: C_19  and  N_27
REMARK   12  A    between atoms: C_21  and  O_23
REMARK   13  A    between atoms: C_24  and  O_26
REMARK   14  A    between atoms: C_31  and  N_32
REMARK                            x       y       z     vdW  Elec       q    Type
REMARK                         _______ _______ _______ _____ _____    ______ ____
ROOT
ATOM      1  C   UNL     1       7.645  -0.997  23.207  0.00  0.00    +0.180 C 
ATOM      2  C   UNL     1       9.033  -1.586  23.363  0.00  0.00    +0.178 C 
ATOM      3  C   UNL     1       9.962  -0.721  22.502  0.00  0.00    +0.193 C 
ATOM      4  C   UNL     1       9.086   0.352  21.822  0.00  0.00    +0.240 C 
ATOM      5  O   UNL     1       7.729   0.090  22.286  0.00  0.00    -0.348 OA
ENDROOT
BRANCH   4   6
ATOM      6  N   UNL     1       9.388   1.785  22.137  0.00  0.00    -0.265 N 
ATOM      7  C   UNL     1       8.391   2.815  22.571  0.00  0.00    +0.255 C 
ATOM      8  C   UNL     1       8.543   2.739  24.073  0.00  0.00    +0.169 C 
ATOM      9  C   UNL     1       7.631   3.276  24.903  0.00  0.00    +0.284 C 
ATOM     10  N   UNL     1       6.638   3.998  24.292  0.00  0.00    -0.195 N 
ATOM     11  H   UNL     1       6.203   4.696  24.885  0.00  0.00    +0.299 HD
ATOM     12  C   UNL     1       6.457   3.988  22.925  0.00  0.00    +0.300 C 
ATOM     13  N   UNL     1       9.778   2.230  24.403  0.00  0.00    -0.233 NA
ATOM     14  N   UNL     1       7.086   3.270  22.037  0.00  0.00    -0.225 NA
ATOM     15  C   UNL     1      10.235   1.824  23.253  0.00  0.00    +0.188 C 
BRANCH   9  16
ATOM     16  N   UNL     1       7.721   3.184  26.275  0.00  0.00    -0.250 N 
ATOM     17  H   UNL     1       6.949   3.667  26.727  0.00  0.00    +0.288 HD
ATOM     18  H   UNL     1       7.700   2.189  26.528  0.00  0.00    +0.288 HD
ENDBRANCH   9  16
ENDBRANCH   4   6
BRANCH   2  19
ATOM     19  O   UNL     1       9.437  -1.571  24.744  0.00  0.00    -0.386 OA
ATOM     20  H   UNL     1      10.004  -2.343  24.915  0.00  0.00    +0.210 HD
ENDBRANCH   2  19
BRANCH   3  21
ATOM     21  O   UNL     1      10.555  -1.600  21.523  0.00  0.00    -0.385 OA
ATOM     22  H   UNL     1      11.445  -1.819  21.840  0.00  0.00    +0.210 HD
ENDBRANCH   3  21
BRANCH   1  23
ATOM     23  C   UNL     1       6.583  -1.986  22.700  0.00  0.00    +0.229 C 
BRANCH  23  24
ATOM     24  O   UNL     1       7.185  -3.167  22.208  0.00  0.00    -0.220 OA
BRANCH  24  25
ATOM     25  S   UNL     1       6.621  -4.569  22.812  0.00  0.00    +0.169 S 
ATOM     26  O   UNL     1       5.189  -4.594  22.583  0.00  0.00    -0.126 OA
ATOM     27  O   UNL     1       7.446  -5.675  22.391  0.00  0.00    -0.126 OA
BRANCH  25  29
ATOM     28  C   UNL     1       7.991  -4.581  25.139  0.00  0.00    +0.250 C 
ATOM     29  N   UNL     1       6.787  -4.392  24.453  0.00  0.00    -0.164 N 
ATOM     30  H   UNL     1       5.920  -4.360  25.008  0.00  0.00    +0.179 HD
ATOM     31  O   UNL     1       9.068  -4.692  24.555  0.00  0.00    -0.272 OA
BRANCH  28  32
ATOM     32  C   UNL     1       7.870  -4.546  26.667  0.00  0.00    +0.140 C 
BRANCH  32  33
ATOM     33  N   UNL     1       8.009  -5.915  27.237  0.00  0.00    -0.320 NA
ATOM     34  H   UNL     1       7.239  -6.055  27.899  0.00  0.00    +0.119 HD
ATOM     35  H   UNL     1       7.814  -6.589  26.492  0.00  0.00    +0.119 HD
ENDBRANCH  32  33
BRANCH  32  36
ATOM     36  C   UNL     1       6.510  -3.917  27.007  0.00  0.00    +0.038 C 
BRANCH  36  37
ATOM     37  C   UNL     1       5.594  -4.751  27.905  0.00  0.00    +0.071 C 
BRANCH  37  39
ATOM     38  C   UNL     1       4.634  -6.732  26.244  0.00  0.00    +0.084 C 
ATOM     39  S   UNL     1       4.056  -5.221  27.050  0.00  0.00    -0.164 S 
ENDBRANCH  37  39
ENDBRANCH  36  37
ENDBRANCH  32  36
ENDBRANCH  28  32
ENDBRANCH  25  29
ENDBRANCH  24  25
ENDBRANCH  23  24
ENDBRANCH   1  23
TORSDOF 13
ENDMDL
MODEL 8
REMARK VINA RESULT:      -6.5      2.335      3.755
REMARK  Name = 
REMARK  14 active torsions:
REMARK  status: ('A' for Active; 'I' for Inactive)
REMARK    1  A    between atoms: C_1  and  S_2
REMARK    2  A    between atoms: S_2  and  C_3
REMARK    3  A    between atoms: C_3  and  C_4
REMARK    4  A    between atoms: C_4  and  C_5
REMARK    5  A    between atoms: C_5  and  N_7
REMARK    6  A    between atoms: C_5  and  C_8
REMARK    7  A    between atoms: N_10  and  S_11
REMARK    8  A    between atoms: S_11  and  O_14
REMARK    9  A    between atoms: O_14  and  C_15
REMARK   10  A    between atoms: C_15  and  C_16
REMARK   11  A    between atoms: C_19  and  N_27
REMARK   12  A    between atoms: C_21  and  O_23
REMARK   13  A    between atoms: C_24  and  O_26
REMARK   14  A    between atoms: C_31  and  N_32
REMARK                            x       y       z     vdW  Elec       q    Type
REMARK                         _______ _______ _______ _____ _____    ______ ____
ROOT
ATOM      1  C   UNL     1       7.787  -0.605  24.213  0.00  0.00    +0.180 C 
ATOM      2  C   UNL     1       9.237  -1.029  24.333  0.00  0.00    +0.178 C 
ATOM      3  C   UNL     1       9.901  -0.661  23.000  0.00  0.00    +0.193 C 
ATOM      4  C   UNL     1       8.807  -0.052  22.098  0.00  0.00    +0.240 C 
ATOM      5  O   UNL     1       7.589  -0.083  22.899  0.00  0.00    -0.348 OA
ENDROOT
BRANCH   4   6
ATOM      6  N   UNL     1       9.000   1.363  21.648  0.00  0.00    -0.265 N 
ATOM      7  C   UNL     1       8.092   2.514  21.962  0.00  0.00    +0.255 C 
ATOM      8  C   UNL     1       8.786   3.095  23.173  0.00  0.00    +0.169 C 
ATOM      9  C   UNL     1       8.169   3.972  23.986  0.00  0.00    +0.284 C 
ATOM     10  N   UNL     1       6.932   4.388  23.565  0.00  0.00    -0.195 N 
ATOM     11  H   UNL     1       6.648   5.290  23.933  0.00  0.00    +0.299 HD
ATOM     12  C   UNL     1       6.274   3.790  22.513  0.00  0.00    +0.300 C 
ATOM     13  N   UNL     1      10.114   2.739  23.180  0.00  0.00    -0.233 NA
ATOM     14  N   UNL     1       6.633   2.735  21.836  0.00  0.00    -0.225 NA
ATOM     15  C   UNL     1      10.177   1.856  22.224  0.00  0.00    +0.188 C 
BRANCH   9  16
ATOM     16  N   UNL     1       8.760   4.484  25.121  0.00  0.00    -0.250 N 
ATOM     17  H   UNL     1       8.652   5.493  25.167  0.00  0.00    +0.288 HD
ATOM     18  H   UNL     1       8.310   4.051  25.936  0.00  0.00    +0.288 HD
ENDBRANCH   9  16
ENDBRANCH   4   6
BRANCH   2  19
ATOM     19  O   UNL     1       9.872  -0.355  25.435  0.00  0.00    -0.386 OA
ATOM     20  H   UNL     1       9.272   0.333  25.772  0.00  0.00    +0.210 HD
ENDBRANCH   2  19
BRANCH   3  21
ATOM     21  O   UNL     1      10.408  -1.891  22.438  0.00  0.00    -0.385 OA
ATOM     22  H   UNL     1      10.578  -2.493  23.180  0.00  0.00    +0.210 HD
ENDBRANCH   3  21
BRANCH   1  23
ATOM     23  C   UNL     1       6.768  -1.731  24.449  0.00  0.00    +0.229 C 
BRANCH  23  24
ATOM     24  O   UNL     1       6.018  -1.989  23.278  0.00  0.00    -0.220 OA
BRANCH  24  25
ATOM     25  S   UNL     1       6.330  -3.391  22.515  0.00  0.00    +0.169 S 
ATOM     26  O   UNL     1       5.448  -3.464  21.365  0.00  0.00    -0.126 OA
ATOM     27  O   UNL     1       7.752  -3.582  22.356  0.00  0.00    -0.126 OA
BRANCH  25  29
ATOM     28  C   UNL     1       5.712  -5.913  23.256  0.00  0.00    +0.250 C 
ATOM     29  N   UNL     1       5.765  -4.549  23.560  0.00  0.00    -0.164 N 
ATOM     30  H   UNL     1       5.230  -4.219  24.375  0.00  0.00    +0.179 HD
ATOM     31  O   UNL     1       6.271  -6.387  22.269  0.00  0.00    -0.272 OA
BRANCH  28  32
ATOM     32  C   UNL     1       4.985  -6.773  24.296  0.00  0.00    +0.140 C 
BRANCH  32  33
ATOM     33  N   UNL     1       3.752  -7.373  23.713  0.00  0.00    -0.320 NA
ATOM     34  H   UNL     1       3.626  -8.297  24.139  0.00  0.00    +0.119 HD
ATOM     35  H   UNL     1       2.949  -6.837  24.052  0.00  0.00    +0.119 HD
ENDBRANCH  32  33
BRANCH  32  36
ATOM     36  C   UNL     1       4.671  -5.872  25.501  0.00  0.00    +0.038 C 
BRANCH  36  37
ATOM     37  C   UNL     1       5.228  -6.338  26.847  0.00  0.00    +0.071 C 
BRANCH  37  39
ATOM     38  C   UNL     1       7.750  -5.253  26.589  0.00  0.00    +0.084 C 
ATOM     39  S   UNL     1       6.277  -5.066  27.620  0.00  0.00    -0.164 S 
ENDBRANCH  37  39
ENDBRANCH  36  37
ENDBRANCH  32  36
ENDBRANCH  28  32
ENDBRANCH  25  29
ENDBRANCH  24  25
ENDBRANCH  23  24
ENDBRANCH   1  23
TORSDOF 13
ENDMDL
MODEL 9
REMARK VINA RESULT:      -6.5      2.798      7.660
REMARK  Name = 
REMARK  14 active torsions:
REMARK  status: ('A' for Active; 'I' for Inactive)
REMARK    1  A    between atoms: C_1  and  S_2
REMARK    2  A    between atoms: S_2  and  C_3
REMARK    3  A    between atoms: C_3  and  C_4
REMARK    4  A    between atoms: C_4  and  C_5
REMARK    5  A    between atoms: C_5  and  N_7
REMARK    6  A    between atoms: C_5  and  C_8
REMARK    7  A    between atoms: N_10  and  S_11
REMARK    8  A    between atoms: S_11  and  O_14
REMARK    9  A    between atoms: O_14  and  C_15
REMARK   10  A    between atoms: C_15  and  C_16
REMARK   11  A    between atoms: C_19  and  N_27
REMARK   12  A    between atoms: C_21  and  O_23
REMARK   13  A    between atoms: C_24  and  O_26
REMARK   14  A    between atoms: C_31  and  N_32
REMARK                            x       y       z     vdW  Elec       q    Type
REMARK                         _______ _______ _______ _____ _____    ______ ____
ROOT
ATOM      1  C   UNL     1       9.639  -0.642  24.826  0.00  0.00    +0.180 C 
ATOM      2  C   UNL     1       8.224  -0.359  25.287  0.00  0.00    +0.178 C 
ATOM      3  C   UNL     1       7.300  -0.985  24.234  0.00  0.00    +0.193 C 
ATOM      4  C   UNL     1       8.201  -1.602  23.144  0.00  0.00    +0.240 C 
ATOM      5  O   UNL     1       9.567  -1.327  23.575  0.00  0.00    -0.348 OA
ENDROOT
BRANCH   4   6
ATOM      6  N   UNL     1       8.099  -3.080  22.927  0.00  0.00    -0.265 N 
ATOM      7  C   UNL     1       8.525  -4.140  23.896  0.00  0.00    +0.255 C 
ATOM      8  C   UNL     1       7.213  -4.429  24.590  0.00  0.00    +0.169 C 
ATOM      9  C   UNL     1       7.162  -5.108  25.750  0.00  0.00    +0.284 C 
ATOM     10  N   UNL     1       8.360  -5.620  26.180  0.00  0.00    -0.195 N 
ATOM     11  H   UNL     1       8.274  -6.419  26.799  0.00  0.00    +0.299 HD
ATOM     12  C   UNL     1       9.559  -5.278  25.593  0.00  0.00    +0.300 C 
ATOM     13  N   UNL     1       6.158  -4.068  23.785  0.00  0.00    -0.233 NA
ATOM     14  N   UNL     1       9.772  -4.397  24.655  0.00  0.00    -0.225 NA
ATOM     15  C   UNL     1       6.745  -3.420  22.819  0.00  0.00    +0.188 C 
BRANCH   9  16
ATOM     16  N   UNL     1       5.986  -5.348  26.426  0.00  0.00    -0.250 N 
ATOM     17  H   UNL     1       5.233  -4.765  26.071  0.00  0.00    +0.288 HD
ATOM     18  H   UNL     1       5.744  -6.338  26.301  0.00  0.00    +0.288 HD
ENDBRANCH   9  16
ENDBRANCH   4   6
BRANCH   2  19
ATOM     19  O   UNL     1       7.992  -0.926  26.588  0.00  0.00    -0.386 OA
ATOM     20  H   UNL     1       7.109  -1.334  26.602  0.00  0.00    +0.210 HD
ENDBRANCH   2  19
BRANCH   3  21
ATOM     21  O   UNL     1       6.500   0.090  23.695  0.00  0.00    -0.385 OA
ATOM     22  H   UNL     1       6.741   0.894  24.182  0.00  0.00    +0.210 HD
ENDBRANCH   3  21
BRANCH   1  23
ATOM     23  C   UNL     1      10.518   0.607  24.647  0.00  0.00    +0.229 C 
BRANCH  23  24
ATOM     24  O   UNL     1       9.726   1.749  24.386  0.00  0.00    -0.220 OA
BRANCH  24  25
ATOM     25  S   UNL     1      10.171   2.661  23.114  0.00  0.00    +0.169 S 
ATOM     26  O   UNL     1      11.402   3.339  23.477  0.00  0.00    -0.126 OA
ATOM     27  O   UNL     1      10.091   1.904  21.888  0.00  0.00    -0.126 OA
BRANCH  25  29
ATOM     28  C   UNL     1       7.728   3.674  22.571  0.00  0.00    +0.250 C 
ATOM     29  N   UNL     1       9.025   3.859  23.060  0.00  0.00    -0.164 N 
ATOM     30  H   UNL     1       9.355   4.825  23.187  0.00  0.00    +0.179 HD
ATOM     31  O   UNL     1       7.270   2.558  22.332  0.00  0.00    -0.272 OA
BRANCH  28  32
ATOM     32  C   UNL     1       6.901   4.959  22.446  0.00  0.00    +0.140 C 
BRANCH  32  33
ATOM     33  N   UNL     1       7.553   5.914  21.506  0.00  0.00    -0.320 NA
ATOM     34  H   UNL     1       7.090   6.822  21.616  0.00  0.00    +0.119 HD
ATOM     35  H   UNL     1       8.505   6.084  21.839  0.00  0.00    +0.119 HD
ENDBRANCH  32  33
BRANCH  32  36
ATOM     36  C   UNL     1       6.754   5.552  23.856  0.00  0.00    +0.038 C 
BRANCH  36  37
ATOM     37  C   UNL     1       5.459   5.207  24.593  0.00  0.00    +0.071 C 
BRANCH  37  39
ATOM     38  C   UNL     1       4.010   3.000  23.796  0.00  0.00    +0.084 C 
ATOM     39  S   UNL     1       4.120   4.769  23.438  0.00  0.00    -0.164 S 
ENDBRANCH  37  39
ENDBRANCH  36  37
ENDBRANCH  32  36
ENDBRANCH  28  32
ENDBRANCH  25  29
ENDBRANCH  24  25
ENDBRANCH  23  24
ENDBRANCH   1  23
TORSDOF 13
ENDMDL
