MODEL 1
REMARK VINA RESULT:      -5.0      0.000      0.000
REMARK  Name = 
REMARK  8 active torsions:
REMARK  status: ('A' for Active; 'I' for Inactive)
REMARK    1  A    between atoms: O_1  and  C_2
REMARK    2  A    between atoms: C_2  and  C_3
REMARK    3  A    between atoms: C_3  and  O_5
REMARK    4  A    between atoms: C_3  and  C_6
REMARK    5  A    between atoms: C_9  and  O_11
REMARK    6  A    between atoms: C_12  and  O_14
REMARK    7  A    between atoms: C_15  and  O_17
REMARK    8  A    between atoms: C_18  and  O_20
REMARK                            x       y       z     vdW  Elec       q    Type
REMARK                         _______ _______ _______ _____ _____    ______ ____
ROOT
ATOM      1  C   UNL     1       9.557  -1.422  22.835  0.00  0.00    +0.183 C 
ATOM      2  C   UNL     1       9.124  -0.292  21.885  0.00  0.00    +0.177 C 
ATOM      3  C   UNL     1       9.968   0.961  22.124  0.00  0.00    +0.179 C 
ATOM      4  C   UNL     1      10.027   1.331  23.597  0.00  0.00    +0.201 C 
ATOM      5  C   UNL     1      10.458   0.105  24.410  0.00  0.00    +0.279 C 
ATOM      6  O   UNL     1       9.586  -0.994  24.211  0.00  0.00    -0.340 OA
ENDROOT
BRANCH   2   7
ATOM      7  O   UNL     1       9.329  -0.702  20.523  0.00  0.00    -0.386 OA
ATOM      8  H   UNL     1       9.359  -1.677  20.549  0.00  0.00    +0.210 HD
ENDBRANCH   2   7
BRANCH   3   9
ATOM      9  O   UNL     1       9.436   2.046  21.348  0.00  0.00    -0.386 OA
ATOM     10  H   UNL     1      10.207   2.432  20.884  0.00  0.00    +0.210 HD
ENDBRANCH   3   9
BRANCH   4  11
ATOM     11  O   UNL     1      10.964   2.412  23.752  0.00  0.00    -0.384 OA
ATOM     12  H   UNL     1      11.492   2.185  24.544  0.00  0.00    +0.210 HD
ENDBRANCH   4  11
BRANCH   5  13
ATOM     13  O   UNL     1      10.424   0.455  25.785  0.00  0.00    -0.365 OA
ATOM     14  H   UNL     1      10.113   1.376  25.785  0.00  0.00    +0.213 HD
ENDBRANCH   5  13
BRANCH   1  15
ATOM     15  C   UNL     1       8.650  -2.661  22.684  0.00  0.00    +0.171 C 
BRANCH  15  16
ATOM     16  O   UNL     1       7.312  -2.280  22.313  0.00  0.00    -0.387 OA
ATOM     17  H   UNL     1       7.036  -2.959  21.670  0.00  0.00    +0.210 HD
ENDBRANCH  15  16
BRANCH  15  18
ATOM     18  C   UNL     1       8.580  -3.472  23.983  0.00  0.00    +0.189 C 
BRANCH  18  19
ATOM     19  O   UNL     1       9.911  -3.830  24.362  0.00  0.00    -0.392 OA
ATOM     20  H   UNL     1      10.139  -4.632  23.861  0.00  0.00    +0.210 HD
ENDBRANCH  18  19
ENDBRANCH  15  18
ENDBRANCH   1  15
TORSDOF 8
ENDMDL
MODEL 2
REMARK VINA RESULT:      -5.0      4.881      6.249
REMARK  Name = 
REMARK  8 active torsions:
REMARK  status: ('A' for Active; 'I' for Inactive)
REMARK    1  A    between atoms: O_1  and  C_2
REMARK    2  A    between atoms: C_2  and  C_3
REMARK    3  A    between atoms: C_3  and  O_5
REMARK    4  A    between atoms: C_3  and  C_6
REMARK    5  A    between atoms: C_9  and  O_11
REMARK    6  A    between atoms: C_12  and  O_14
REMARK    7  A    between atoms: C_15  and  O_17
REMARK    8  A    between atoms: C_18  and  O_20
REMARK                            x       y       z     vdW  Elec       q    Type
REMARK                         _______ _______ _______ _____ _____    ______ ____
ROOT
ATOM      1  C   UNL     1       7.128  -4.400  23.428  0.00  0.00    +0.183 C 
ATOM      2  C   UNL     1       6.226  -5.289  24.301  0.00  0.00    +0.177 C 
ATOM      3  C   UNL     1       6.714  -5.286  25.751  0.00  0.00    +0.179 C 
ATOM      4  C   UNL     1       8.204  -5.570  25.848  0.00  0.00    +0.201 C 
ATOM      5  C   UNL     1       8.962  -4.618  24.915  0.00  0.00    +0.279 C 
ATOM      6  O   UNL     1       8.523  -4.733  23.573  0.00  0.00    -0.340 OA
ENDROOT
BRANCH   2   7
ATOM      7  O   UNL     1       4.885  -4.773  24.291  0.00  0.00    -0.386 OA
ATOM      8  H   UNL     1       4.678  -4.574  25.223  0.00  0.00    +0.210 HD
ENDBRANCH   2   7
BRANCH   3   9
ATOM      9  O   UNL     1       5.962  -6.249  26.507  0.00  0.00    -0.386 OA
ATOM     10  H   UNL     1       5.505  -5.730  27.201  0.00  0.00    +0.210 HD
ENDBRANCH   3   9
BRANCH   4  11
ATOM     11  O   UNL     1       8.609  -5.388  27.216  0.00  0.00    -0.384 OA
ATOM     12  H   UNL     1       9.523  -5.043  27.172  0.00  0.00    +0.210 HD
ENDBRANCH   4  11
BRANCH   5  13
ATOM     13  O   UNL     1      10.338  -4.961  24.963  0.00  0.00    -0.365 OA
ATOM     14  H   UNL     1      10.524  -5.056  25.912  0.00  0.00    +0.213 HD
ENDBRANCH   5  13
BRANCH   1  15
ATOM     15  C   UNL     1       6.718  -4.473  21.942  0.00  0.00    +0.171 C 
BRANCH  15  16
ATOM     16  O   UNL     1       5.466  -3.796  21.718  0.00  0.00    -0.387 OA
ATOM     17  H   UNL     1       5.104  -4.218  20.917  0.00  0.00    +0.210 HD
ENDBRANCH  15  16
BRANCH  15  18
ATOM     18  C   UNL     1       6.578  -5.922  21.463  0.00  0.00    +0.189 C 
BRANCH  18  19
ATOM     19  O   UNL     1       5.186  -6.247  21.413  0.00  0.00    -0.392 OA
ATOM     20  H   UNL     1       4.707  -5.481  21.775  0.00  0.00    +0.210 HD
ENDBRANCH  18  19
ENDBRANCH  15  18
ENDBRANCH   1  15
TORSDOF 8
ENDMDL
MODEL 3
REMARK VINA RESULT:      -4.9      4.956      6.927
REMARK  Name = 
REMARK  8 active torsions:
REMARK  status: ('A' for Active; 'I' for Inactive)
REMARK    1  A    between atoms: O_1  and  C_2
REMARK    2  A    between atoms: C_2  and  C_3
REMARK    3  A    between atoms: C_3  and  O_5
REMARK    4  A    between atoms: C_3  and  C_6
REMARK    5  A    between atoms: C_9  and  O_11
REMARK    6  A    between atoms: C_12  and  O_14
REMARK    7  A    between atoms: C_15  and  O_17
REMARK    8  A    between atoms: C_18  and  O_20
REMARK                            x       y       z     vdW  Elec       q    Type
REMARK                         _______ _______ _______ _____ _____    ______ ____
ROOT
ATOM      1  C   UNL     1       5.939  -5.238  24.750  0.00  0.00    +0.183 C 
ATOM      2  C   UNL     1       6.008  -6.010  26.079  0.00  0.00    +0.177 C 
ATOM      3  C   UNL     1       7.114  -5.443  26.970  0.00  0.00    +0.179 C 
ATOM      4  C   UNL     1       8.431  -5.308  26.223  0.00  0.00    +0.201 C 
ATOM      5  C   UNL     1       8.196  -4.532  24.921  0.00  0.00    +0.279 C 
ATOM      6  O   UNL     1       7.224  -5.156  24.102  0.00  0.00    -0.340 OA
ENDROOT
BRANCH   2   7
ATOM      7  O   UNL     1       4.764  -5.869  26.784  0.00  0.00    -0.386 OA
ATOM      8  H   UNL     1       4.127  -5.545  26.121  0.00  0.00    +0.210 HD
ENDBRANCH   2   7
BRANCH   3   9
ATOM      9  O   UNL     1       7.269  -6.283  28.125  0.00  0.00    -0.386 OA
ATOM     10  H   UNL     1       8.056  -6.835  27.938  0.00  0.00    +0.210 HD
ENDBRANCH   3   9
BRANCH   4  11
ATOM     11  O   UNL     1       9.364  -4.622  27.076  0.00  0.00    -0.384 OA
ATOM     12  H   UNL     1       9.945  -5.322  27.439  0.00  0.00    +0.210 HD
ENDBRANCH   4  11
BRANCH   5  13
ATOM     13  O   UNL     1       9.421  -4.493  24.206  0.00  0.00    -0.365 OA
ATOM     14  H   UNL     1       9.208  -3.990  23.402  0.00  0.00    +0.213 HD
ENDBRANCH   5  13
BRANCH   1  15
ATOM     15  C   UNL     1       4.901  -5.861  23.792  0.00  0.00    +0.171 C 
BRANCH  15  16
ATOM     16  O   UNL     1       4.710  -7.259  24.076  0.00  0.00    -0.387 OA
ATOM     17  H   UNL     1       3.802  -7.446  23.771  0.00  0.00    +0.210 HD
ENDBRANCH  15  16
BRANCH  15  18
ATOM     18  C   UNL     1       5.327  -5.717  22.326  0.00  0.00    +0.189 C 
BRANCH  18  19
ATOM     19  O   UNL     1       6.202  -6.801  22.004  0.00  0.00    -0.392 OA
ATOM     20  H   UNL     1       6.775  -6.493  21.280  0.00  0.00    +0.210 HD
ENDBRANCH  18  19
ENDBRANCH  15  18
ENDBRANCH   1  15
TORSDOF 8
ENDMDL
MODEL 4
REMARK VINA RESULT:      -4.8      2.610      5.478
REMARK  Name = 
REMARK  8 active torsions:
REMARK  status: ('A' for Active; 'I' for Inactive)
REMARK    1  A    between atoms: O_1  and  C_2
REMARK    2  A    between atoms: C_2  and  C_3
REMARK    3  A    between atoms: C_3  and  O_5
REMARK    4  A    between atoms: C_3  and  C_6
REMARK    5  A    between atoms: C_9  and  O_11
REMARK    6  A    between atoms: C_12  and  O_14
REMARK    7  A    between atoms: C_15  and  O_17
REMARK    8  A    between atoms: C_18  and  O_20
REMARK                            x       y       z     vdW  Elec       q    Type
REMARK                         _______ _______ _______ _____ _____    ______ ____
ROOT
ATOM      1  C   UNL     1       8.566  -2.707  24.494  0.00  0.00    +0.183 C 
ATOM      2  C   UNL     1       7.125  -3.223  24.643  0.00  0.00    +0.177 C 
ATOM      3  C   UNL     1       7.021  -4.185  25.827  0.00  0.00    +0.179 C 
ATOM      4  C   UNL     1       8.097  -5.257  25.782  0.00  0.00    +0.201 C 
ATOM      5  C   UNL     1       9.468  -4.590  25.619  0.00  0.00    +0.279 C 
ATOM      6  O   UNL     1       9.527  -3.782  24.457  0.00  0.00    -0.340 OA
ENDROOT
BRANCH   2   7
ATOM      7  O   UNL     1       6.242  -2.119  24.899  0.00  0.00    -0.386 OA
ATOM      8  H   UNL     1       5.950  -2.230  25.823  0.00  0.00    +0.210 HD
ENDBRANCH   2   7
BRANCH   3   9
ATOM      9  O   UNL     1       5.713  -4.779  25.842  0.00  0.00    -0.386 OA
ATOM     10  H   UNL     1       5.870  -5.746  25.854  0.00  0.00    +0.210 HD
ENDBRANCH   3   9
BRANCH   4  11
ATOM     11  O   UNL     1       8.030  -6.014  27.004  0.00  0.00    -0.384 OA
ATOM     12  H   UNL     1       8.903  -5.894  27.431  0.00  0.00    +0.210 HD
ENDBRANCH   4  11
BRANCH   5  13
ATOM     13  O   UNL     1      10.443  -5.614  25.497  0.00  0.00    -0.365 OA
ATOM     14  H   UNL     1       9.979  -6.325  25.023  0.00  0.00    +0.213 HD
ENDBRANCH   5  13
BRANCH   1  15
ATOM     15  C   UNL     1       8.718  -1.818  23.242  0.00  0.00    +0.171 C 
BRANCH  15  16
ATOM     16  O   UNL     1       7.910  -2.310  22.157  0.00  0.00    -0.387 OA
ATOM     17  H   UNL     1       7.149  -2.733  22.595  0.00  0.00    +0.210 HD
ENDBRANCH  15  16
BRANCH  15  18
ATOM     18  C   UNL     1      10.175  -1.749  22.770  0.00  0.00    +0.189 C 
BRANCH  18  19
ATOM     19  O   UNL     1      10.181  -1.446  21.373  0.00  0.00    -0.392 OA
ATOM     20  H   UNL     1      10.410  -0.504  21.292  0.00  0.00    +0.210 HD
ENDBRANCH  18  19
ENDBRANCH  15  18
ENDBRANCH   1  15
TORSDOF 8
ENDMDL
MODEL 5
REMARK VINA RESULT:      -4.8      2.154      3.816
REMARK  Name = 
REMARK  8 active torsions:
REMARK  status: ('A' for Active; 'I' for Inactive)
REMARK    1  A    between atoms: O_1  and  C_2
REMARK    2  A    between atoms: C_2  and  C_3
REMARK    3  A    between atoms: C_3  and  O_5
REMARK    4  A    between atoms: C_3  and  C_6
REMARK    5  A    between atoms: C_9  and  O_11
REMARK    6  A    between atoms: C_12  and  O_14
REMARK    7  A    between atoms: C_15  and  O_17
REMARK    8  A    between atoms: C_18  and  O_20
REMARK                            x       y       z     vdW  Elec       q    Type
REMARK                         _______ _______ _______ _____ _____    ______ ____
ROOT
ATOM      1  C   UNL     1       8.990  -3.176  24.876  0.00  0.00    +0.183 C 
ATOM      2  C   UNL     1       8.919  -1.951  25.804  0.00  0.00    +0.177 C 
ATOM      3  C   UNL     1       8.734  -0.671  24.988  0.00  0.00    +0.179 C 
ATOM      4  C   UNL     1       9.739  -0.573  23.852  0.00  0.00    +0.201 C 
ATOM      5  C   UNL     1       9.701  -1.867  23.030  0.00  0.00    +0.279 C 
ATOM      6  O   UNL     1       9.966  -3.007  23.829  0.00  0.00    -0.340 OA
ENDROOT
BRANCH   2   7
ATOM      7  O   UNL     1       7.789  -2.076  26.682  0.00  0.00    -0.386 OA
ATOM      8  H   UNL     1       7.121  -2.573  26.174  0.00  0.00    +0.210 HD
ENDBRANCH   2   7
BRANCH   3   9
ATOM      9  O   UNL     1       8.839   0.466  25.859  0.00  0.00    -0.386 OA
ATOM     10  H   UNL     1       8.970   0.092  26.755  0.00  0.00    +0.210 HD
ENDBRANCH   3   9
BRANCH   4  11
ATOM     11  O   UNL     1       9.395   0.566  23.043  0.00  0.00    -0.384 OA
ATOM     12  H   UNL     1       9.228   0.207  22.149  0.00  0.00    +0.210 HD
ENDBRANCH   4  11
BRANCH   5  13
ATOM     13  O   UNL     1      10.704  -1.782  22.030  0.00  0.00    -0.365 OA
ATOM     14  H   UNL     1      11.470  -1.407  22.497  0.00  0.00    +0.213 HD
ENDBRANCH   5  13
BRANCH   1  15
ATOM     15  C   UNL     1       9.283  -4.466  25.670  0.00  0.00    +0.171 C 
BRANCH  15  16
ATOM     16  O   UNL     1      10.317  -5.241  25.034  0.00  0.00    -0.387 OA
ATOM     17  H   UNL     1      10.251  -6.120  25.451  0.00  0.00    +0.210 HD
ENDBRANCH  15  16
BRANCH  15  18
ATOM     18  C   UNL     1       8.033  -5.343  25.805  0.00  0.00    +0.189 C 
BRANCH  18  19
ATOM     19  O   UNL     1       8.023  -5.914  27.116  0.00  0.00    -0.392 OA
ATOM     20  H   UNL     1       7.309  -5.474  27.608  0.00  0.00    +0.210 HD
ENDBRANCH  18  19
ENDBRANCH  15  18
ENDBRANCH   1  15
TORSDOF 8
ENDMDL
MODEL 6
REMARK VINA RESULT:      -4.8      1.747      2.703
REMARK  Name = 
REMARK  8 active torsions:
REMARK  status: ('A' for Active; 'I' for Inactive)
REMARK    1  A    between atoms: O_1  and  C_2
REMARK    2  A    between atoms: C_2  and  C_3
REMARK    3  A    between atoms: C_3  and  O_5
REMARK    4  A    between atoms: C_3  and  C_6
REMARK    5  A    between atoms: C_9  and  O_11
REMARK    6  A    between atoms: C_12  and  O_14
REMARK    7  A    between atoms: C_15  and  O_17
REMARK    8  A    between atoms: C_18  and  O_20
REMARK                            x       y       z     vdW  Elec       q    Type
REMARK                         _______ _______ _______ _____ _____    ______ ____
ROOT
ATOM      1  C   UNL     1       9.598  -0.783  24.645  0.00  0.00    +0.183 C 
ATOM      2  C   UNL     1       9.389  -1.274  23.202  0.00  0.00    +0.177 C 
ATOM      3  C   UNL     1       9.955  -0.262  22.205  0.00  0.00    +0.179 C 
ATOM      4  C   UNL     1       9.469   1.150  22.492  0.00  0.00    +0.201 C 
ATOM      5  C   UNL     1       9.734   1.485  23.965  0.00  0.00    +0.279 C 
ATOM      6  O   UNL     1       9.110   0.560  24.838  0.00  0.00    -0.340 OA
ENDROOT
BRANCH   2   7
ATOM      7  O   UNL     1      10.087  -2.514  23.009  0.00  0.00    -0.386 OA
ATOM      8  H   UNL     1       9.458  -3.095  22.541  0.00  0.00    +0.210 HD
ENDBRANCH   2   7
BRANCH   3   9
ATOM      9  O   UNL     1       9.599  -0.660  20.872  0.00  0.00    -0.386 OA
ATOM     10  H   UNL     1      10.451  -0.772  20.401  0.00  0.00    +0.210 HD
ENDBRANCH   3   9
BRANCH   4  11
ATOM     11  O   UNL     1      10.170   2.053  21.620  0.00  0.00    -0.384 OA
ATOM     12  H   UNL     1      10.049   2.940  22.015  0.00  0.00    +0.210 HD
ENDBRANCH   4  11
BRANCH   5  13
ATOM     13  O   UNL     1       9.197   2.773  24.225  0.00  0.00    -0.365 OA
ATOM     14  H   UNL     1       9.544   3.323  23.502  0.00  0.00    +0.213 HD
ENDBRANCH   5  13
BRANCH   1  15
ATOM     15  C   UNL     1       8.940  -1.737  25.664  0.00  0.00    +0.171 C 
BRANCH  15  16
ATOM     16  O   UNL     1       7.958  -2.576  25.027  0.00  0.00    -0.387 OA
ATOM     17  H   UNL     1       8.057  -3.440  25.468  0.00  0.00    +0.210 HD
ENDBRANCH  15  16
BRANCH  15  18
ATOM     18  C   UNL     1       8.257  -0.967  26.800  0.00  0.00    +0.189 C 
BRANCH  18  19
ATOM     19  O   UNL     1       9.272  -0.406  27.637  0.00  0.00    -0.392 OA
ATOM     20  H   UNL     1       9.967  -1.080  27.725  0.00  0.00    +0.210 HD
ENDBRANCH  18  19
ENDBRANCH  15  18
ENDBRANCH   1  15
TORSDOF 8
ENDMDL
MODEL 7
REMARK VINA RESULT:      -4.7      3.825      6.171
REMARK  Name = 
REMARK  8 active torsions:
REMARK  status: ('A' for Active; 'I' for Inactive)
REMARK    1  A    between atoms: O_1  and  C_2
REMARK    2  A    between atoms: C_2  and  C_3
REMARK    3  A    between atoms: C_3  and  O_5
REMARK    4  A    between atoms: C_3  and  C_6
REMARK    5  A    between atoms: C_9  and  O_11
REMARK    6  A    between atoms: C_12  and  O_14
REMARK    7  A    between atoms: C_15  and  O_17
REMARK    8  A    between atoms: C_18  and  O_20
REMARK                            x       y       z     vdW  Elec       q    Type
REMARK                         _______ _______ _______ _____ _____    ______ ____
ROOT
ATOM      1  C   UNL     1       6.567  -4.615  25.868  0.00  0.00    +0.183 C 
ATOM      2  C   UNL     1       7.831  -5.452  26.125  0.00  0.00    +0.177 C 
ATOM      3  C   UNL     1       9.081  -4.674  25.712  0.00  0.00    +0.179 C 
ATOM      4  C   UNL     1       8.953  -4.096  24.312  0.00  0.00    +0.201 C 
ATOM      5  C   UNL     1       7.643  -3.304  24.211  0.00  0.00    +0.279 C 
ATOM      6  O   UNL     1       6.517  -4.105  24.521  0.00  0.00    -0.340 OA
ENDROOT
BRANCH   2   7
ATOM      7  O   UNL     1       7.941  -5.742  27.528  0.00  0.00    -0.386 OA
ATOM      8  H   UNL     1       7.466  -6.584  27.655  0.00  0.00    +0.210 HD
ENDBRANCH   2   7
BRANCH   3   9
ATOM      9  O   UNL     1      10.228  -5.535  25.803  0.00  0.00    -0.386 OA
ATOM     10  H   UNL     1      10.273  -5.994  24.938  0.00  0.00    +0.210 HD
ENDBRANCH   3   9
BRANCH   4  11
ATOM     11  O   UNL     1      10.091  -3.251  24.068  0.00  0.00    -0.384 OA
ATOM     12  H   UNL     1      10.873  -3.820  24.218  0.00  0.00    +0.210 HD
ENDBRANCH   4  11
BRANCH   5  13
ATOM     13  O   UNL     1       7.509  -2.847  22.874  0.00  0.00    -0.365 OA
ATOM     14  H   UNL     1       6.602  -2.500  22.835  0.00  0.00    +0.213 HD
ENDBRANCH   5  13
BRANCH   1  15
ATOM     15  C   UNL     1       5.287  -5.420  26.178  0.00  0.00    +0.171 C 
BRANCH  15  16
ATOM     16  O   UNL     1       5.609  -6.752  26.620  0.00  0.00    -0.387 OA
ATOM     17  H   UNL     1       5.083  -6.871  27.433  0.00  0.00    +0.210 HD
ENDBRANCH  15  16
BRANCH  15  18
ATOM     18  C   UNL     1       4.373  -5.524  24.952  0.00  0.00    +0.189 C 
BRANCH  18  19
ATOM     19  O   UNL     1       4.887  -6.546  24.094  0.00  0.00    -0.392 OA
ATOM     20  H   UNL     1       5.701  -6.193  23.694  0.00  0.00    +0.210 HD
ENDBRANCH  18  19
ENDBRANCH  15  18
ENDBRANCH   1  15
TORSDOF 8
ENDMDL
MODEL 8
REMARK VINA RESULT:      -4.7      5.344      7.633
REMARK  Name = 
REMARK  8 active torsions:
REMARK  status: ('A' for Active; 'I' for Inactive)
REMARK    1  A    between atoms: O_1  and  C_2
REMARK    2  A    between atoms: C_2  and  C_3
REMARK    3  A    between atoms: C_3  and  O_5
REMARK    4  A    between atoms: C_3  and  C_6
REMARK    5  A    between atoms: C_9  and  O_11
REMARK    6  A    between atoms: C_12  and  O_14
REMARK    7  A    between atoms: C_15  and  O_17
REMARK    8  A    between atoms: C_18  and  O_20
REMARK                            x       y       z     vdW  Elec       q    Type
REMARK                         _______ _______ _______ _____ _____    ______ ____
ROOT
ATOM      1  C   UNL     1       5.769  -5.335  26.155  0.00  0.00    +0.183 C 
ATOM      2  C   UNL     1       6.877  -4.946  25.161  0.00  0.00    +0.177 C 
ATOM      3  C   UNL     1       6.337  -4.951  23.730  0.00  0.00    +0.179 C 
ATOM      4  C   UNL     1       5.593  -6.237  23.409  0.00  0.00    +0.201 C 
ATOM      5  C   UNL     1       4.538  -6.494  24.492  0.00  0.00    +0.279 C 
ATOM      6  O   UNL     1       5.114  -6.564  25.784  0.00  0.00    -0.340 OA
ENDROOT
BRANCH   2   7
ATOM      7  O   UNL     1       7.337  -3.615  25.449  0.00  0.00    -0.386 OA
ATOM      8  H   UNL     1       7.443  -3.185  24.580  0.00  0.00    +0.210 HD
ENDBRANCH   2   7
BRANCH   3   9
ATOM      9  O   UNL     1       7.424  -4.750  22.812  0.00  0.00    -0.386 OA
ATOM     10  H   UNL     1       8.177  -5.248  23.193  0.00  0.00    +0.210 HD
ENDBRANCH   3   9
BRANCH   4  11
ATOM     11  O   UNL     1       4.983  -6.093  22.114  0.00  0.00    -0.384 OA
ATOM     12  H   UNL     1       5.557  -6.597  21.501  0.00  0.00    +0.210 HD
ENDBRANCH   4  11
BRANCH   5  13
ATOM     13  O   UNL     1       3.918  -7.739  24.214  0.00  0.00    -0.365 OA
ATOM     14  H   UNL     1       4.636  -8.283  23.849  0.00  0.00    +0.213 HD
ENDBRANCH   5  13
BRANCH   1  15
ATOM     15  C   UNL     1       6.318  -5.440  27.594  0.00  0.00    +0.171 C 
BRANCH  15  16
ATOM     16  O   UNL     1       7.617  -6.059  27.608  0.00  0.00    -0.387 OA
ATOM     17  H   UNL     1       7.834  -6.145  28.554  0.00  0.00    +0.210 HD
ENDBRANCH  15  16
BRANCH  15  18
ATOM     18  C   UNL     1       5.383  -6.252  28.498  0.00  0.00    +0.189 C 
BRANCH  18  19
ATOM     19  O   UNL     1       5.709  -7.637  28.351  0.00  0.00    -0.392 OA
ATOM     20  H   UNL     1       6.679  -7.699  28.358  0.00  0.00    +0.210 HD
ENDBRANCH  18  19
ENDBRANCH  15  18
ENDBRANCH   1  15
TORSDOF 8
ENDMDL
MODEL 9
REMARK VINA RESULT:      -4.6      4.091      6.298
REMARK  Name = 
REMARK  8 active torsions:
REMARK  status: ('A' for Active; 'I' for Inactive)
REMARK    1  A    between atoms: O_1  and  C_2
REMARK    2  A    between atoms: C_2  and  C_3
REMARK    3  A    between atoms: C_3  and  O_5
REMARK    4  A    between atoms: C_3  and  C_6
REMARK    5  A    between atoms: C_9  and  O_11
REMARK    6  A    between atoms: C_12  and  O_14
REMARK    7  A    between atoms: C_15  and  O_17
REMARK    8  A    between atoms: C_18  and  O_20
REMARK                            x       y       z     vdW  Elec       q    Type
REMARK                         _______ _______ _______ _____ _____    ______ ____
ROOT
ATOM      1  C   UNL     1       7.149  -4.147  24.456  0.00  0.00    +0.183 C 
ATOM      2  C   UNL     1       7.225  -4.213  22.921  0.00  0.00    +0.177 C 
ATOM      3  C   UNL     1       5.878  -4.641  22.337  0.00  0.00    +0.179 C 
ATOM      4  C   UNL     1       5.334  -5.886  23.018  0.00  0.00    +0.201 C 
ATOM      5  C   UNL     1       5.333  -5.672  24.537  0.00  0.00    +0.279 C 
ATOM      6  O   UNL     1       6.627  -5.364  25.027  0.00  0.00    -0.340 OA
ENDROOT
BRANCH   2   7
ATOM      7  O   UNL     1       7.533  -2.911  22.398  0.00  0.00    -0.386 OA
ATOM      8  H   UNL     1       8.507  -2.870  22.365  0.00  0.00    +0.210 HD
ENDBRANCH   2   7
BRANCH   3   9
ATOM      9  O   UNL     1       6.021  -4.857  20.924  0.00  0.00    -0.386 OA
ATOM     10  H   UNL     1       5.138  -5.151  20.618  0.00  0.00    +0.210 HD
ENDBRANCH   3   9
BRANCH   4  11
ATOM     11  O   UNL     1       4.003  -6.123  22.527  0.00  0.00    -0.384 OA
ATOM     12  H   UNL     1       3.437  -6.170  23.324  0.00  0.00    +0.210 HD
ENDBRANCH   4  11
BRANCH   5  13
ATOM     13  O   UNL     1       4.901  -6.876  25.150  0.00  0.00    -0.365 OA
ATOM     14  H   UNL     1       4.618  -7.431  24.404  0.00  0.00    +0.213 HD
ENDBRANCH   5  13
BRANCH   1  15
ATOM     15  C   UNL     1       8.525  -3.821  25.073  0.00  0.00    +0.171 C 
BRANCH  15  16
ATOM     16  O   UNL     1       9.555  -3.818  24.067  0.00  0.00    -0.387 OA
ATOM     17  H   UNL     1       9.278  -3.124  23.440  0.00  0.00    +0.210 HD
ENDBRANCH  15  16
BRANCH  15  18
ATOM     18  C   UNL     1       8.912  -4.830  26.160  0.00  0.00    +0.189 C 
BRANCH  18  19
ATOM     19  O   UNL     1       9.604  -5.916  25.539  0.00  0.00    -0.392 OA
ATOM     20  H   UNL     1      10.102  -6.369  26.241  0.00  0.00    +0.210 HD
ENDBRANCH  18  19
ENDBRANCH  15  18
ENDBRANCH   1  15
TORSDOF 8
ENDMDL
