MODEL 1
REMARK VINA RESULT:      -5.9      0.000      0.000
REMARK  Name = 
REMARK  8 active torsions:
REMARK  status: ('A' for Active; 'I' for Inactive)
REMARK    1  A    between atoms: C_2  and  C_14
REMARK    2  A    between atoms: C_7  and  C_9
REMARK    3  A    between atoms: C_9  and  C_10
REMARK    4  A    between atoms: C_10  and  C_11
REMARK    5  A    between atoms: C_11  and  C_12
REMARK    6  A    between atoms: C_11  and  C_13
REMARK    7  A    between atoms: N_16  and  C_17
REMARK    8  A    between atoms: C_17  and  C_18
REMARK                            x       y       z     vdW  Elec       q    Type
REMARK                         _______ _______ _______ _____ _____    ______ ____
ROOT
ATOM      1  C   UNL     1       7.910  -3.982  24.253  0.00  0.00    +0.162 C 
ATOM      2  N   UNL     1       6.533  -3.604  23.915  0.00  0.00    -0.290 N 
ATOM      3  C   UNL     1       5.717  -2.712  24.576  0.00  0.00    +0.216 C 
ATOM      4  O   UNL     1       4.528  -2.599  24.280  0.00  0.00    -0.276 OA
ATOM      5  C   UNL     1       5.956  -4.533  22.953  0.00  0.00    +0.108 C 
ATOM      6  C   UNL     1       7.105  -5.434  22.523  0.00  0.00    +0.021 C 
ATOM      7  C   UNL     1       8.036  -5.414  23.729  0.00  0.00    +0.033 C 
ENDROOT
BRANCH   1   8
ATOM      8  C   UNL     1       8.985  -3.076  23.614  0.00  0.00    +0.234 C 
ATOM      9  N   UNL     1       8.545  -2.234  22.620  0.00  0.00    -0.310 N 
ATOM     10  H   UNL     1       7.563  -2.241  22.368  0.00  0.00    +0.149 HD
ATOM     11  O   UNL     1      10.159  -3.119  23.969  0.00  0.00    -0.274 OA
BRANCH   9  12
ATOM     12  C   UNL     1       9.463  -1.375  21.913  0.00  0.00    +0.139 C 
BRANCH  12  13
ATOM     13  C   UNL     1       9.482   0.010  22.499  0.00  0.00    -0.029 A 
ATOM     14  C   UNL     1      10.484   0.384  23.408  0.00  0.00    +0.005 A 
ATOM     15  C   UNL     1      10.512   1.675  23.941  0.00  0.00    +0.002 A 
ATOM     16  C   UNL     1       9.545   2.607  23.565  0.00  0.00    +0.020 A 
ATOM     17  C   UNL     1       8.554   2.244  22.656  0.00  0.00    +0.041 A 
ATOM     18 CL   UNL     1       7.361   3.394  22.190  0.00  0.00    -0.084 Cl
ATOM     19  C   UNL     1       8.519   0.956  22.120  0.00  0.00    +0.025 A 
ENDBRANCH  12  13
ENDBRANCH   9  12
ENDBRANCH   1   8
BRANCH   3  20
ATOM     20  C   UNL     1       6.352  -1.806  25.621  0.00  0.00    +0.096 C 
BRANCH  20  21
ATOM     21  C   UNL     1       6.614  -0.390  25.097  0.00  0.00    +0.012 C 
BRANCH  21  22
ATOM     22  C   UNL     1       7.722   0.380  25.846  0.00  0.00    -0.017 C 
ATOM     23  C   UNL     1       8.641  -0.609  26.568  0.00  0.00    +0.007 C 
ATOM     24  C   UNL     1       7.167   1.394  26.847  0.00  0.00    +0.007 C 
ENDBRANCH  21  22
ENDBRANCH  20  21
ENDBRANCH   3  20
TORSDOF 6
ENDMDL
MODEL 2
REMARK VINA RESULT:      -5.8      2.404      4.342
REMARK  Name = 
REMARK  8 active torsions:
REMARK  status: ('A' for Active; 'I' for Inactive)
REMARK    1  A    between atoms: C_2  and  C_14
REMARK    2  A    between atoms: C_7  and  C_9
REMARK    3  A    between atoms: C_9  and  C_10
REMARK    4  A    between atoms: C_10  and  C_11
REMARK    5  A    between atoms: C_11  and  C_12
REMARK    6  A    between atoms: C_11  and  C_13
REMARK    7  A    between atoms: N_16  and  C_17
REMARK    8  A    between atoms: C_17  and  C_18
REMARK                            x       y       z     vdW  Elec       q    Type
REMARK                         _______ _______ _______ _____ _____    ______ ____
ROOT
ATOM      1  C   UNL     1       6.875  -1.342  22.858  0.00  0.00    +0.162 C 
ATOM      2  N   UNL     1       8.277  -1.777  22.871  0.00  0.00    -0.290 N 
ATOM      3  C   UNL     1       9.339  -1.219  22.194  0.00  0.00    +0.216 C 
ATOM      4  O   UNL     1      10.438  -1.773  22.167  0.00  0.00    -0.276 OA
ATOM      5  C   UNL     1       8.407  -3.111  23.442  0.00  0.00    +0.108 C 
ATOM      6  C   UNL     1       7.028  -3.450  23.992  0.00  0.00    +0.021 C 
ATOM      7  C   UNL     1       6.090  -2.630  23.115  0.00  0.00    +0.033 C 
ENDROOT
BRANCH   1   8
ATOM      8  C   UNL     1       6.538  -0.281  23.928  0.00  0.00    +0.234 C 
ATOM      9  N   UNL     1       5.964   0.878  23.463  0.00  0.00    -0.310 N 
ATOM     10  H   UNL     1       5.786   0.975  22.470  0.00  0.00    +0.149 HD
ATOM     11  O   UNL     1       6.781  -0.464  25.117  0.00  0.00    -0.274 OA
BRANCH   9  12
ATOM     12  C   UNL     1       5.649   1.964  24.359  0.00  0.00    +0.139 C 
BRANCH  12  13
ATOM     13  C   UNL     1       6.448   3.195  24.031  0.00  0.00    -0.029 A 
ATOM     14  C   UNL     1       6.499   3.681  22.716  0.00  0.00    +0.005 A 
ATOM     15  C   UNL     1       7.227   4.834  22.413  0.00  0.00    +0.002 A 
ATOM     16  C   UNL     1       7.905   5.517  23.423  0.00  0.00    +0.020 A 
ATOM     17  C   UNL     1       7.851   5.044  24.731  0.00  0.00    +0.041 A 
ATOM     18 CL   UNL     1       8.686   5.887  25.978  0.00  0.00    -0.084 Cl
ATOM     19  C   UNL     1       7.126   3.893  25.041  0.00  0.00    +0.025 A 
ENDBRANCH  12  13
ENDBRANCH   9  12
ENDBRANCH   1   8
BRANCH   3  20
ATOM     20  C   UNL     1       9.138   0.148  21.555  0.00  0.00    +0.096 C 
BRANCH  20  21
ATOM     21  C   UNL     1      10.196   1.166  21.990  0.00  0.00    +0.012 C 
BRANCH  21  22
ATOM     22  C   UNL     1       9.810   2.009  23.225  0.00  0.00    -0.017 C 
ATOM     23  C   UNL     1      10.736   3.224  23.331  0.00  0.00    +0.007 C 
ATOM     24  C   UNL     1       9.858   1.209  24.527  0.00  0.00    +0.007 C 
ENDBRANCH  21  22
ENDBRANCH  20  21
ENDBRANCH   3  20
TORSDOF 6
ENDMDL
MODEL 3
REMARK VINA RESULT:      -5.7      2.261      3.607
REMARK  Name = 
REMARK  8 active torsions:
REMARK  status: ('A' for Active; 'I' for Inactive)
REMARK    1  A    between atoms: C_2  and  C_14
REMARK    2  A    between atoms: C_7  and  C_9
REMARK    3  A    between atoms: C_9  and  C_10
REMARK    4  A    between atoms: C_10  and  C_11
REMARK    5  A    between atoms: C_11  and  C_12
REMARK    6  A    between atoms: C_11  and  C_13
REMARK    7  A    between atoms: N_16  and  C_17
REMARK    8  A    between atoms: C_17  and  C_18
REMARK                            x       y       z     vdW  Elec       q    Type
REMARK                         _______ _______ _______ _____ _____    ______ ____
ROOT
ATOM      1  C   UNL     1       8.407  -3.082  24.669  0.00  0.00    +0.162 C 
ATOM      2  N   UNL     1       8.271  -4.380  23.997  0.00  0.00    -0.290 N 
ATOM      3  C   UNL     1       7.494  -4.685  22.901  0.00  0.00    +0.216 C 
ATOM      4  O   UNL     1       7.349  -5.849  22.529  0.00  0.00    -0.276 OA
ATOM      5  C   UNL     1       8.811  -5.454  24.820  0.00  0.00    +0.108 C 
ATOM      6  C   UNL     1       9.496  -4.762  25.990  0.00  0.00    +0.021 C 
ATOM      7  C   UNL     1       8.729  -3.451  26.119  0.00  0.00    +0.033 C 
ENDROOT
BRANCH   1   8
ATOM      8  C   UNL     1       9.517  -2.185  24.081  0.00  0.00    +0.234 C 
ATOM      9  N   UNL     1       9.583  -0.906  24.581  0.00  0.00    -0.310 N 
ATOM     10  H   UNL     1       8.925  -0.624  25.298  0.00  0.00    +0.149 HD
ATOM     11  O   UNL     1      10.283  -2.592  23.212  0.00  0.00    -0.274 OA
BRANCH   9  12
ATOM     12  C   UNL     1      10.546   0.042  24.075  0.00  0.00    +0.139 C 
BRANCH  12  13
ATOM     13  C   UNL     1      10.028   1.451  24.166  0.00  0.00    -0.029 A 
ATOM     14  C   UNL     1       8.748   1.707  24.679  0.00  0.00    +0.005 A 
ATOM     15  C   UNL     1       8.272   3.017  24.779  0.00  0.00    +0.002 A 
ATOM     16  C   UNL     1       9.074   4.083  24.375  0.00  0.00    +0.020 A 
ATOM     17  C   UNL     1      10.349   3.837  23.873  0.00  0.00    +0.041 A 
ATOM     18 CL   UNL     1      11.341   5.153  23.376  0.00  0.00    -0.084 Cl
ATOM     19  C   UNL     1      10.831   2.531  23.769  0.00  0.00    +0.025 A 
ENDBRANCH  12  13
ENDBRANCH   9  12
ENDBRANCH   1   8
BRANCH   3  20
ATOM     20  C   UNL     1       6.895  -3.531  22.110  0.00  0.00    +0.096 C 
BRANCH  20  21
ATOM     21  C   UNL     1       5.406  -3.321  22.407  0.00  0.00    +0.012 C 
BRANCH  21  22
ATOM     22  C   UNL     1       4.915  -3.959  23.723  0.00  0.00    -0.017 C 
ATOM     23  C   UNL     1       3.652  -4.784  23.458  0.00  0.00    +0.007 C 
ATOM     24  C   UNL     1       4.635  -2.926  24.815  0.00  0.00    +0.007 C 
ENDBRANCH  21  22
ENDBRANCH  20  21
ENDBRANCH   3  20
TORSDOF 6
ENDMDL
MODEL 4
REMARK VINA RESULT:      -5.5      2.701      3.850
REMARK  Name = 
REMARK  8 active torsions:
REMARK  status: ('A' for Active; 'I' for Inactive)
REMARK    1  A    between atoms: C_2  and  C_14
REMARK    2  A    between atoms: C_7  and  C_9
REMARK    3  A    between atoms: C_9  and  C_10
REMARK    4  A    between atoms: C_10  and  C_11
REMARK    5  A    between atoms: C_11  and  C_12
REMARK    6  A    between atoms: C_11  and  C_13
REMARK    7  A    between atoms: N_16  and  C_17
REMARK    8  A    between atoms: C_17  and  C_18
REMARK                            x       y       z     vdW  Elec       q    Type
REMARK                         _______ _______ _______ _____ _____    ______ ____
ROOT
ATOM      1  C   UNL     1       7.000  -5.469  23.723  0.00  0.00    +0.162 C 
ATOM      2  N   UNL     1       5.827  -4.622  23.970  0.00  0.00    -0.290 N 
ATOM      3  C   UNL     1       5.094  -4.515  25.132  0.00  0.00    +0.216 C 
ATOM      4  O   UNL     1       4.038  -3.885  25.161  0.00  0.00    -0.276 OA
ATOM      5  C   UNL     1       5.278  -4.110  22.721  0.00  0.00    +0.108 C 
ATOM      6  C   UNL     1       6.281  -4.506  21.647  0.00  0.00    +0.021 C 
ATOM      7  C   UNL     1       6.934  -5.757  22.221  0.00  0.00    +0.033 C 
ENDROOT
BRANCH   1   8
ATOM      8  C   UNL     1       8.343  -4.800  24.085  0.00  0.00    +0.234 C 
ATOM      9  N   UNL     1       8.358  -3.425  24.051  0.00  0.00    -0.310 N 
ATOM     10  H   UNL     1       7.508  -2.931  23.805  0.00  0.00    +0.149 HD
ATOM     11  O   UNL     1       9.336  -5.461  24.374  0.00  0.00    -0.274 OA
BRANCH   9  12
ATOM     12  C   UNL     1       9.567  -2.686  24.322  0.00  0.00    +0.139 C 
BRANCH  12  13
ATOM     13  C   UNL     1       9.671  -1.466  23.450  0.00  0.00    -0.029 A 
ATOM     14  C   UNL     1       9.256  -1.511  22.110  0.00  0.00    +0.005 A 
ATOM     15  C   UNL     1       9.337  -0.373  21.304  0.00  0.00    +0.002 A 
ATOM     16  C   UNL     1       9.826   0.823  21.830  0.00  0.00    +0.020 A 
ATOM     17  C   UNL     1      10.231   0.876  23.161  0.00  0.00    +0.041 A 
ATOM     18 CL   UNL     1      10.833   2.351  23.812  0.00  0.00    -0.084 Cl
ATOM     19  C   UNL     1      10.154  -0.257  23.972  0.00  0.00    +0.025 A 
ENDBRANCH  12  13
ENDBRANCH   9  12
ENDBRANCH   1   8
BRANCH   3  20
ATOM     20  C   UNL     1       5.677  -5.124  26.400  0.00  0.00    +0.096 C 
BRANCH  20  21
ATOM     21  C   UNL     1       5.081  -6.497  26.724  0.00  0.00    +0.012 C 
BRANCH  21  22
ATOM     22  C   UNL     1       4.800  -6.741  28.222  0.00  0.00    -0.017 C 
ATOM     23  C   UNL     1       3.735  -5.757  28.714  0.00  0.00    +0.007 C 
ATOM     24  C   UNL     1       6.054  -6.620  29.088  0.00  0.00    +0.007 C 
ENDBRANCH  21  22
ENDBRANCH  20  21
ENDBRANCH   3  20
TORSDOF 6
ENDMDL
MODEL 5
REMARK VINA RESULT:      -5.5      2.719      5.552
REMARK  Name = 
REMARK  8 active torsions:
REMARK  status: ('A' for Active; 'I' for Inactive)
REMARK    1  A    between atoms: C_2  and  C_14
REMARK    2  A    between atoms: C_7  and  C_9
REMARK    3  A    between atoms: C_9  and  C_10
REMARK    4  A    between atoms: C_10  and  C_11
REMARK    5  A    between atoms: C_11  and  C_12
REMARK    6  A    between atoms: C_11  and  C_13
REMARK    7  A    between atoms: N_16  and  C_17
REMARK    8  A    between atoms: C_17  and  C_18
REMARK                            x       y       z     vdW  Elec       q    Type
REMARK                         _______ _______ _______ _____ _____    ______ ____
ROOT
ATOM      1  C   UNL     1       9.092   1.015  23.038  0.00  0.00    +0.162 C 
ATOM      2  N   UNL     1       8.484   1.964  23.978  0.00  0.00    -0.290 N 
ATOM      3  C   UNL     1       7.211   1.931  24.505  0.00  0.00    +0.216 C 
ATOM      4  O   UNL     1       6.772   2.874  25.162  0.00  0.00    -0.276 OA
ATOM      5  C   UNL     1       9.272   3.186  24.071  0.00  0.00    +0.108 C 
ATOM      6  C   UNL     1      10.547   2.905  23.288  0.00  0.00    +0.021 C 
ATOM      7  C   UNL     1      10.109   1.860  22.269  0.00  0.00    +0.033 C 
ENDROOT
BRANCH   1   8
ATOM      8  C   UNL     1       9.791  -0.182  23.719  0.00  0.00    +0.234 C 
ATOM      9  N   UNL     1       9.434  -1.427  23.258  0.00  0.00    -0.310 N 
ATOM     10  H   UNL     1       8.756  -1.498  22.508  0.00  0.00    +0.149 HD
ATOM     11  O   UNL     1      10.605  -0.024  24.624  0.00  0.00    -0.274 OA
BRANCH   9  12
ATOM     12  C   UNL     1       9.980  -2.624  23.850  0.00  0.00    +0.139 C 
BRANCH  12  13
ATOM     13  C   UNL     1       8.893  -3.549  24.322  0.00  0.00    -0.029 A 
ATOM     14  C   UNL     1       9.038  -4.266  25.519  0.00  0.00    +0.005 A 
ATOM     15  C   UNL     1       8.022  -5.113  25.967  0.00  0.00    +0.002 A 
ATOM     16  C   UNL     1       6.846  -5.245  25.228  0.00  0.00    +0.020 A 
ATOM     17  C   UNL     1       6.692  -4.528  24.044  0.00  0.00    +0.041 A 
ATOM     18 CL   UNL     1       5.241  -4.689  23.132  0.00  0.00    -0.084 Cl
ATOM     19  C   UNL     1       7.703  -3.681  23.590  0.00  0.00    +0.025 A 
ENDBRANCH  12  13
ENDBRANCH   9  12
ENDBRANCH   1   8
BRANCH   3  20
ATOM     20  C   UNL     1       6.399   0.657  24.325  0.00  0.00    +0.096 C 
BRANCH  20  21
ATOM     21  C   UNL     1       5.957   0.044  25.657  0.00  0.00    +0.012 C 
BRANCH  21  22
ATOM     22  C   UNL     1       6.753  -1.206  26.088  0.00  0.00    -0.017 C 
ATOM     23  C   UNL     1       5.858  -2.127  26.921  0.00  0.00    +0.007 C 
ATOM     24  C   UNL     1       8.015  -0.862  26.878  0.00  0.00    +0.007 C 
ENDBRANCH  21  22
ENDBRANCH  20  21
ENDBRANCH   3  20
TORSDOF 6
ENDMDL
MODEL 6
REMARK VINA RESULT:      -5.5      3.001      5.601
REMARK  Name = 
REMARK  8 active torsions:
REMARK  status: ('A' for Active; 'I' for Inactive)
REMARK    1  A    between atoms: C_2  and  C_14
REMARK    2  A    between atoms: C_7  and  C_9
REMARK    3  A    between atoms: C_9  and  C_10
REMARK    4  A    between atoms: C_10  and  C_11
REMARK    5  A    between atoms: C_11  and  C_12
REMARK    6  A    between atoms: C_11  and  C_13
REMARK    7  A    between atoms: N_16  and  C_17
REMARK    8  A    between atoms: C_17  and  C_18
REMARK                            x       y       z     vdW  Elec       q    Type
REMARK                         _______ _______ _______ _____ _____    ______ ____
ROOT
ATOM      1  C   UNL     1       8.169  -0.031  22.437  0.00  0.00    +0.162 C 
ATOM      2  N   UNL     1       8.272   0.689  23.712  0.00  0.00    -0.290 N 
ATOM      3  C   UNL     1       7.336   0.753  24.722  0.00  0.00    +0.216 C 
ATOM      4  O   UNL     1       7.481   1.518  25.674  0.00  0.00    -0.276 OA
ATOM      5  C   UNL     1       9.376   1.638  23.690  0.00  0.00    +0.108 C 
ATOM      6  C   UNL     1      10.123   1.359  22.394  0.00  0.00    +0.021 C 
ATOM      7  C   UNL     1       9.043   0.787  21.483  0.00  0.00    +0.033 C 
ENDROOT
BRANCH   1   8
ATOM      8  C   UNL     1       8.660  -1.493  22.500  0.00  0.00    +0.234 C 
ATOM      9  N   UNL     1       7.682  -2.449  22.641  0.00  0.00    -0.310 N 
ATOM     10  H   UNL     1       6.712  -2.158  22.685  0.00  0.00    +0.149 HD
ATOM     11  O   UNL     1       9.853  -1.776  22.440  0.00  0.00    -0.274 OA
BRANCH   9  12
ATOM     12  C   UNL     1       8.019  -3.847  22.762  0.00  0.00    +0.139 C 
BRANCH  12  13
ATOM     13  C   UNL     1       7.922  -4.313  24.188  0.00  0.00    -0.029 A 
ATOM     14  C   UNL     1       8.914  -3.970  25.119  0.00  0.00    +0.005 A 
ATOM     15  C   UNL     1       8.816  -4.389  26.448  0.00  0.00    +0.002 A 
ATOM     16  C   UNL     1       7.722  -5.147  26.862  0.00  0.00    +0.020 A 
ATOM     17  C   UNL     1       6.729  -5.483  25.946  0.00  0.00    +0.041 A 
ATOM     18 CL   UNL     1       5.376  -6.417  26.456  0.00  0.00    -0.084 Cl
ATOM     19  C   UNL     1       6.820  -5.069  24.616  0.00  0.00    +0.025 A 
ENDBRANCH  12  13
ENDBRANCH   9  12
ENDBRANCH   1   8
BRANCH   3  20
ATOM     20  C   UNL     1       6.162  -0.214  24.667  0.00  0.00    +0.096 C 
BRANCH  20  21
ATOM     21  C   UNL     1       6.254  -1.315  25.728  0.00  0.00    +0.012 C 
BRANCH  21  22
ATOM     22  C   UNL     1       4.894  -1.866  26.205  0.00  0.00    -0.017 C 
ATOM     23  C   UNL     1       5.071  -2.598  27.539  0.00  0.00    +0.007 C 
ATOM     24  C   UNL     1       4.243  -2.803  25.187  0.00  0.00    +0.007 C 
ENDBRANCH  21  22
ENDBRANCH  20  21
ENDBRANCH   3  20
TORSDOF 6
ENDMDL
MODEL 7
REMARK VINA RESULT:      -5.4      2.689      5.940
REMARK  Name = 
REMARK  8 active torsions:
REMARK  status: ('A' for Active; 'I' for Inactive)
REMARK    1  A    between atoms: C_2  and  C_14
REMARK    2  A    between atoms: C_7  and  C_9
REMARK    3  A    between atoms: C_9  and  C_10
REMARK    4  A    between atoms: C_10  and  C_11
REMARK    5  A    between atoms: C_11  and  C_12
REMARK    6  A    between atoms: C_11  and  C_13
REMARK    7  A    between atoms: N_16  and  C_17
REMARK    8  A    between atoms: C_17  and  C_18
REMARK                            x       y       z     vdW  Elec       q    Type
REMARK                         _______ _______ _______ _____ _____    ______ ____
ROOT
ATOM      1  C   UNL     1       9.697   0.464  24.444  0.00  0.00    +0.162 C 
ATOM      2  N   UNL     1       9.790  -0.124  23.102  0.00  0.00    -0.290 N 
ATOM      3  C   UNL     1      10.070  -1.432  22.773  0.00  0.00    +0.216 C 
ATOM      4  O   UNL     1      10.272  -1.763  21.605  0.00  0.00    -0.276 OA
ATOM      5  C   UNL     1       9.878   0.912  22.082  0.00  0.00    +0.108 C 
ATOM      6  C   UNL     1       9.633   2.223  22.816  0.00  0.00    +0.021 C 
ATOM      7  C   UNL     1      10.103   1.924  24.234  0.00  0.00    +0.033 C 
ENDROOT
BRANCH   1   8
ATOM      8  C   UNL     1       8.288   0.380  25.069  0.00  0.00    +0.234 C 
ATOM      9  N   UNL     1       7.272   0.024  24.212  0.00  0.00    -0.310 N 
ATOM     10  H   UNL     1       7.492  -0.170  23.242  0.00  0.00    +0.149 HD
ATOM     11  O   UNL     1       8.092   0.628  26.255  0.00  0.00    -0.274 OA
BRANCH   9  12
ATOM     12  C   UNL     1       5.904  -0.039  24.666  0.00  0.00    +0.139 C 
BRANCH  12  13
ATOM     13  C   UNL     1       5.480  -1.457  24.935  0.00  0.00    -0.029 A 
ATOM     14  C   UNL     1       5.105  -1.855  26.227  0.00  0.00    +0.005 A 
ATOM     15  C   UNL     1       4.695  -3.167  26.474  0.00  0.00    +0.002 A 
ATOM     16  C   UNL     1       4.649  -4.093  25.431  0.00  0.00    +0.020 A 
ATOM     17  C   UNL     1       5.012  -3.701  24.145  0.00  0.00    +0.041 A 
ATOM     18 CL   UNL     1       4.953  -4.842  22.857  0.00  0.00    -0.084 Cl
ATOM     19  C   UNL     1       5.423  -2.392  23.891  0.00  0.00    +0.025 A 
ENDBRANCH  12  13
ENDBRANCH   9  12
ENDBRANCH   1   8
BRANCH   3  20
ATOM     20  C   UNL     1      10.032  -2.471  23.885  0.00  0.00    +0.096 C 
BRANCH  20  21
ATOM     21  C   UNL     1       8.759  -3.322  23.857  0.00  0.00    +0.012 C 
BRANCH  21  22
ATOM     22  C   UNL     1       8.495  -4.130  25.145  0.00  0.00    -0.017 C 
ATOM     23  C   UNL     1       8.502  -3.191  26.355  0.00  0.00    +0.007 C 
ATOM     24  C   UNL     1       9.510  -5.253  25.359  0.00  0.00    +0.007 C 
ENDBRANCH  21  22
ENDBRANCH  20  21
ENDBRANCH   3  20
TORSDOF 6
ENDMDL
MODEL 8
REMARK VINA RESULT:      -5.4      2.953      6.306
REMARK  Name = 
REMARK  8 active torsions:
REMARK  status: ('A' for Active; 'I' for Inactive)
REMARK    1  A    between atoms: C_2  and  C_14
REMARK    2  A    between atoms: C_7  and  C_9
REMARK    3  A    between atoms: C_9  and  C_10
REMARK    4  A    between atoms: C_10  and  C_11
REMARK    5  A    between atoms: C_11  and  C_12
REMARK    6  A    between atoms: C_11  and  C_13
REMARK    7  A    between atoms: N_16  and  C_17
REMARK    8  A    between atoms: C_17  and  C_18
REMARK                            x       y       z     vdW  Elec       q    Type
REMARK                         _______ _______ _______ _____ _____    ______ ____
ROOT
ATOM      1  C   UNL     1      10.048  -0.530  24.520  0.00  0.00    +0.162 C 
ATOM      2  N   UNL     1       9.597  -0.251  23.151  0.00  0.00    -0.290 N 
ATOM      3  C   UNL     1       9.252  -1.160  22.175  0.00  0.00    +0.216 C 
ATOM      4  O   UNL     1       9.040  -0.800  21.018  0.00  0.00    -0.276 OA
ATOM      5  C   UNL     1       9.858   1.135  22.786  0.00  0.00    +0.108 C 
ATOM      6  C   UNL     1      10.325   1.809  24.068  0.00  0.00    +0.021 C 
ATOM      7  C   UNL     1      10.942   0.664  24.862  0.00  0.00    +0.033 C 
ENDROOT
BRANCH   1   8
ATOM      8  C   UNL     1       8.900  -0.655  25.545  0.00  0.00    +0.234 C 
ATOM      9  N   UNL     1       7.627  -0.646  25.024  0.00  0.00    -0.310 N 
ATOM     10  H   UNL     1       7.507  -0.570  24.021  0.00  0.00    +0.149 HD
ATOM     11  O   UNL     1       9.117  -0.745  26.749  0.00  0.00    -0.274 OA
BRANCH   9  12
ATOM     12  C   UNL     1       6.471  -0.707  25.885  0.00  0.00    +0.139 C 
BRANCH  12  13
ATOM     13  C   UNL     1       5.882  -2.090  25.917  0.00  0.00    -0.029 A 
ATOM     14  C   UNL     1       4.830  -2.436  25.056  0.00  0.00    +0.005 A 
ATOM     15  C   UNL     1       4.293  -3.726  25.074  0.00  0.00    +0.002 A 
ATOM     16  C   UNL     1       4.809  -4.684  25.946  0.00  0.00    +0.020 A 
ATOM     17  C   UNL     1       5.859  -4.350  26.796  0.00  0.00    +0.041 A 
ATOM     18 CL   UNL     1       6.498  -5.532  27.872  0.00  0.00    -0.084 Cl
ATOM     19  C   UNL     1       6.400  -3.063  26.785  0.00  0.00    +0.025 A 
ENDBRANCH  12  13
ENDBRANCH   9  12
ENDBRANCH   1   8
BRANCH   3  20
ATOM     20  C   UNL     1       9.055  -2.611  22.591  0.00  0.00    +0.096 C 
BRANCH  20  21
ATOM     21  C   UNL     1       7.620  -3.099  22.373  0.00  0.00    +0.012 C 
BRANCH  21  22
ATOM     22  C   UNL     1       7.283  -4.440  23.059  0.00  0.00    -0.017 C 
ATOM     23  C   UNL     1       8.349  -4.766  24.109  0.00  0.00    +0.007 C 
ATOM     24  C   UNL     1       7.166  -5.599  22.069  0.00  0.00    +0.007 C 
ENDBRANCH  21  22
ENDBRANCH  20  21
ENDBRANCH   3  20
TORSDOF 6
ENDMDL
MODEL 9
REMARK VINA RESULT:      -5.4      1.727      3.613
REMARK  Name = 
REMARK  8 active torsions:
REMARK  status: ('A' for Active; 'I' for Inactive)
REMARK    1  A    between atoms: C_2  and  C_14
REMARK    2  A    between atoms: C_7  and  C_9
REMARK    3  A    between atoms: C_9  and  C_10
REMARK    4  A    between atoms: C_10  and  C_11
REMARK    5  A    between atoms: C_11  and  C_12
REMARK    6  A    between atoms: C_11  and  C_13
REMARK    7  A    between atoms: N_16  and  C_17
REMARK    8  A    between atoms: C_17  and  C_18
REMARK                            x       y       z     vdW  Elec       q    Type
REMARK                         _______ _______ _______ _____ _____    ______ ____
ROOT
ATOM      1  C   UNL     1       6.871  -2.413  22.845  0.00  0.00    +0.162 C 
ATOM      2  N   UNL     1       7.672  -3.372  23.616  0.00  0.00    -0.290 N 
ATOM      3  C   UNL     1       8.987  -3.249  24.007  0.00  0.00    +0.216 C 
ATOM      4  O   UNL     1       9.589  -4.194  24.517  0.00  0.00    -0.276 OA
ATOM      5  C   UNL     1       7.023  -4.675  23.667  0.00  0.00    +0.108 C 
ATOM      6  C   UNL     1       5.645  -4.463  23.054  0.00  0.00    +0.021 C 
ATOM      7  C   UNL     1       5.860  -3.291  22.104  0.00  0.00    +0.033 C 
ENDROOT
BRANCH   1   8
ATOM      8  C   UNL     1       6.142  -1.365  23.713  0.00  0.00    +0.234 C 
ATOM      9  N   UNL     1       6.466  -0.051  23.466  0.00  0.00    -0.310 N 
ATOM     10  H   UNL     1       7.142   0.161  22.741  0.00  0.00    +0.149 HD
ATOM     11  O   UNL     1       5.333  -1.692  24.576  0.00  0.00    -0.274 OA
BRANCH   9  12
ATOM     12  C   UNL     1       5.889   1.017  24.246  0.00  0.00    +0.139 C 
BRANCH  12  13
ATOM     13  C   UNL     1       6.758   2.243  24.224  0.00  0.00    -0.029 A 
ATOM     14  C   UNL     1       7.772   2.414  25.179  0.00  0.00    +0.005 A 
ATOM     15  C   UNL     1       8.590   3.546  25.151  0.00  0.00    +0.002 A 
ATOM     16  C   UNL     1       8.410   4.513  24.163  0.00  0.00    +0.020 A 
ATOM     17  C   UNL     1       7.412   4.345  23.206  0.00  0.00    +0.041 A 
ATOM     18 CL   UNL     1       7.189   5.537  21.985  0.00  0.00    -0.084 Cl
ATOM     19  C   UNL     1       6.590   3.218  23.229  0.00  0.00    +0.025 A 
ENDBRANCH  12  13
ENDBRANCH   9  12
ENDBRANCH   1   8
BRANCH   3  20
ATOM     20  C   UNL     1       9.646  -1.884  23.873  0.00  0.00    +0.096 C 
BRANCH  20  21
ATOM     21  C   UNL     1       9.952  -1.515  22.418  0.00  0.00    +0.012 C 
BRANCH  21  22
ATOM     22  C   UNL     1      10.244  -0.018  22.179  0.00  0.00    -0.017 C 
ATOM     23  C   UNL     1      10.469   0.685  23.521  0.00  0.00    +0.007 C 
ATOM     24  C   UNL     1       9.127   0.688  21.409  0.00  0.00    +0.007 C 
ENDBRANCH  21  22
ENDBRANCH  20  21
ENDBRANCH   3  20
TORSDOF 6
ENDMDL
