MODEL 1
REMARK VINA RESULT:      -5.1      0.000      0.000
REMARK  Name = 
REMARK  8 active torsions:
REMARK  status: ('A' for Active; 'I' for Inactive)
REMARK    1  A    between atoms: C_1  and  C_2
REMARK    2  A    between atoms: N_4  and  CA_5
REMARK    3  A    between atoms: CA_5  and  C_7
REMARK    4  A    between atoms: CA_5  and  C_14
REMARK    5  A    between atoms: C_7  and  C_8
REMARK    6  A    between atoms: C_8  and  C_9
REMARK    7  A    between atoms: C_9  and  N_10
REMARK    8  A    between atoms: C_14  and  O_15
REMARK                            x       y       z     vdW  Elec       q    Type
REMARK                         _______ _______ _______ _____ _____    ______ ____
ROOT
ATOM      1  CA  UNL     1       9.875  -0.464  23.715  0.00  0.00    +0.182 C 
ENDROOT
BRANCH   1   4
ATOM      2  C   UNL     1       7.729   1.925  21.673  0.00  0.00    +0.109 C 
ATOM      3  C   UNL     1       8.968   1.241  22.186  0.00  0.00    +0.211 C 
ATOM      4  N   UNL     1       8.727   0.183  23.043  0.00  0.00    -0.303 N 
ATOM      5  H   UNL     1       7.829   0.171  23.521  0.00  0.00    +0.149 HD
ATOM      6  O   UNL     1      10.093   1.562  21.825  0.00  0.00    -0.276 OA
ENDBRANCH   1   4
BRANCH   1   7
ATOM      7  C   UNL     1      10.251  -1.771  22.987  0.00  0.00    +0.325 C 
ATOM      8  OXT UNL     1      10.343  -2.863  23.530  0.00  0.00    -0.249 OA
BRANCH   7   9
ATOM      9  O   UNL     1      10.327  -1.623  21.641  0.00  0.00    -0.479 OA
ATOM     10  H   UNL     1      10.346  -0.670  21.425  0.00  0.00    +0.295 HD
ENDBRANCH   7   9
ENDBRANCH   1   7
BRANCH   1  11
ATOM     11  C   UNL     1       9.524  -0.751  25.183  0.00  0.00    +0.035 C 
BRANCH  11  12
ATOM     12  C   UNL     1       8.055  -1.096  25.457  0.00  0.00    +0.021 C 
BRANCH  12  13
ATOM     13  C   UNL     1       7.856  -2.416  26.199  0.00  0.00    +0.106 C 
BRANCH  13  14
ATOM     14  N   UNL     1       8.904  -3.361  25.879  0.00  0.00    -0.300 N 
ATOM     15  H   UNL     1       9.428  -3.198  25.031  0.00  0.00    +0.150 HD
ATOM     16  C   UNL     1       8.901  -4.630  26.366  0.00  0.00    +0.297 C 
ATOM     17  O   UNL     1       8.102  -5.083  27.172  0.00  0.00    -0.253 OA
ATOM     18  N   UNL     1       9.909  -5.380  25.854  0.00  0.00    -0.313 N 
ATOM     19  H   UNL     1      10.022  -6.277  26.307  0.00  0.00    +0.146 HD
ATOM     20  H   UNL     1      10.765  -4.907  25.604  0.00  0.00    +0.146 HD
ENDBRANCH  13  14
ENDBRANCH  12  13
ENDBRANCH  11  12
ENDBRANCH   1  11
TORSDOF 7
ENDMDL
MODEL 2
REMARK VINA RESULT:      -5.1      2.676      3.609
REMARK  Name = 
REMARK  8 active torsions:
REMARK  status: ('A' for Active; 'I' for Inactive)
REMARK    1  A    between atoms: C_1  and  C_2
REMARK    2  A    between atoms: N_4  and  CA_5
REMARK    3  A    between atoms: CA_5  and  C_7
REMARK    4  A    between atoms: CA_5  and  C_14
REMARK    5  A    between atoms: C_7  and  C_8
REMARK    6  A    between atoms: C_8  and  C_9
REMARK    7  A    between atoms: C_9  and  N_10
REMARK    8  A    between atoms: C_14  and  O_15
REMARK                            x       y       z     vdW  Elec       q    Type
REMARK                         _______ _______ _______ _____ _____    ______ ____
ROOT
ATOM      1  CA  UNL     1       7.800  -2.537  22.638  0.00  0.00    +0.182 C 
ENDROOT
BRANCH   1   4
ATOM      2  C   UNL     1       6.142  -5.892  21.942  0.00  0.00    +0.109 C 
ATOM      3  C   UNL     1       6.436  -4.420  21.823  0.00  0.00    +0.211 C 
ATOM      4  N   UNL     1       7.515  -3.987  22.571  0.00  0.00    -0.303 N 
ATOM      5  H   UNL     1       7.785  -4.561  23.367  0.00  0.00    +0.149 HD
ATOM      6  O   UNL     1       5.804  -3.682  21.078  0.00  0.00    -0.276 OA
ENDBRANCH   1   4
BRANCH   1   7
ATOM      7  C   UNL     1       9.322  -2.294  22.674  0.00  0.00    +0.325 C 
ATOM      8  OXT UNL     1      10.068  -2.706  23.553  0.00  0.00    -0.249 OA
BRANCH   7   9
ATOM      9  O   UNL     1       9.791  -1.700  21.548  0.00  0.00    -0.479 OA
ATOM     10  H   UNL     1       9.042  -1.298  21.065  0.00  0.00    +0.295 HD
ENDBRANCH   7   9
ENDBRANCH   1   7
BRANCH   1  11
ATOM     11  C   UNL     1       7.131  -1.933  23.882  0.00  0.00    +0.035 C 
BRANCH  11  12
ATOM     12  C   UNL     1       6.689  -2.940  24.950  0.00  0.00    +0.021 C 
BRANCH  12  13
ATOM     13  C   UNL     1       7.574  -2.953  26.195  0.00  0.00    +0.106 C 
BRANCH  13  14
ATOM     14  N   UNL     1       8.785  -3.711  25.969  0.00  0.00    -0.300 N 
ATOM     15  H   UNL     1       9.489  -3.291  25.379  0.00  0.00    +0.150 HD
ATOM     16  C   UNL     1       8.822  -5.064  26.100  0.00  0.00    +0.297 C 
ATOM     17  O   UNL     1       7.905  -5.767  26.498  0.00  0.00    -0.253 OA
ATOM     18  N   UNL     1      10.020  -5.584  25.734  0.00  0.00    -0.313 N 
ATOM     19  H   UNL     1      10.127  -6.564  25.960  0.00  0.00    +0.146 HD
ATOM     20  H   UNL     1      10.841  -5.014  25.869  0.00  0.00    +0.146 HD
ENDBRANCH  13  14
ENDBRANCH  12  13
ENDBRANCH  11  12
ENDBRANCH   1  11
TORSDOF 7
ENDMDL
MODEL 3
REMARK VINA RESULT:      -5.1      2.870      5.972
REMARK  Name = 
REMARK  8 active torsions:
REMARK  status: ('A' for Active; 'I' for Inactive)
REMARK    1  A    between atoms: C_1  and  C_2
REMARK    2  A    between atoms: N_4  and  CA_5
REMARK    3  A    between atoms: CA_5  and  C_7
REMARK    4  A    between atoms: CA_5  and  C_14
REMARK    5  A    between atoms: C_7  and  C_8
REMARK    6  A    between atoms: C_8  and  C_9
REMARK    7  A    between atoms: C_9  and  N_10
REMARK    8  A    between atoms: C_14  and  O_15
REMARK                            x       y       z     vdW  Elec       q    Type
REMARK                         _______ _______ _______ _____ _____    ______ ____
ROOT
ATOM      1  CA  UNL     1       8.408  -4.511  23.919  0.00  0.00    +0.182 C 
ENDROOT
BRANCH   1   4
ATOM      2  C   UNL     1       5.005  -5.644  22.648  0.00  0.00    +0.109 C 
ATOM      3  C   UNL     1       6.503  -5.538  22.743  0.00  0.00    +0.211 C 
ATOM      4  N   UNL     1       6.961  -4.797  23.817  0.00  0.00    -0.303 N 
ATOM      5  H   UNL     1       6.314  -4.124  24.222  0.00  0.00    +0.149 HD
ATOM      6  O   UNL     1       7.253  -6.112  21.963  0.00  0.00    -0.276 OA
ENDBRANCH   1   4
BRANCH   1   7
ATOM      7  C   UNL     1       8.997  -5.189  25.174  0.00  0.00    +0.325 C 
ATOM      8  OXT UNL     1       8.329  -5.701  26.061  0.00  0.00    -0.249 OA
BRANCH   7   9
ATOM      9  O   UNL     1      10.349  -5.299  25.131  0.00  0.00    -0.479 OA
ATOM     10  H   UNL     1      10.639  -5.934  25.815  0.00  0.00    +0.295 HD
ENDBRANCH   7   9
ENDBRANCH   1   7
BRANCH   1  11
ATOM     11  C   UNL     1       8.636  -2.993  23.974  0.00  0.00    +0.035 C 
BRANCH  11  12
ATOM     12  C   UNL     1       8.608  -2.271  22.622  0.00  0.00    +0.021 C 
BRANCH  12  13
ATOM     13  C   UNL     1       9.938  -1.625  22.235  0.00  0.00    +0.106 C 
BRANCH  13  14
ATOM     14  N   UNL     1       9.733  -0.341  21.603  0.00  0.00    -0.300 N 
ATOM     15  H   UNL     1       9.780  -0.311  20.594  0.00  0.00    +0.150 HD
ATOM     16  C   UNL     1       9.949   0.828  22.263  0.00  0.00    +0.297 C 
ATOM     17  O   UNL     1      10.237   0.937  23.445  0.00  0.00    -0.253 OA
ATOM     18  N   UNL     1       9.807   1.909  21.455  0.00  0.00    -0.313 N 
ATOM     19  H   UNL     1       9.814   2.791  21.948  0.00  0.00    +0.146 HD
ATOM     20  H   UNL     1       9.152   1.841  20.691  0.00  0.00    +0.146 HD
ENDBRANCH  13  14
ENDBRANCH  12  13
ENDBRANCH  11  12
ENDBRANCH   1  11
TORSDOF 7
ENDMDL
MODEL 4
REMARK VINA RESULT:      -5.0      2.516      5.878
REMARK  Name = 
REMARK  8 active torsions:
REMARK  status: ('A' for Active; 'I' for Inactive)
REMARK    1  A    between atoms: C_1  and  C_2
REMARK    2  A    between atoms: N_4  and  CA_5
REMARK    3  A    between atoms: CA_5  and  C_7
REMARK    4  A    between atoms: CA_5  and  C_14
REMARK    5  A    between atoms: C_7  and  C_8
REMARK    6  A    between atoms: C_8  and  C_9
REMARK    7  A    between atoms: C_9  and  N_10
REMARK    8  A    between atoms: C_14  and  O_15
REMARK                            x       y       z     vdW  Elec       q    Type
REMARK                         _______ _______ _______ _____ _____    ______ ____
ROOT
ATOM      1  CA  UNL     1       8.025  -5.142  24.719  0.00  0.00    +0.182 C 
ENDROOT
BRANCH   1   4
ATOM      2  C   UNL     1       5.863  -4.263  27.725  0.00  0.00    +0.109 C 
ATOM      3  C   UNL     1       6.872  -5.006  26.892  0.00  0.00    +0.211 C 
ATOM      4  N   UNL     1       7.157  -4.418  25.674  0.00  0.00    -0.303 N 
ATOM      5  H   UNL     1       6.459  -3.783  25.293  0.00  0.00    +0.149 HD
ATOM      6  O   UNL     1       7.436  -6.018  27.290  0.00  0.00    -0.276 OA
ENDBRANCH   1   4
BRANCH   1   7
ATOM      7  C   UNL     1       9.493  -4.701  24.895  0.00  0.00    +0.325 C 
ATOM      8  OXT UNL     1       9.984  -3.707  24.377  0.00  0.00    -0.249 OA
BRANCH   7   9
ATOM      9  O   UNL     1      10.163  -5.444  25.811  0.00  0.00    -0.479 OA
ATOM     10  H   UNL     1      10.952  -4.949  26.108  0.00  0.00    +0.295 HD
ENDBRANCH   7   9
ENDBRANCH   1   7
BRANCH   1  11
ATOM     11  C   UNL     1       7.554  -4.874  23.282  0.00  0.00    +0.035 C 
BRANCH  11  12
ATOM     12  C   UNL     1       6.378  -3.900  23.142  0.00  0.00    +0.021 C 
BRANCH  12  13
ATOM     13  C   UNL     1       6.752  -2.564  22.502  0.00  0.00    +0.106 C 
BRANCH  13  14
ATOM     14  N   UNL     1       8.167  -2.500  22.210  0.00  0.00    -0.300 N 
ATOM     15  H   UNL     1       8.714  -3.330  22.392  0.00  0.00    +0.150 HD
ATOM     16  C   UNL     1       8.840  -1.319  22.167  0.00  0.00    +0.297 C 
ATOM     17  O   UNL     1       8.340  -0.209  22.271  0.00  0.00    -0.253 OA
ATOM     18  N   UNL     1      10.174  -1.494  21.990  0.00  0.00    -0.313 N 
ATOM     19  H   UNL     1      10.677  -0.636  21.805  0.00  0.00    +0.146 HD
ATOM     20  H   UNL     1      10.476  -2.298  21.462  0.00  0.00    +0.146 HD
ENDBRANCH  13  14
ENDBRANCH  12  13
ENDBRANCH  11  12
ENDBRANCH   1  11
TORSDOF 7
ENDMDL
MODEL 5
REMARK VINA RESULT:      -5.0      2.340      5.936
REMARK  Name = 
REMARK  8 active torsions:
REMARK  status: ('A' for Active; 'I' for Inactive)
REMARK    1  A    between atoms: C_1  and  C_2
REMARK    2  A    between atoms: N_4  and  CA_5
REMARK    3  A    between atoms: CA_5  and  C_7
REMARK    4  A    between atoms: CA_5  and  C_14
REMARK    5  A    between atoms: C_7  and  C_8
REMARK    6  A    between atoms: C_8  and  C_9
REMARK    7  A    between atoms: C_9  and  N_10
REMARK    8  A    between atoms: C_14  and  O_15
REMARK                            x       y       z     vdW  Elec       q    Type
REMARK                         _______ _______ _______ _____ _____    ______ ____
ROOT
ATOM      1  CA  UNL     1       9.604  -1.321  24.125  0.00  0.00    +0.182 C 
ENDROOT
BRANCH   1   4
ATOM      2  C   UNL     1       8.011  -4.366  25.760  0.00  0.00    +0.109 C 
ATOM      3  C   UNL     1       9.010  -3.553  24.981  0.00  0.00    +0.211 C 
ATOM      4  N   UNL     1       8.766  -2.192  24.977  0.00  0.00    -0.303 N 
ATOM      5  H   UNL     1       7.812  -1.894  25.168  0.00  0.00    +0.149 HD
ATOM      6  O   UNL     1       9.991  -4.054  24.446  0.00  0.00    -0.276 OA
ENDBRANCH   1   4
BRANCH   1   7
ATOM      7  C   UNL     1      10.068  -0.084  24.921  0.00  0.00    +0.325 C 
ATOM      8  OXT UNL     1      11.197   0.384  24.877  0.00  0.00    -0.249 OA
BRANCH   7   9
ATOM      9  O   UNL     1       9.053   0.538  25.572  0.00  0.00    -0.479 OA
ATOM     10  H   UNL     1       8.538   1.065  24.930  0.00  0.00    +0.295 HD
ENDBRANCH   7   9
ENDBRANCH   1   7
BRANCH   1  11
ATOM     11  C   UNL     1       8.811  -0.891  22.882  0.00  0.00    +0.035 C 
BRANCH  11  12
ATOM     12  C   UNL     1       9.614  -0.149  21.808  0.00  0.00    +0.021 C 
BRANCH  12  13
ATOM     13  C   UNL     1       9.110   1.265  21.521  0.00  0.00    +0.106 C 
BRANCH  13  14
ATOM     14  N   UNL     1      10.123   2.253  21.822  0.00  0.00    -0.300 N 
ATOM     15  H   UNL     1      11.024   2.139  21.380  0.00  0.00    +0.150 HD
ATOM     16  C   UNL     1      10.085   2.998  22.959  0.00  0.00    +0.297 C 
ATOM     17  O   UNL     1       9.184   2.994  23.784  0.00  0.00    -0.253 OA
ATOM     18  N   UNL     1      11.185   3.779  23.098  0.00  0.00    -0.313 N 
ATOM     19  H   UNL     1      11.117   4.450  23.852  0.00  0.00    +0.146 HD
ATOM     20  H   UNL     1      11.634   4.112  22.258  0.00  0.00    +0.146 HD
ENDBRANCH  13  14
ENDBRANCH  12  13
ENDBRANCH  11  12
ENDBRANCH   1  11
TORSDOF 7
ENDMDL
MODEL 6
REMARK VINA RESULT:      -5.0      1.796      1.946
REMARK  Name = 
REMARK  8 active torsions:
REMARK  status: ('A' for Active; 'I' for Inactive)
REMARK    1  A    between atoms: C_1  and  C_2
REMARK    2  A    between atoms: N_4  and  CA_5
REMARK    3  A    between atoms: CA_5  and  C_7
REMARK    4  A    between atoms: CA_5  and  C_14
REMARK    5  A    between atoms: C_7  and  C_8
REMARK    6  A    between atoms: C_8  and  C_9
REMARK    7  A    between atoms: C_9  and  N_10
REMARK    8  A    between atoms: C_14  and  O_15
REMARK                            x       y       z     vdW  Elec       q    Type
REMARK                         _______ _______ _______ _____ _____    ______ ____
ROOT
ATOM      1  CA  UNL     1       8.452  -1.514  23.064  0.00  0.00    +0.182 C 
ENDROOT
BRANCH   1   4
ATOM      2  C   UNL     1       7.901   2.013  21.746  0.00  0.00    +0.109 C 
ATOM      3  C   UNL     1       8.141   0.908  22.739  0.00  0.00    +0.211 C 
ATOM      4  N   UNL     1       8.350  -0.337  22.174  0.00  0.00    -0.303 N 
ATOM      5  H   UNL     1       7.992  -0.483  21.234  0.00  0.00    +0.149 HD
ATOM      6  O   UNL     1       8.204   1.111  23.945  0.00  0.00    -0.276 OA
ENDBRANCH   1   4
BRANCH   1   7
ATOM      7  C   UNL     1       9.885  -2.084  23.030  0.00  0.00    +0.325 C 
ATOM      8  OXT UNL     1      10.314  -2.922  23.811  0.00  0.00    -0.249 OA
BRANCH   7   9
ATOM      9  O   UNL     1      10.591  -1.676  21.946  0.00  0.00    -0.479 OA
ATOM     10  H   UNL     1      10.010  -1.143  21.369  0.00  0.00    +0.295 HD
ENDBRANCH   7   9
ENDBRANCH   1   7
BRANCH   1  11
ATOM     11  C   UNL     1       7.439  -2.583  22.630  0.00  0.00    +0.035 C 
BRANCH  11  12
ATOM     12  C   UNL     1       6.615  -3.213  23.760  0.00  0.00    +0.021 C 
BRANCH  12  13
ATOM     13  C   UNL     1       6.913  -4.693  23.994  0.00  0.00    +0.106 C 
BRANCH  13  14
ATOM     14  N   UNL     1       8.302  -4.900  24.341  0.00  0.00    -0.300 N 
ATOM     15  H   UNL     1       8.960  -4.981  23.579  0.00  0.00    +0.150 HD
ATOM     16  C   UNL     1       8.672  -5.439  25.533  0.00  0.00    +0.297 C 
ATOM     17  O   UNL     1       7.919  -5.715  26.456  0.00  0.00    -0.253 OA
ATOM     18  N   UNL     1      10.010  -5.650  25.609  0.00  0.00    -0.313 N 
ATOM     19  H   UNL     1      10.332  -5.909  26.532  0.00  0.00    +0.146 HD
ATOM     20  H   UNL     1      10.614  -5.026  25.096  0.00  0.00    +0.146 HD
ENDBRANCH  13  14
ENDBRANCH  12  13
ENDBRANCH  11  12
ENDBRANCH   1  11
TORSDOF 7
ENDMDL
MODEL 7
REMARK VINA RESULT:      -5.0      2.069      5.350
REMARK  Name = 
REMARK  8 active torsions:
REMARK  status: ('A' for Active; 'I' for Inactive)
REMARK    1  A    between atoms: C_1  and  C_2
REMARK    2  A    between atoms: N_4  and  CA_5
REMARK    3  A    between atoms: CA_5  and  C_7
REMARK    4  A    between atoms: CA_5  and  C_14
REMARK    5  A    between atoms: C_7  and  C_8
REMARK    6  A    between atoms: C_8  and  C_9
REMARK    7  A    between atoms: C_9  and  N_10
REMARK    8  A    between atoms: C_14  and  O_15
REMARK                            x       y       z     vdW  Elec       q    Type
REMARK                         _______ _______ _______ _____ _____    ______ ____
ROOT
ATOM      1  CA  UNL     1       8.538  -2.206  22.878  0.00  0.00    +0.182 C 
ENDROOT
BRANCH   1   4
ATOM      2  C   UNL     1       8.872  -5.167  25.245  0.00  0.00    +0.109 C 
ATOM      3  C   UNL     1       8.421  -4.368  24.052  0.00  0.00    +0.211 C 
ATOM      4  N   UNL     1       9.017  -3.126  23.932  0.00  0.00    -0.303 N 
ATOM      5  H   UNL     1       9.405  -2.718  24.779  0.00  0.00    +0.149 HD
ATOM      6  O   UNL     1       7.633  -4.811  23.225  0.00  0.00    -0.276 OA
ENDBRANCH   1   4
BRANCH   1   7
ATOM      7  C   UNL     1       9.736  -1.572  22.141  0.00  0.00    +0.325 C 
ATOM      8  OXT UNL     1      10.908  -1.834  22.373  0.00  0.00    -0.249 OA
BRANCH   7   9
ATOM      9  O   UNL     1       9.362  -0.797  21.092  0.00  0.00    -0.479 OA
ATOM     10  H   UNL     1       8.387  -0.725  21.081  0.00  0.00    +0.295 HD
ENDBRANCH   7   9
ENDBRANCH   1   7
BRANCH   1  11
ATOM     11  C   UNL     1       7.655  -1.115  23.502  0.00  0.00    +0.035 C 
BRANCH  11  12
ATOM     12  C   UNL     1       8.262  -0.379  24.703  0.00  0.00    +0.021 C 
BRANCH  12  13
ATOM     13  C   UNL     1       8.262   1.142  24.564  0.00  0.00    +0.106 C 
BRANCH  13  14
ATOM     14  N   UNL     1       8.674   1.547  23.238  0.00  0.00    -0.300 N 
ATOM     15  H   UNL     1       8.165   1.156  22.457  0.00  0.00    +0.150 HD
ATOM     16  C   UNL     1       9.928   2.009  22.984  0.00  0.00    +0.297 C 
ATOM     17  O   UNL     1      10.793   2.220  23.821  0.00  0.00    -0.253 OA
ATOM     18  N   UNL     1      10.139   2.224  21.661  0.00  0.00    -0.313 N 
ATOM     19  H   UNL     1      11.004   2.706  21.459  0.00  0.00    +0.146 HD
ATOM     20  H   UNL     1       9.347   2.494  21.097  0.00  0.00    +0.146 HD
ENDBRANCH  13  14
ENDBRANCH  12  13
ENDBRANCH  11  12
ENDBRANCH   1  11
TORSDOF 7
ENDMDL
MODEL 8
REMARK VINA RESULT:      -5.0      3.531      4.947
REMARK  Name = 
REMARK  8 active torsions:
REMARK  status: ('A' for Active; 'I' for Inactive)
REMARK    1  A    between atoms: C_1  and  C_2
REMARK    2  A    between atoms: N_4  and  CA_5
REMARK    3  A    between atoms: CA_5  and  C_7
REMARK    4  A    between atoms: CA_5  and  C_14
REMARK    5  A    between atoms: C_7  and  C_8
REMARK    6  A    between atoms: C_8  and  C_9
REMARK    7  A    between atoms: C_9  and  N_10
REMARK    8  A    between atoms: C_14  and  O_15
REMARK                            x       y       z     vdW  Elec       q    Type
REMARK                         _______ _______ _______ _____ _____    ______ ____
ROOT
ATOM      1  CA  UNL     1       8.490  -2.449  22.912  0.00  0.00    +0.182 C 
ENDROOT
BRANCH   1   4
ATOM      2  C   UNL     1       9.448  -4.711  25.818  0.00  0.00    +0.109 C 
ATOM      3  C   UNL     1       8.916  -4.310  24.468  0.00  0.00    +0.211 C 
ATOM      4  N   UNL     1       9.102  -2.977  24.150  0.00  0.00    -0.303 N 
ATOM      5  H   UNL     1       9.238  -2.332  24.925  0.00  0.00    +0.149 HD
ATOM      6  O   UNL     1       8.413  -5.115  23.695  0.00  0.00    -0.276 OA
ENDBRANCH   1   4
BRANCH   1   7
ATOM      7  C   UNL     1       9.516  -1.602  22.130  0.00  0.00    +0.325 C 
ATOM      8  OXT UNL     1       9.226  -0.655  21.412  0.00  0.00    -0.249 OA
BRANCH   7   9
ATOM      9  O   UNL     1      10.800  -1.914  22.434  0.00  0.00    -0.479 OA
ATOM     10  H   UNL     1      11.356  -1.116  22.330  0.00  0.00    +0.295 HD
ENDBRANCH   7   9
ENDBRANCH   1   7
BRANCH   1  11
ATOM     11  C   UNL     1       7.255  -1.606  23.261  0.00  0.00    +0.035 C 
BRANCH  11  12
ATOM     12  C   UNL     1       5.912  -2.343  23.201  0.00  0.00    +0.021 C 
BRANCH  12  13
ATOM     13  C   UNL     1       5.752  -3.244  21.977  0.00  0.00    +0.106 C 
BRANCH  13  14
ATOM     14  N   UNL     1       5.882  -4.640  22.334  0.00  0.00    -0.300 N 
ATOM     15  H   UNL     1       6.219  -4.849  23.263  0.00  0.00    +0.150 HD
ATOM     16  C   UNL     1       6.028  -5.611  21.393  0.00  0.00    +0.297 C 
ATOM     17  O   UNL     1       5.976  -5.447  20.184  0.00  0.00    -0.253 OA
ATOM     18  N   UNL     1       6.246  -6.832  21.944  0.00  0.00    -0.313 N 
ATOM     19  H   UNL     1       6.210  -7.593  21.280  0.00  0.00    +0.146 HD
ATOM     20  H   UNL     1       5.834  -7.020  22.846  0.00  0.00    +0.146 HD
ENDBRANCH  13  14
ENDBRANCH  12  13
ENDBRANCH  11  12
ENDBRANCH   1  11
TORSDOF 7
ENDMDL
MODEL 9
REMARK VINA RESULT:      -5.0      4.442      5.482
REMARK  Name = 
REMARK  8 active torsions:
REMARK  status: ('A' for Active; 'I' for Inactive)
REMARK    1  A    between atoms: C_1  and  C_2
REMARK    2  A    between atoms: N_4  and  CA_5
REMARK    3  A    between atoms: CA_5  and  C_7
REMARK    4  A    between atoms: CA_5  and  C_14
REMARK    5  A    between atoms: C_7  and  C_8
REMARK    6  A    between atoms: C_8  and  C_9
REMARK    7  A    between atoms: C_9  and  N_10
REMARK    8  A    between atoms: C_14  and  O_15
REMARK                            x       y       z     vdW  Elec       q    Type
REMARK                         _______ _______ _______ _____ _____    ______ ____
ROOT
ATOM      1  CA  UNL     1       7.411  -4.710  24.649  0.00  0.00    +0.182 C 
ENDROOT
BRANCH   1   4
ATOM      2  C   UNL     1       6.468  -5.678  21.091  0.00  0.00    +0.109 C 
ATOM      3  C   UNL     1       6.947  -4.821  22.233  0.00  0.00    +0.211 C 
ATOM      4  N   UNL     1       7.085  -5.489  23.435  0.00  0.00    -0.303 N 
ATOM      5  H   UNL     1       6.550  -6.347  23.551  0.00  0.00    +0.149 HD
ATOM      6  O   UNL     1       7.244  -3.642  22.088  0.00  0.00    -0.276 OA
ENDBRANCH   1   4
BRANCH   1   7
ATOM      7  C   UNL     1       8.664  -5.291  25.335  0.00  0.00    +0.325 C 
ATOM      8  OXT UNL     1       9.805  -5.164  24.913  0.00  0.00    -0.249 OA
BRANCH   7   9
ATOM      9  O   UNL     1       8.398  -5.838  26.548  0.00  0.00    -0.479 OA
ATOM     10  H   UNL     1       9.239  -6.099  26.971  0.00  0.00    +0.295 HD
ENDBRANCH   7   9
ENDBRANCH   1   7
BRANCH   1  11
ATOM     11  C   UNL     1       6.215  -4.727  25.614  0.00  0.00    +0.035 C 
BRANCH  11  12
ATOM     12  C   UNL     1       5.064  -5.663  25.225  0.00  0.00    +0.021 C 
BRANCH  12  13
ATOM     13  C   UNL     1       4.711  -6.691  26.298  0.00  0.00    +0.106 C 
BRANCH  13  14
ATOM     14  N   UNL     1       5.724  -6.742  27.329  0.00  0.00    -0.300 N 
ATOM     15  H   UNL     1       6.678  -6.896  27.032  0.00  0.00    +0.150 HD
ATOM     16  C   UNL     1       5.424  -7.058  28.617  0.00  0.00    +0.297 C 
ATOM     17  O   UNL     1       4.301  -7.237  29.064  0.00  0.00    -0.253 OA
ATOM     18  N   UNL     1       6.532  -7.160  29.393  0.00  0.00    -0.313 N 
ATOM     19  H   UNL     1       6.333  -7.245  30.381  0.00  0.00    +0.146 HD
ATOM     20  H   UNL     1       7.325  -6.583  29.157  0.00  0.00    +0.146 HD
ENDBRANCH  13  14
ENDBRANCH  12  13
ENDBRANCH  11  12
ENDBRANCH   1  11
TORSDOF 7
ENDMDL
