MODEL 1
REMARK VINA RESULT:      -3.1      0.000      0.000
REMARK  Name = 
REMARK  30 active torsions:
REMARK  status: ('A' for Active; 'I' for Inactive)
REMARK    1  A    between atoms: C_9  and  C_11
REMARK    2  A    between atoms: C_11  and  C_12
REMARK    3  A    between atoms: C_12  and  C_13
REMARK    4  A    between atoms: C_12  and  C_14
REMARK    5  A    between atoms: C_18  and  C_20
REMARK    6  A    between atoms: C_23  and  C_88
REMARK    7  A    between atoms: C_29  and  O_31
REMARK    8  A    between atoms: C_32  and  C_83
REMARK    9  A    between atoms: C_37  and  N_39
REMARK   10  A    between atoms: C_40  and  C_42
REMARK   11  A    between atoms: C_42  and  C_44
REMARK   12  A    between atoms: C_42  and  N_48
REMARK   13  A    between atoms: C_44  and  C_45
REMARK   14  A    between atoms: C_45  and  C_46
REMARK   15  A    between atoms: C_45  and  C_47
REMARK   16  A    between atoms: N_48  and  C_49
REMARK   17  A    between atoms: C_50  and  C_52
REMARK   18  A    between atoms: C_58  and  C_60
REMARK   19  A    between atoms: C_60  and  C_61
REMARK   20  A    between atoms: C_63  and  C_65
REMARK   21  A    between atoms: C_69  and  C_70
REMARK   22  A    between atoms: C_70  and  C_71
REMARK   23  A    between atoms: C_74  and  O_75
REMARK   24  A    between atoms: O_75  and  C_76
REMARK   25  A    between atoms: N_79  and  C_80
REMARK   26  A    between atoms: C_83  and  C_85
REMARK   27  A    between atoms: C_83  and  C_86
REMARK   28  A    between atoms: C_86  and  C_87
REMARK   29  A    between atoms: C_88  and  C_89
REMARK   30  A    between atoms: C_88  and  C_90
REMARK                            x       y       z     vdW  Elec       q    Type
REMARK                         _______ _______ _______ _____ _____    ______ ____
ROOT
ATOM      1  C   UNL     1       4.788   3.176  29.443  0.00  0.00    +0.162 C 
ATOM      2  C   UNL     1       5.968   1.710  29.260  0.00  0.00    +0.237 C 
ATOM      3  O   UNL     1       5.890   1.040  30.333  0.00  0.00    -0.274 OA
ATOM      4  N   UNL     1       7.226   1.381  28.526  0.00  0.00    -0.289 N 
ATOM      5  C   UNL     1       8.170   0.740  29.472  0.00  0.00    +0.133 C 
ATOM      6  C   UNL     1       7.740   0.822  26.994  0.00  0.00    +0.189 C 
ATOM      7  C   UNL     1       7.775  -0.768  26.643  0.00  0.00    +0.328 C 
ATOM      8  O   UNL     1       8.806  -1.359  27.012  0.00  0.00    -0.249 OA
ATOM      9  O   UNL     1       6.887  -1.542  25.949  0.00  0.00    -0.458 OA
ATOM     10  C   UNL     1       5.527  -1.481  25.393  0.00  0.00    +0.203 C 
ATOM     11  C   UNL     1       5.207  -2.529  24.278  0.00  0.00    +0.054 C 
ATOM     12  C   UNL     1       4.291  -1.523  26.370  0.00  0.00    +0.200 C 
ATOM     13  C   UNL     1       4.198  -0.646  27.619  0.00  0.00    +0.237 C 
ATOM     14  O   UNL     1       4.799  -0.908  28.658  0.00  0.00    -0.274 OA
ATOM     15  N   UNL     1       3.421   0.473  27.659  0.00  0.00    -0.308 N 
ATOM     16  H   UNL     1       3.559   0.850  28.586  0.00  0.00    +0.149 HD
ATOM     17  C   UNL     1       2.352   1.151  26.884  0.00  0.00    +0.105 C 
ATOM     18  C   UNL     1       2.542   1.443  25.295  0.00  0.00    +0.146 C 
ATOM     19  C   UNL     1       3.927   1.294  24.732  0.00  0.00    +0.153 C 
ATOM     20  C   UNL     1       4.975   1.682  25.721  0.00  0.00    +0.310 C 
ATOM     21  O   UNL     1       5.480   0.875  26.449  0.00  0.00    -0.251 OA
ATOM     22  O   UNL     1       5.439   2.958  25.764  0.00  0.00    -0.453 OA
ATOM     23  C   UNL     1       4.937   3.728  26.912  0.00  0.00    +0.245 C 
ATOM     24  C   UNL     1       3.645   4.229  25.984  0.00  0.00    +0.185 C 
ATOM     25  O   UNL     1       3.909   4.244  24.751  0.00  0.00    -0.293 OA
ATOM     26  C   UNL     1       2.061   4.751  26.345  0.00  0.00    +0.142 C 
ATOM     27  C   UNL     1       0.989   3.945  26.989  0.00  0.00    +0.025 C 
ATOM     28  C   UNL     1       1.581   6.151  26.698  0.00  0.00    +0.224 C 
ATOM     29  O   UNL     1       0.445   6.479  27.037  0.00  0.00    -0.275 OA
ATOM     30  N   UNL     1       2.493   7.108  26.609  0.00  0.00    -0.303 N 
ATOM     31  H   UNL     1       2.223   8.064  26.832  0.00  0.00    +0.149 HD
ATOM     32  C   UNL     1       3.798   6.730  26.259  0.00  0.00    +0.159 C 
ATOM     33  C   UNL     1       3.734   5.969  28.050  0.00  0.00    +0.237 C 
ATOM     34  O   UNL     1       3.515   6.827  28.954  0.00  0.00    -0.274 OA
ATOM     35  N   UNL     1       3.643   4.427  28.710  0.00  0.00    -0.288 N 
ATOM     36  C   UNL     1       2.682   4.523  29.844  0.00  0.00    +0.109 C 
ATOM     37  C   UNL     1       2.423   3.107  30.326  0.00  0.00    +0.021 C 
ATOM     38  C   UNL     1       3.786   2.500  30.485  0.00  0.00    +0.033 C 
ENDROOT
BRANCH  12  39
ATOM     39  N   UNL     1       3.890  -2.812  26.884  0.00  0.00    -0.299 N 
ATOM     40  H   UNL     1       3.024  -2.844  27.407  0.00  0.00    +0.150 HD
ATOM     41  C   UNL     1       4.847  -3.684  27.343  0.00  0.00    +0.234 C 
ATOM     42  O   UNL     1       6.050  -3.563  27.135  0.00  0.00    -0.274 OA
BRANCH  41  43
ATOM     43  C   UNL     1       4.231  -4.939  27.927  0.00  0.00    +0.162 C 
BRANCH  43  44
ATOM     44  N   UNL     1       2.834  -5.203  27.533  0.00  0.00    -0.291 N 
ATOM     45  C   UNL     1       2.657  -6.016  26.431  0.00  0.00    +0.236 C 
ATOM     46  O   UNL     1       3.619  -6.410  25.758  0.00  0.00    -0.274 OA
ATOM     47  C   UNL     1       1.724  -4.399  28.074  0.00  0.00    +0.133 C 
BRANCH  45  48
ATOM     48  C   UNL     1       1.226  -6.499  26.097  0.00  0.00    +0.162 C 
ATOM     49  N   UNL     1       1.314  -7.675  25.236  0.00  0.00    -0.284 N 
ATOM     50  C   UNL     1       1.580  -7.690  23.903  0.00  0.00    +0.282 C 
ATOM     51  O   UNL     1       1.711  -8.742  23.281  0.00  0.00    -0.267 OA
ATOM     52  C   UNL     1       1.316  -8.892  26.023  0.00  0.00    +0.109 C 
ATOM     53  C   UNL     1       1.158  -8.451  27.479  0.00  0.00    +0.021 C 
ATOM     54  C   UNL     1       0.576  -7.045  27.376  0.00  0.00    +0.033 C 
BRANCH  50  55
ATOM     55  C   UNL     1       1.701  -6.377  23.092  0.00  0.00    +0.214 C 
ATOM     56  O   UNL     1       2.772  -6.010  22.622  0.00  0.00    -0.287 OA
ATOM     57  C   UNL     1       0.444  -5.572  22.892  0.00  0.00    +0.096 C 
ENDBRANCH  50  55
ENDBRANCH  45  48
ENDBRANCH  43  44
BRANCH  43  58
ATOM     58  C   UNL     1       4.538  -4.816  29.448  0.00  0.00    +0.035 C 
BRANCH  58  59
ATOM     59  C   UNL     1       4.727  -6.150  30.212  0.00  0.00    -0.015 C 
ATOM     60  C   UNL     1       5.841  -6.977  29.582  0.00  0.00    +0.007 C 
ATOM     61  C   UNL     1       3.453  -6.971  30.297  0.00  0.00    +0.007 C 
ENDBRANCH  58  59
ENDBRANCH  43  58
ENDBRANCH  41  43
ENDBRANCH  12  39
BRANCH  23  62
ATOM     62  C   UNL     1       6.303   4.692  27.732  0.00  0.00    +0.031 C 
ATOM     63  C   UNL     1       7.154   5.861  27.048  0.00  0.00    +0.011 C 
ATOM     64  C   UNL     1       7.583   4.071  28.492  0.00  0.00    +0.011 C 
ENDBRANCH  23  62
BRANCH  17  65
ATOM     65  C   UNL     1       1.002   0.471  27.302  0.00  0.00    +0.008 C 
ATOM     66  C   UNL     1       0.589  -0.848  26.638  0.00  0.00    +0.009 C 
BRANCH  65  67
ATOM     67  C   UNL     1       1.030   0.350  28.816  0.00  0.00    +0.002 C 
ATOM     68  C   UNL     1       0.701  -0.979  29.413  0.00  0.00    +0.004 C 
ENDBRANCH  65  67
ENDBRANCH  17  65
BRANCH  18  69
ATOM     69  O   UNL     1       2.043   2.659  24.770  0.00  0.00    -0.389 OA
ATOM     70  H   UNL     1       1.059   2.703  24.864  0.00  0.00    +0.210 HD
ENDBRANCH  18  69
BRANCH  32  71
ATOM     71  C   UNL     1       3.320   6.883  24.447  0.00  0.00    +0.034 C 
BRANCH  71  72
ATOM     72  C   UNL     1       2.193   6.424  23.173  0.00  0.00    -0.015 C 
ATOM     73  C   UNL     1       0.648   6.615  23.188  0.00  0.00    +0.007 C 
ATOM     74  C   UNL     1       2.431   5.177  22.255  0.00  0.00    +0.007 C 
ENDBRANCH  71  72
ENDBRANCH  32  71
BRANCH   6  75
ATOM     75  C   UNL     1       7.749   1.862  25.825  0.00  0.00    +0.069 C 
BRANCH  75  76
ATOM     76  C   UNL     1       8.627   2.434  24.733  0.00  0.00    -0.045 A 
ATOM     77  C   UNL     1       9.681   1.600  24.276  0.00  0.00    +0.007 A 
ATOM     78  C   UNL     1      10.824   2.099  23.650  0.00  0.00    +0.046 A 
ATOM     79  C   UNL     1      10.941   3.462  23.439  0.00  0.00    +0.120 A 
ATOM     80  C   UNL     1       9.904   4.301  23.880  0.00  0.00    +0.046 A 
ATOM     81  C   UNL     1       8.761   3.802  24.530  0.00  0.00    +0.007 A 
BRANCH  79  82
ATOM     82  O   UNL     1      11.983   4.092  22.827  0.00  0.00    -0.495 OA
ATOM     83  C   UNL     1      12.765   5.039  23.548  0.00  0.00    +0.277 C 
ENDBRANCH  79  82
ENDBRANCH  75  76
ENDBRANCH   6  75
TORSDOF 16
ENDMDL
MODEL 2
REMARK VINA RESULT:      -2.7      1.708      2.977
REMARK  Name = 
REMARK  30 active torsions:
REMARK  status: ('A' for Active; 'I' for Inactive)
REMARK    1  A    between atoms: C_9  and  C_11
REMARK    2  A    between atoms: C_11  and  C_12
REMARK    3  A    between atoms: C_12  and  C_13
REMARK    4  A    between atoms: C_12  and  C_14
REMARK    5  A    between atoms: C_18  and  C_20
REMARK    6  A    between atoms: C_23  and  C_88
REMARK    7  A    between atoms: C_29  and  O_31
REMARK    8  A    between atoms: C_32  and  C_83
REMARK    9  A    between atoms: C_37  and  N_39
REMARK   10  A    between atoms: C_40  and  C_42
REMARK   11  A    between atoms: C_42  and  C_44
REMARK   12  A    between atoms: C_42  and  N_48
REMARK   13  A    between atoms: C_44  and  C_45
REMARK   14  A    between atoms: C_45  and  C_46
REMARK   15  A    between atoms: C_45  and  C_47
REMARK   16  A    between atoms: N_48  and  C_49
REMARK   17  A    between atoms: C_50  and  C_52
REMARK   18  A    between atoms: C_58  and  C_60
REMARK   19  A    between atoms: C_60  and  C_61
REMARK   20  A    between atoms: C_63  and  C_65
REMARK   21  A    between atoms: C_69  and  C_70
REMARK   22  A    between atoms: C_70  and  C_71
REMARK   23  A    between atoms: C_74  and  O_75
REMARK   24  A    between atoms: O_75  and  C_76
REMARK   25  A    between atoms: N_79  and  C_80
REMARK   26  A    between atoms: C_83  and  C_85
REMARK   27  A    between atoms: C_83  and  C_86
REMARK   28  A    between atoms: C_86  and  C_87
REMARK   29  A    between atoms: C_88  and  C_89
REMARK   30  A    between atoms: C_88  and  C_90
REMARK                            x       y       z     vdW  Elec       q    Type
REMARK                         _______ _______ _______ _____ _____    ______ ____
ROOT
ATOM      1  C   UNL     1       5.108   3.075  29.432  0.00  0.00    +0.162 C 
ATOM      2  C   UNL     1       6.333   1.692  29.032  0.00  0.00    +0.237 C 
ATOM      3  O   UNL     1       6.372   0.931  30.045  0.00  0.00    -0.274 OA
ATOM      4  N   UNL     1       7.541   1.490  28.178  0.00  0.00    -0.289 N 
ATOM      5  C   UNL     1       8.586   0.822  28.990  0.00  0.00    +0.133 C 
ATOM      6  C   UNL     1       7.954   1.088  26.568  0.00  0.00    +0.189 C 
ATOM      7  C   UNL     1       8.031  -0.463  26.078  0.00  0.00    +0.328 C 
ATOM      8  O   UNL     1       9.114  -1.029  26.313  0.00  0.00    -0.249 OA
ATOM      9  O   UNL     1       7.125  -1.220  25.389  0.00  0.00    -0.458 OA
ATOM     10  C   UNL     1       5.724  -1.183  24.946  0.00  0.00    +0.203 C 
ATOM     11  C   UNL     1       5.361  -2.149  23.772  0.00  0.00    +0.054 C 
ATOM     12  C   UNL     1       4.573  -1.370  26.008  0.00  0.00    +0.200 C 
ATOM     13  C   UNL     1       4.543  -0.606  27.332  0.00  0.00    +0.237 C 
ATOM     14  O   UNL     1       5.237  -0.923  28.295  0.00  0.00    -0.274 OA
ATOM     15  N   UNL     1       3.723   0.465  27.530  0.00  0.00    -0.308 N 
ATOM     16  H   UNL     1       3.918   0.769  28.473  0.00  0.00    +0.149 HD
ATOM     17  C   UNL     1       2.566   1.150  26.901  0.00  0.00    +0.105 C 
ATOM     18  C   UNL     1       2.614   1.582  25.334  0.00  0.00    +0.146 C 
ATOM     19  C   UNL     1       3.954   1.552  24.655  0.00  0.00    +0.153 C 
ATOM     20  C   UNL     1       5.060   1.910  25.591  0.00  0.00    +0.310 C 
ATOM     21  O   UNL     1       5.657   1.071  26.204  0.00  0.00    -0.251 OA
ATOM     22  O   UNL     1       5.469   3.199  25.709  0.00  0.00    -0.453 OA
ATOM     23  C   UNL     1       5.027   3.844  26.955  0.00  0.00    +0.245 C 
ATOM     24  C   UNL     1       3.644   4.354  26.177  0.00  0.00    +0.185 C 
ATOM     25  O   UNL     1       3.807   4.486  24.933  0.00  0.00    -0.293 OA
ATOM     26  C   UNL     1       2.073   4.762  26.702  0.00  0.00    +0.142 C 
ATOM     27  C   UNL     1       1.093   3.852  27.354  0.00  0.00    +0.025 C 
ATOM     28  C   UNL     1       1.561   6.102  27.211  0.00  0.00    +0.224 C 
ATOM     29  O   UNL     1       0.443   6.341  27.664  0.00  0.00    -0.275 OA
ATOM     30  N   UNL     1       2.419   7.108  27.137  0.00  0.00    -0.303 N 
ATOM     31  H   UNL     1       2.126   8.027  27.463  0.00  0.00    +0.149 HD
ATOM     32  C   UNL     1       3.708   6.828  26.656  0.00  0.00    +0.159 C 
ATOM     33  C   UNL     1       3.823   5.918  28.374  0.00  0.00    +0.237 C 
ATOM     34  O   UNL     1       3.639   6.685  29.364  0.00  0.00    -0.274 OA
ATOM     35  N   UNL     1       3.853   4.323  28.902  0.00  0.00    -0.288 N 
ATOM     36  C   UNL     1       2.983   4.275  30.110  0.00  0.00    +0.109 C 
ATOM     37  C   UNL     1       2.827   2.812  30.485  0.00  0.00    +0.021 C 
ATOM     38  C   UNL     1       4.225   2.264  30.485  0.00  0.00    +0.033 C 
ENDROOT
BRANCH  12  39
ATOM     39  N   UNL     1       4.273  -2.716  26.436  0.00  0.00    -0.299 N 
ATOM     40  H   UNL     1       5.062  -3.311  26.651  0.00  0.00    +0.150 HD
ATOM     41  C   UNL     1       3.212  -3.383  25.873  0.00  0.00    +0.234 C 
ATOM     42  O   UNL     1       2.337  -2.849  25.200  0.00  0.00    -0.274 OA
BRANCH  41  43
ATOM     43  C   UNL     1       3.113  -4.808  26.377  0.00  0.00    +0.162 C 
BRANCH  43  44
ATOM     44  N   UNL     1       4.362  -5.592  26.318  0.00  0.00    -0.291 N 
ATOM     45  C   UNL     1       5.209  -5.308  25.265  0.00  0.00    +0.236 C 
ATOM     46  O   UNL     1       4.883  -4.514  24.372  0.00  0.00    -0.274 OA
ATOM     47  C   UNL     1       4.538  -6.808  27.131  0.00  0.00    +0.133 C 
BRANCH  45  48
ATOM     48  C   UNL     1       6.619  -5.941  25.265  0.00  0.00    +0.162 C 
ATOM     49  N   UNL     1       7.510  -5.109  24.461  0.00  0.00    -0.284 N 
ATOM     50  C   UNL     1       7.579  -5.067  23.104  0.00  0.00    +0.282 C 
ATOM     51  O   UNL     1       8.312  -4.272  22.519  0.00  0.00    -0.267 OA
ATOM     52  C   UNL     1       8.181  -4.124  25.286  0.00  0.00    +0.109 C 
ATOM     53  C   UNL     1       7.723  -4.395  26.719  0.00  0.00    +0.021 C 
ATOM     54  C   UNL     1       7.212  -5.831  26.677  0.00  0.00    +0.033 C 
BRANCH  50  55
ATOM     55  C   UNL     1       6.761  -6.043  22.225  0.00  0.00    +0.214 C 
ATOM     56  O   UNL     1       6.642  -7.227  22.522  0.00  0.00    -0.287 OA
ATOM     57  C   UNL     1       6.104  -5.477  20.993  0.00  0.00    +0.096 C 
ENDBRANCH  50  55
ENDBRANCH  45  48
ENDBRANCH  43  44
BRANCH  43  58
ATOM     58  C   UNL     1       1.874  -5.372  25.622  0.00  0.00    +0.035 C 
BRANCH  58  59
ATOM     59  C   UNL     1       2.170  -6.418  24.518  0.00  0.00    -0.015 C 
ATOM     60  C   UNL     1       2.072  -5.783  23.136  0.00  0.00    +0.007 C 
ATOM     61  C   UNL     1       1.268  -7.636  24.598  0.00  0.00    +0.007 C 
ENDBRANCH  58  59
ENDBRANCH  43  58
ENDBRANCH  41  43
ENDBRANCH  12  39
BRANCH  23  62
ATOM     62  C   UNL     1       6.411   4.805  27.749  0.00  0.00    +0.031 C 
ATOM     63  C   UNL     1       6.610   5.019  29.322  0.00  0.00    +0.011 C 
ATOM     64  C   UNL     1       6.851   6.315  27.389  0.00  0.00    +0.011 C 
ENDBRANCH  23  62
BRANCH  17  65
ATOM     65  C   UNL     1       1.285   0.369  27.360  0.00  0.00    +0.008 C 
ATOM     66  C   UNL     1       0.762  -0.786  26.498  0.00  0.00    +0.009 C 
BRANCH  65  67
ATOM     67  C   UNL     1       1.538  -0.072  28.791  0.00  0.00    +0.002 C 
ATOM     68  C   UNL     1       1.298  -1.507  29.129  0.00  0.00    +0.004 C 
ENDBRANCH  65  67
ENDBRANCH  17  65
BRANCH  18  69
ATOM     69  O   UNL     1       2.020   2.811  24.956  0.00  0.00    -0.389 OA
ATOM     70  H   UNL     1       2.701   3.432  24.595  0.00  0.00    +0.210 HD
ENDBRANCH  18  69
BRANCH  32  71
ATOM     71  C   UNL     1       3.079   7.107  24.906  0.00  0.00    +0.034 C 
BRANCH  71  72
ATOM     72  C   UNL     1       2.327   6.402  23.477  0.00  0.00    -0.015 C 
ATOM     73  C   UNL     1       2.968   6.265  22.065  0.00  0.00    +0.007 C 
ATOM     74  C   UNL     1       0.787   6.498  23.209  0.00  0.00    +0.007 C 
ENDBRANCH  71  72
ENDBRANCH  32  71
BRANCH   6  75
ATOM     75  C   UNL     1       7.823   2.222  25.497  0.00  0.00    +0.069 C 
BRANCH  75  76
ATOM     76  C   UNL     1       8.639   3.167  24.643  0.00  0.00    -0.045 A 
ATOM     77  C   UNL     1       9.723   2.589  23.930  0.00  0.00    +0.007 A 
ATOM     78  C   UNL     1      10.820   3.331  23.491  0.00  0.00    +0.046 A 
ATOM     79  C   UNL     1      10.859   4.693  23.733  0.00  0.00    +0.120 A 
ATOM     80  C   UNL     1       9.792   5.282  24.432  0.00  0.00    +0.046 A 
ATOM     81  C   UNL     1       8.695   4.532  24.895  0.00  0.00    +0.007 A 
BRANCH  79  82
ATOM     82  O   UNL     1      11.849   5.548  23.351  0.00  0.00    -0.495 OA
ATOM     83  C   UNL     1      13.130   5.039  22.994  0.00  0.00    +0.277 C 
ENDBRANCH  79  82
ENDBRANCH  75  76
ENDBRANCH   6  75
TORSDOF 16
ENDMDL
