MODEL 1
REMARK VINA RESULT:      -5.0      0.000      0.000
REMARK  Name = 
REMARK  11 active torsions:
REMARK  status: ('A' for Active; 'I' for Inactive)
REMARK    1  A    between atoms: C_2  and  CA_4
REMARK    2  A    between atoms: CA_4  and  N_6
REMARK    3  A    between atoms: CA_4  and  C_10
REMARK    4  A    between atoms: C_7  and  C_8
REMARK    5  A    between atoms: C_10  and  O_12
REMARK    6  A    between atoms: C_10  and  C_13
REMARK    7  A    between atoms: C_13  and  O_15
REMARK    8  A    between atoms: C_13  and  C_16
REMARK    9  A    between atoms: C_16  and  O_18
REMARK   10  A    between atoms: C_16  and  C_19
REMARK   11  A    between atoms: C_19  and  O_20
REMARK                            x       y       z     vdW  Elec       q    Type
REMARK                         _______ _______ _______ _____ _____    ______ ____
ROOT
ATOM      1  C   UNL     1       7.693  -4.095  23.979  0.00  0.00    +0.173 C 
ENDROOT
BRANCH   1   2
ATOM      2  O   UNL     1       8.147  -5.247  23.241  0.00  0.00    -0.387 OA
ATOM      3  H   UNL     1       8.697  -5.810  23.825  0.00  0.00    +0.210 HD
ENDBRANCH   1   2
BRANCH   1   4
ATOM      4  CA  UNL     1       7.171  -3.003  23.014  0.00  0.00    +0.167 C 
BRANCH   4   5
ATOM      5  N   UNL     1       8.260  -2.283  22.331  0.00  0.00    -0.304 N 
ATOM      6  H   UNL     1       8.937  -2.851  21.822  0.00  0.00    +0.149 HD
ATOM      7  C   UNL     1       8.423  -0.928  22.395  0.00  0.00    +0.211 C 
ATOM      8  O   UNL     1       7.681  -0.212  23.062  0.00  0.00    -0.276 OA
ATOM      9  C   UNL     1       9.615  -0.395  21.652  0.00  0.00    +0.109 C 
ENDBRANCH   4   5
BRANCH   4  10
ATOM     10  C   UNL     1       6.322  -3.595  21.901  0.00  0.00    +0.248 C 
ATOM     11  O   UNL     1       5.379  -4.360  22.094  0.00  0.00    -0.299 OA
ENDBRANCH   4  10
ENDBRANCH   1   4
BRANCH   1  12
ATOM     12  C   UNL     1       8.873  -3.644  24.889  0.00  0.00    +0.176 C 
BRANCH  12  13
ATOM     13  O   UNL     1      10.104  -3.595  24.148  0.00  0.00    -0.387 OA
ATOM     14  H   UNL     1       9.985  -3.046  23.356  0.00  0.00    +0.210 HD
ENDBRANCH  12  13
BRANCH  12  15
ATOM     15  C   UNL     1       9.042  -4.606  26.094  0.00  0.00    +0.171 C 
BRANCH  15  16
ATOM     16  O   UNL     1       9.663  -5.816  25.651  0.00  0.00    -0.387 OA
ATOM     17  H   UNL     1      10.021  -6.252  26.446  0.00  0.00    +0.210 HD
ENDBRANCH  15  16
BRANCH  15  18
ATOM     18  C   UNL     1       7.699  -4.956  26.759  0.00  0.00    +0.189 C 
BRANCH  18  19
ATOM     19  O   UNL     1       7.780  -6.049  27.662  0.00  0.00    -0.392 OA
ATOM     20  H   UNL     1       7.650  -5.691  28.565  0.00  0.00    +0.210 HD
ENDBRANCH  18  19
ENDBRANCH  15  18
ENDBRANCH  12  15
ENDBRANCH   1  12
TORSDOF 10
ENDMDL
MODEL 2
REMARK VINA RESULT:      -4.8      5.403      8.010
REMARK  Name = 
REMARK  11 active torsions:
REMARK  status: ('A' for Active; 'I' for Inactive)
REMARK    1  A    between atoms: C_2  and  CA_4
REMARK    2  A    between atoms: CA_4  and  N_6
REMARK    3  A    between atoms: CA_4  and  C_10
REMARK    4  A    between atoms: C_7  and  C_8
REMARK    5  A    between atoms: C_10  and  O_12
REMARK    6  A    between atoms: C_10  and  C_13
REMARK    7  A    between atoms: C_13  and  O_15
REMARK    8  A    between atoms: C_13  and  C_16
REMARK    9  A    between atoms: C_16  and  O_18
REMARK   10  A    between atoms: C_16  and  C_19
REMARK   11  A    between atoms: C_19  and  O_20
REMARK                            x       y       z     vdW  Elec       q    Type
REMARK                         _______ _______ _______ _____ _____    ______ ____
ROOT
ATOM      1  C   UNL     1       9.398   3.497  23.591  0.00  0.00    +0.173 C 
ENDROOT
BRANCH   1   2
ATOM      2  O   UNL     1       8.428   3.750  22.555  0.00  0.00    -0.387 OA
ATOM      3  H   UNL     1       8.894   3.893  21.704  0.00  0.00    +0.210 HD
ENDBRANCH   1   2
BRANCH   1   4
ATOM      4  CA  UNL     1      10.200   4.782  23.909  0.00  0.00    +0.167 C 
BRANCH   4   5
ATOM      5  N   UNL     1      11.272   5.037  22.931  0.00  0.00    -0.304 N 
ATOM      6  H   UNL     1      11.098   4.735  21.972  0.00  0.00    +0.149 HD
ATOM      7  C   UNL     1      12.473   5.599  23.260  0.00  0.00    +0.211 C 
ATOM      8  O   UNL     1      12.757   5.904  24.414  0.00  0.00    -0.276 OA
ATOM      9  C   UNL     1      13.439   5.745  22.118  0.00  0.00    +0.109 C 
ENDBRANCH   4   5
BRANCH   4  10
ATOM     10  C   UNL     1       9.318   6.019  23.871  0.00  0.00    +0.248 C 
ATOM     11  O   UNL     1       8.849   6.493  22.838  0.00  0.00    -0.299 OA
ENDBRANCH   4  10
ENDBRANCH   1   4
BRANCH   1  12
ATOM     12  C   UNL     1      10.265   2.293  23.119  0.00  0.00    +0.176 C 
BRANCH  12  13
ATOM     13  O   UNL     1      10.271   2.195  21.686  0.00  0.00    -0.387 OA
ATOM     14  H   UNL     1      11.141   2.462  21.346  0.00  0.00    +0.210 HD
ENDBRANCH  12  13
BRANCH  12  15
ATOM     15  C   UNL     1       9.738   0.963  23.718  0.00  0.00    +0.171 C 
BRANCH  15  16
ATOM     16  O   UNL     1       9.973   0.953  25.129  0.00  0.00    -0.387 OA
ATOM     17  H   UNL     1       9.324   1.565  25.524  0.00  0.00    +0.210 HD
ENDBRANCH  15  16
BRANCH  15  18
ATOM     18  C   UNL     1      10.416  -0.271  23.097  0.00  0.00    +0.189 C 
BRANCH  18  19
ATOM     19  O   UNL     1       9.876  -0.642  21.836  0.00  0.00    -0.392 OA
ATOM     20  H   UNL     1       9.039  -0.145  21.721  0.00  0.00    +0.210 HD
ENDBRANCH  18  19
ENDBRANCH  15  18
ENDBRANCH  12  15
ENDBRANCH   1  12
TORSDOF 10
ENDMDL
MODEL 3
REMARK VINA RESULT:      -4.7      2.696      5.508
REMARK  Name = 
REMARK  11 active torsions:
REMARK  status: ('A' for Active; 'I' for Inactive)
REMARK    1  A    between atoms: C_2  and  CA_4
REMARK    2  A    between atoms: CA_4  and  N_6
REMARK    3  A    between atoms: CA_4  and  C_10
REMARK    4  A    between atoms: C_7  and  C_8
REMARK    5  A    between atoms: C_10  and  O_12
REMARK    6  A    between atoms: C_10  and  C_13
REMARK    7  A    between atoms: C_13  and  O_15
REMARK    8  A    between atoms: C_13  and  C_16
REMARK    9  A    between atoms: C_16  and  O_18
REMARK   10  A    between atoms: C_16  and  C_19
REMARK   11  A    between atoms: C_19  and  O_20
REMARK                            x       y       z     vdW  Elec       q    Type
REMARK                         _______ _______ _______ _____ _____    ______ ____
ROOT
ATOM      1  C   UNL     1      10.086  -1.524  23.937  0.00  0.00    +0.173 C 
ENDROOT
BRANCH   1   2
ATOM      2  O   UNL     1      10.568  -2.500  22.991  0.00  0.00    -0.387 OA
ATOM      3  H   UNL     1       9.963  -2.529  22.221  0.00  0.00    +0.210 HD
ENDBRANCH   1   2
BRANCH   1   4
ATOM      4  CA  UNL     1       8.664  -1.895  24.422  0.00  0.00    +0.167 C 
BRANCH   4   5
ATOM      5  N   UNL     1       8.336  -3.312  24.188  0.00  0.00    -0.304 N 
ATOM      6  H   UNL     1       8.594  -3.970  24.924  0.00  0.00    +0.149 HD
ATOM      7  C   UNL     1       7.766  -3.772  23.035  0.00  0.00    +0.211 C 
ATOM      8  O   UNL     1       7.513  -3.030  22.090  0.00  0.00    -0.276 OA
ATOM      9  C   UNL     1       7.542  -5.257  22.985  0.00  0.00    +0.109 C 
ENDBRANCH   4   5
BRANCH   4  10
ATOM     10  C   UNL     1       8.510  -1.691  25.921  0.00  0.00    +0.248 C 
ATOM     11  O   UNL     1       9.042  -0.774  26.544  0.00  0.00    -0.299 OA
ENDBRANCH   4  10
ENDBRANCH   1   4
BRANCH   1  12
ATOM     12  C   UNL     1      10.193  -0.132  23.249  0.00  0.00    +0.176 C 
BRANCH  12  13
ATOM     13  O   UNL     1      10.064   0.928  24.210  0.00  0.00    -0.387 OA
ATOM     14  H   UNL     1      10.273   0.590  25.096  0.00  0.00    +0.210 HD
ENDBRANCH  12  13
BRANCH  12  15
ATOM     15  C   UNL     1       9.101   0.032  22.160  0.00  0.00    +0.171 C 
BRANCH  15  16
ATOM     16  O   UNL     1       9.441  -0.767  21.023  0.00  0.00    -0.387 OA
ATOM     17  H   UNL     1       9.272  -1.694  21.274  0.00  0.00    +0.210 HD
ENDBRANCH  15  16
BRANCH  15  18
ATOM     18  C   UNL     1       8.940   1.494  21.704  0.00  0.00    +0.189 C 
BRANCH  18  19
ATOM     19  O   UNL     1      10.175   2.160  21.485  0.00  0.00    -0.392 OA
ATOM     20  H   UNL     1       9.982   3.120  21.431  0.00  0.00    +0.210 HD
ENDBRANCH  18  19
ENDBRANCH  15  18
ENDBRANCH  12  15
ENDBRANCH   1  12
TORSDOF 10
ENDMDL
MODEL 4
REMARK VINA RESULT:      -4.7      1.654      5.057
REMARK  Name = 
REMARK  11 active torsions:
REMARK  status: ('A' for Active; 'I' for Inactive)
REMARK    1  A    between atoms: C_2  and  CA_4
REMARK    2  A    between atoms: CA_4  and  N_6
REMARK    3  A    between atoms: CA_4  and  C_10
REMARK    4  A    between atoms: C_7  and  C_8
REMARK    5  A    between atoms: C_10  and  O_12
REMARK    6  A    between atoms: C_10  and  C_13
REMARK    7  A    between atoms: C_13  and  O_15
REMARK    8  A    between atoms: C_13  and  C_16
REMARK    9  A    between atoms: C_16  and  O_18
REMARK   10  A    between atoms: C_16  and  C_19
REMARK   11  A    between atoms: C_19  and  O_20
REMARK                            x       y       z     vdW  Elec       q    Type
REMARK                         _______ _______ _______ _____ _____    ______ ____
ROOT
ATOM      1  C   UNL     1       7.269  -2.427  22.264  0.00  0.00    +0.173 C 
ENDROOT
BRANCH   1   2
ATOM      2  O   UNL     1       5.967  -2.017  22.728  0.00  0.00    -0.387 OA
ATOM      3  H   UNL     1       5.676  -2.617  23.446  0.00  0.00    +0.210 HD
ENDBRANCH   1   2
BRANCH   1   4
ATOM      4  CA  UNL     1       7.556  -3.891  22.675  0.00  0.00    +0.167 C 
BRANCH   4   5
ATOM      5  N   UNL     1       7.411  -4.112  24.124  0.00  0.00    -0.304 N 
ATOM      6  H   UNL     1       6.661  -3.602  24.593  0.00  0.00    +0.149 HD
ATOM      7  C   UNL     1       8.250  -4.907  24.853  0.00  0.00    +0.211 C 
ATOM      8  O   UNL     1       9.214  -5.474  24.347  0.00  0.00    -0.276 OA
ATOM      9  C   UNL     1       7.946  -4.972  26.323  0.00  0.00    +0.109 C 
ENDBRANCH   4   5
BRANCH   4  10
ATOM     10  C   UNL     1       6.582  -4.860  22.022  0.00  0.00    +0.248 C 
ATOM     11  O   UNL     1       5.781  -4.537  21.146  0.00  0.00    -0.299 OA
ENDBRANCH   4  10
ENDBRANCH   1   4
BRANCH   1  12
ATOM     12  C   UNL     1       8.294  -1.389  22.808  0.00  0.00    +0.176 C 
BRANCH  12  13
ATOM     13  O   UNL     1       7.626  -0.218  23.304  0.00  0.00    -0.387 OA
ATOM     14  H   UNL     1       7.563  -0.265  24.272  0.00  0.00    +0.210 HD
ENDBRANCH  12  13
BRANCH  12  15
ATOM     15  C   UNL     1       9.299  -0.973  21.703  0.00  0.00    +0.171 C 
BRANCH  15  16
ATOM     16  O   UNL     1      10.507  -1.725  21.853  0.00  0.00    -0.387 OA
ATOM     17  H   UNL     1      11.239  -1.127  21.615  0.00  0.00    +0.210 HD
ENDBRANCH  15  16
BRANCH  15  18
ATOM     18  C   UNL     1       9.643   0.527  21.756  0.00  0.00    +0.189 C 
BRANCH  18  19
ATOM     19  O   UNL     1       8.800   1.332  20.943  0.00  0.00    -0.392 OA
ATOM     20  H   UNL     1       8.467   2.063  21.505  0.00  0.00    +0.210 HD
ENDBRANCH  18  19
ENDBRANCH  15  18
ENDBRANCH  12  15
ENDBRANCH   1  12
TORSDOF 10
ENDMDL
MODEL 5
REMARK VINA RESULT:      -4.7      2.060      5.349
REMARK  Name = 
REMARK  11 active torsions:
REMARK  status: ('A' for Active; 'I' for Inactive)
REMARK    1  A    between atoms: C_2  and  CA_4
REMARK    2  A    between atoms: CA_4  and  N_6
REMARK    3  A    between atoms: CA_4  and  C_10
REMARK    4  A    between atoms: C_7  and  C_8
REMARK    5  A    between atoms: C_10  and  O_12
REMARK    6  A    between atoms: C_10  and  C_13
REMARK    7  A    between atoms: C_13  and  O_15
REMARK    8  A    between atoms: C_13  and  C_16
REMARK    9  A    between atoms: C_16  and  O_18
REMARK   10  A    between atoms: C_16  and  C_19
REMARK   11  A    between atoms: C_19  and  O_20
REMARK                            x       y       z     vdW  Elec       q    Type
REMARK                         _______ _______ _______ _____ _____    ______ ____
ROOT
ATOM      1  C   UNL     1       7.350  -1.770  22.738  0.00  0.00    +0.173 C 
ENDROOT
BRANCH   1   2
ATOM      2  O   UNL     1       6.053  -1.160  22.888  0.00  0.00    -0.387 OA
ATOM      3  H   UNL     1       5.459  -1.486  22.180  0.00  0.00    +0.210 HD
ENDBRANCH   1   2
BRANCH   1   4
ATOM      4  CA  UNL     1       7.457  -3.043  23.612  0.00  0.00    +0.167 C 
BRANCH   4   5
ATOM      5  N   UNL     1       7.465  -4.280  22.813  0.00  0.00    -0.304 N 
ATOM      6  H   UNL     1       8.345  -4.796  22.776  0.00  0.00    +0.149 HD
ATOM      7  C   UNL     1       6.388  -4.723  22.099  0.00  0.00    +0.211 C 
ATOM      8  O   UNL     1       5.335  -4.094  22.049  0.00  0.00    -0.276 OA
ATOM      9  C   UNL     1       6.615  -5.992  21.327  0.00  0.00    +0.109 C 
ENDBRANCH   4   5
BRANCH   4  10
ATOM     10  C   UNL     1       8.751  -3.071  24.409  0.00  0.00    +0.248 C 
ATOM     11  O   UNL     1       9.806  -3.539  23.984  0.00  0.00    -0.299 OA
ENDBRANCH   4  10
ENDBRANCH   1   4
BRANCH   1  12
ATOM     12  C   UNL     1       8.408  -0.674  23.059  0.00  0.00    +0.176 C 
BRANCH  12  13
ATOM     13  O   UNL     1       7.774   0.544  23.481  0.00  0.00    -0.387 OA
ATOM     14  H   UNL     1       8.015   1.263  22.873  0.00  0.00    +0.210 HD
ENDBRANCH  12  13
BRANCH  12  15
ATOM     15  C   UNL     1       9.298  -0.384  21.823  0.00  0.00    +0.171 C 
BRANCH  15  16
ATOM     16  O   UNL     1      10.238  -1.450  21.655  0.00  0.00    -0.387 OA
ATOM     17  H   UNL     1      11.034  -1.201  22.161  0.00  0.00    +0.210 HD
ENDBRANCH  15  16
BRANCH  15  18
ATOM     18  C   UNL     1      10.072   0.940  21.953  0.00  0.00    +0.189 C 
BRANCH  18  19
ATOM     19  O   UNL     1       9.425   2.040  21.330  0.00  0.00    -0.392 OA
ATOM     20  H   UNL     1       9.866   2.856  21.648  0.00  0.00    +0.210 HD
ENDBRANCH  18  19
ENDBRANCH  15  18
ENDBRANCH  12  15
ENDBRANCH   1  12
TORSDOF 10
ENDMDL
MODEL 6
REMARK VINA RESULT:      -4.7      2.034      5.223
REMARK  Name = 
REMARK  11 active torsions:
REMARK  status: ('A' for Active; 'I' for Inactive)
REMARK    1  A    between atoms: C_2  and  CA_4
REMARK    2  A    between atoms: CA_4  and  N_6
REMARK    3  A    between atoms: CA_4  and  C_10
REMARK    4  A    between atoms: C_7  and  C_8
REMARK    5  A    between atoms: C_10  and  O_12
REMARK    6  A    between atoms: C_10  and  C_13
REMARK    7  A    between atoms: C_13  and  O_15
REMARK    8  A    between atoms: C_13  and  C_16
REMARK    9  A    between atoms: C_16  and  O_18
REMARK   10  A    between atoms: C_16  and  C_19
REMARK   11  A    between atoms: C_19  and  O_20
REMARK                            x       y       z     vdW  Elec       q    Type
REMARK                         _______ _______ _______ _____ _____    ______ ____
ROOT
ATOM      1  C   UNL     1       9.291  -1.986  23.520  0.00  0.00    +0.173 C 
ENDROOT
BRANCH   1   2
ATOM      2  O   UNL     1      10.504  -2.735  23.310  0.00  0.00    -0.387 OA
ATOM      3  H   UNL     1      10.329  -3.686  23.471  0.00  0.00    +0.210 HD
ENDBRANCH   1   2
BRANCH   1   4
ATOM      4  CA  UNL     1       8.052  -2.890  23.314  0.00  0.00    +0.167 C 
BRANCH   4   5
ATOM      5  N   UNL     1       7.663  -3.607  24.541  0.00  0.00    -0.304 N 
ATOM      6  H   UNL     1       6.978  -3.147  25.143  0.00  0.00    +0.149 HD
ATOM      7  C   UNL     1       8.205  -4.802  24.918  0.00  0.00    +0.211 C 
ATOM      8  O   UNL     1       9.088  -5.353  24.268  0.00  0.00    -0.276 OA
ATOM      9  C   UNL     1       7.692  -5.350  26.221  0.00  0.00    +0.109 C 
ENDBRANCH   4   5
BRANCH   4  10
ATOM     10  C   UNL     1       6.826  -2.083  22.915  0.00  0.00    +0.248 C 
ATOM     11  O   UNL     1       5.879  -2.546  22.282  0.00  0.00    -0.299 OA
ENDBRANCH   4  10
ENDBRANCH   1   4
BRANCH   1  12
ATOM     12  C   UNL     1       9.352  -0.747  22.579  0.00  0.00    +0.176 C 
BRANCH  12  13
ATOM     13  O   UNL     1       9.710  -1.135  21.242  0.00  0.00    -0.387 OA
ATOM     14  H   UNL     1      10.648  -1.387  21.218  0.00  0.00    +0.210 HD
ENDBRANCH  12  13
BRANCH  12  15
ATOM     15  C   UNL     1      10.376   0.294  23.099  0.00  0.00    +0.171 C 
BRANCH  15  16
ATOM     16  O   UNL     1      10.523   0.147  24.515  0.00  0.00    -0.387 OA
ATOM     17  H   UNL     1       9.672   0.409  24.912  0.00  0.00    +0.210 HD
ENDBRANCH  15  16
BRANCH  15  18
ATOM     18  C   UNL     1       9.950   1.741  22.795  0.00  0.00    +0.189 C 
BRANCH  18  19
ATOM     19  O   UNL     1       9.807   2.012  21.409  0.00  0.00    -0.392 OA
ATOM     20  H   UNL     1      10.700   2.215  21.058  0.00  0.00    +0.210 HD
ENDBRANCH  18  19
ENDBRANCH  15  18
ENDBRANCH  12  15
ENDBRANCH   1  12
TORSDOF 10
ENDMDL
MODEL 7
REMARK VINA RESULT:      -4.6      2.026      4.462
REMARK  Name = 
REMARK  11 active torsions:
REMARK  status: ('A' for Active; 'I' for Inactive)
REMARK    1  A    between atoms: C_2  and  CA_4
REMARK    2  A    between atoms: CA_4  and  N_6
REMARK    3  A    between atoms: CA_4  and  C_10
REMARK    4  A    between atoms: C_7  and  C_8
REMARK    5  A    between atoms: C_10  and  O_12
REMARK    6  A    between atoms: C_10  and  C_13
REMARK    7  A    between atoms: C_13  and  O_15
REMARK    8  A    between atoms: C_13  and  C_16
REMARK    9  A    between atoms: C_16  and  O_18
REMARK   10  A    between atoms: C_16  and  C_19
REMARK   11  A    between atoms: C_19  and  O_20
REMARK                            x       y       z     vdW  Elec       q    Type
REMARK                         _______ _______ _______ _____ _____    ______ ____
ROOT
ATOM      1  C   UNL     1       7.654  -3.283  24.916  0.00  0.00    +0.173 C 
ENDROOT
BRANCH   1   2
ATOM      2  O   UNL     1       8.104  -3.185  26.282  0.00  0.00    -0.387 OA
ATOM      3  H   UNL     1       9.082  -3.250  26.305  0.00  0.00    +0.210 HD
ENDBRANCH   1   2
BRANCH   1   4
ATOM      4  CA  UNL     1       6.513  -4.322  24.794  0.00  0.00    +0.167 C 
BRANCH   4   5
ATOM      5  N   UNL     1       6.626  -5.148  23.579  0.00  0.00    -0.304 N 
ATOM      6  H   UNL     1       7.374  -5.841  23.565  0.00  0.00    +0.149 HD
ATOM      7  C   UNL     1       5.825  -4.990  22.484  0.00  0.00    +0.211 C 
ATOM      8  O   UNL     1       4.965  -4.116  22.425  0.00  0.00    -0.276 OA
ATOM      9  C   UNL     1       6.126  -5.914  21.338  0.00  0.00    +0.109 C 
ENDBRANCH   4   5
BRANCH   4  10
ATOM     10  C   UNL     1       6.524  -5.307  25.952  0.00  0.00    +0.248 C 
ATOM     11  O   UNL     1       7.540  -5.855  26.373  0.00  0.00    -0.299 OA
ENDBRANCH   4  10
ENDBRANCH   1   4
BRANCH   1  12
ATOM     12  C   UNL     1       8.907  -3.592  24.045  0.00  0.00    +0.176 C 
BRANCH  12  13
ATOM     13  O   UNL     1       9.782  -4.515  24.712  0.00  0.00    -0.387 OA
ATOM     14  H   UNL     1      10.581  -4.049  25.009  0.00  0.00    +0.210 HD
ENDBRANCH  12  13
BRANCH  12  15
ATOM     15  C   UNL     1       9.689  -2.293  23.720  0.00  0.00    +0.171 C 
BRANCH  15  16
ATOM     16  O   UNL     1       9.474  -1.337  24.762  0.00  0.00    -0.387 OA
ATOM     17  H   UNL     1       9.773  -1.756  25.590  0.00  0.00    +0.210 HD
ENDBRANCH  15  16
BRANCH  15  18
ATOM     18  C   UNL     1       9.259  -1.668  22.380  0.00  0.00    +0.189 C 
BRANCH  18  19
ATOM     19  O   UNL     1      10.327  -1.513  21.457  0.00  0.00    -0.392 OA
ATOM     20  H   UNL     1      11.109  -1.208  21.964  0.00  0.00    +0.210 HD
ENDBRANCH  18  19
ENDBRANCH  15  18
ENDBRANCH  12  15
ENDBRANCH   1  12
TORSDOF 10
ENDMDL
MODEL 8
REMARK VINA RESULT:      -4.6      1.851      4.798
REMARK  Name = 
REMARK  11 active torsions:
REMARK  status: ('A' for Active; 'I' for Inactive)
REMARK    1  A    between atoms: C_2  and  CA_4
REMARK    2  A    between atoms: CA_4  and  N_6
REMARK    3  A    between atoms: CA_4  and  C_10
REMARK    4  A    between atoms: C_7  and  C_8
REMARK    5  A    between atoms: C_10  and  O_12
REMARK    6  A    between atoms: C_10  and  C_13
REMARK    7  A    between atoms: C_13  and  O_15
REMARK    8  A    between atoms: C_13  and  C_16
REMARK    9  A    between atoms: C_16  and  O_18
REMARK   10  A    between atoms: C_16  and  C_19
REMARK   11  A    between atoms: C_19  and  O_20
REMARK                            x       y       z     vdW  Elec       q    Type
REMARK                         _______ _______ _______ _____ _____    ______ ____
ROOT
ATOM      1  C   UNL     1       9.115  -2.948  24.846  0.00  0.00    +0.173 C 
ENDROOT
BRANCH   1   2
ATOM      2  O   UNL     1      10.195  -3.405  24.008  0.00  0.00    -0.387 OA
ATOM      3  H   UNL     1      10.524  -2.656  23.467  0.00  0.00    +0.210 HD
ENDBRANCH   1   2
BRANCH   1   4
ATOM      4  CA  UNL     1       8.061  -4.066  25.031  0.00  0.00    +0.167 C 
BRANCH   4   5
ATOM      5  N   UNL     1       8.006  -4.988  23.884  0.00  0.00    -0.304 N 
ATOM      6  H   UNL     1       8.845  -5.539  23.698  0.00  0.00    +0.149 HD
ATOM      7  C   UNL     1       6.927  -5.094  23.053  0.00  0.00    +0.211 C 
ATOM      8  O   UNL     1       5.928  -4.394  23.189  0.00  0.00    -0.276 OA
ATOM      9  C   UNL     1       7.087  -6.072  21.923  0.00  0.00    +0.109 C 
ENDBRANCH   4   5
BRANCH   4  10
ATOM     10  C   UNL     1       8.373  -4.941  26.235  0.00  0.00    +0.248 C 
ATOM     11  O   UNL     1       7.632  -5.834  26.641  0.00  0.00    -0.299 OA
ENDBRANCH   4  10
ENDBRANCH   1   4
BRANCH   1  12
ATOM     12  C   UNL     1       8.566  -1.639  24.207  0.00  0.00    +0.176 C 
BRANCH  12  13
ATOM     13  O   UNL     1       7.783  -1.928  23.037  0.00  0.00    -0.387 OA
ATOM     14  H   UNL     1       7.749  -2.889  22.898  0.00  0.00    +0.210 HD
ENDBRANCH  12  13
BRANCH  12  15
ATOM     15  C   UNL     1       9.724  -0.683  23.822  0.00  0.00    +0.171 C 
BRANCH  15  16
ATOM     16  O   UNL     1       9.534   0.577  24.473  0.00  0.00    -0.387 OA
ATOM     17  H   UNL     1       9.886   1.258  23.870  0.00  0.00    +0.210 HD
ENDBRANCH  15  16
BRANCH  15  18
ATOM     18  C   UNL     1       9.811  -0.445  22.304  0.00  0.00    +0.189 C 
BRANCH  18  19
ATOM     19  O   UNL     1      10.275  -1.574  21.578  0.00  0.00    -0.392 OA
ATOM     20  H   UNL     1      10.444  -2.289  22.227  0.00  0.00    +0.210 HD
ENDBRANCH  18  19
ENDBRANCH  15  18
ENDBRANCH  12  15
ENDBRANCH   1  12
TORSDOF 10
ENDMDL
MODEL 9
REMARK VINA RESULT:      -4.5      2.311      4.006
REMARK  Name = 
REMARK  11 active torsions:
REMARK  status: ('A' for Active; 'I' for Inactive)
REMARK    1  A    between atoms: C_2  and  CA_4
REMARK    2  A    between atoms: CA_4  and  N_6
REMARK    3  A    between atoms: CA_4  and  C_10
REMARK    4  A    between atoms: C_7  and  C_8
REMARK    5  A    between atoms: C_10  and  O_12
REMARK    6  A    between atoms: C_10  and  C_13
REMARK    7  A    between atoms: C_13  and  O_15
REMARK    8  A    between atoms: C_13  and  C_16
REMARK    9  A    between atoms: C_16  and  O_18
REMARK   10  A    between atoms: C_16  and  C_19
REMARK   11  A    between atoms: C_19  and  O_20
REMARK                            x       y       z     vdW  Elec       q    Type
REMARK                         _______ _______ _______ _____ _____    ______ ____
ROOT
ATOM      1  C   UNL     1       8.228  -5.277  26.126  0.00  0.00    +0.173 C 
ENDROOT
BRANCH   1   2
ATOM      2  O   UNL     1       9.220  -4.738  27.022  0.00  0.00    -0.387 OA
ATOM      3  H   UNL     1       9.423  -3.814  26.762  0.00  0.00    +0.210 HD
ENDBRANCH   1   2
BRANCH   1   4
ATOM      4  CA  UNL     1       8.546  -4.884  24.663  0.00  0.00    +0.167 C 
BRANCH   4   5
ATOM      5  N   UNL     1       7.337  -4.553  23.890  0.00  0.00    -0.304 N 
ATOM      6  H   UNL     1       6.726  -3.834  24.280  0.00  0.00    +0.149 HD
ATOM      7  C   UNL     1       6.986  -5.188  22.733  0.00  0.00    +0.211 C 
ATOM      8  O   UNL     1       7.646  -6.112  22.269  0.00  0.00    -0.276 OA
ATOM      9  C   UNL     1       5.698  -4.719  22.116  0.00  0.00    +0.109 C 
ENDBRANCH   4   5
BRANCH   4  10
ATOM     10  C   UNL     1       9.421  -3.643  24.592  0.00  0.00    +0.248 C 
ATOM     11  O   UNL     1       9.103  -2.554  25.066  0.00  0.00    -0.299 OA
ENDBRANCH   4  10
ENDBRANCH   1   4
BRANCH   1  12
ATOM     12  C   UNL     1       6.841  -4.792  26.640  0.00  0.00    +0.176 C 
BRANCH  12  13
ATOM     13  O   UNL     1       6.855  -3.379  26.902  0.00  0.00    -0.387 OA
ATOM     14  H   UNL     1       7.251  -2.912  26.147  0.00  0.00    +0.210 HD
ENDBRANCH  12  13
BRANCH  12  15
ATOM     15  C   UNL     1       6.434  -5.546  27.932  0.00  0.00    +0.171 C 
BRANCH  15  16
ATOM     16  O   UNL     1       7.485  -6.439  28.310  0.00  0.00    -0.387 OA
ATOM     17  H   UNL     1       7.166  -6.931  29.089  0.00  0.00    +0.210 HD
ENDBRANCH  15  16
BRANCH  15  18
ATOM     18  C   UNL     1       5.137  -6.356  27.757  0.00  0.00    +0.189 C 
BRANCH  18  19
ATOM     19  O   UNL     1       5.180  -7.637  28.369  0.00  0.00    -0.392 OA
ATOM     20  H   UNL     1       4.404  -7.702  28.964  0.00  0.00    +0.210 HD
ENDBRANCH  18  19
ENDBRANCH  15  18
ENDBRANCH  12  15
ENDBRANCH   1  12
TORSDOF 10
ENDMDL
