MODEL 1
REMARK VINA RESULT:      -6.4      0.000      0.000
REMARK  Name = 
REMARK  6 active torsions:
REMARK  status: ('A' for Active; 'I' for Inactive)
REMARK    1  A    between atoms: C_2  and  C_19
REMARK    2  A    between atoms: N_6  and  S_7
REMARK    3  A    between atoms: S_7  and  C_10
REMARK    4  A    between atoms: C_11  and  N_12
REMARK    5  A    between atoms: C_16  and  C_17
REMARK    6  A    between atoms: C_19  and  O_20
REMARK                            x       y       z     vdW  Elec       q    Type
REMARK                         _______ _______ _______ _____ _____    ______ ____
ROOT
ATOM      1  S   UNL     1       8.832  -2.477  23.591  0.00  0.00    +0.063 S 
ATOM      2  O   UNL     1       8.046  -3.089  22.533  0.00  0.00    -0.153 OA
ATOM      3  O   UNL     1      10.217  -2.872  23.757  0.00  0.00    -0.153 OA
ENDROOT
BRANCH   1   4
ATOM      4  C   UNL     1       8.744  -0.708  23.411  0.00  0.00    +0.126 A 
ATOM      5  C   UNL     1       8.197   0.046  24.466  0.00  0.00    +0.035 A 
ATOM      6  C   UNL     1       8.297   1.454  24.477  0.00  0.00    -0.030 A 
ATOM      7  C   UNL     1       7.765   2.200  25.670  0.00  0.00    +0.045 C 
ATOM      8  C   UNL     1       8.918   2.087  23.392  0.00  0.00    +0.046 A 
ATOM      9 CL   UNL     1       9.111   3.802  23.300  0.00  0.00    -0.083 Cl
ATOM     10  C   UNL     1       9.425   1.333  22.329  0.00  0.00    +0.045 A 
ATOM     11  C   UNL     1       9.393  -0.068  22.341  0.00  0.00    +0.053 A 
BRANCH  11  12
ATOM     12  N   UNL     1       9.817  -0.729  21.176  0.00  0.00    -0.356 N 
ATOM     13  H   UNL     1       9.568  -0.257  20.311  0.00  0.00    +0.142 HD
ATOM     14  H   UNL     1      10.815  -0.978  21.175  0.00  0.00    +0.142 HD
ENDBRANCH  11  12
ENDBRANCH   1   4
BRANCH   1  16
ATOM     15  C   UNL     1       8.703  -3.999  25.832  0.00  0.00    +0.188 C 
ATOM     16  N   UNL     1       8.084  -2.870  25.044  0.00  0.00    -0.163 NA
ATOM     17  C   UNL     1       6.609  -3.062  25.037  0.00  0.00    +0.110 C 
ATOM     18  C   UNL     1       6.354  -4.377  25.756  0.00  0.00    +0.019 C 
ATOM     19  C   UNL     1       7.537  -4.497  26.697  0.00  0.00    +0.033 C 
BRANCH  15  20
ATOM     20  C   UNL     1       9.357  -5.170  25.081  0.00  0.00    +0.324 C 
ATOM     21  O   UNL     1       8.802  -5.824  24.206  0.00  0.00    -0.249 OA
BRANCH  20  22
ATOM     22  O   UNL     1      10.602  -5.479  25.508  0.00  0.00    -0.479 OA
ATOM     23  H   UNL     1      11.155  -5.992  24.876  0.00  0.00    +0.295 HD
ENDBRANCH  20  22
ENDBRANCH  15  20
ENDBRANCH   1  16
TORSDOF 5
ENDMDL
MODEL 2
REMARK VINA RESULT:      -6.4      1.868      2.628
REMARK  Name = 
REMARK  6 active torsions:
REMARK  status: ('A' for Active; 'I' for Inactive)
REMARK    1  A    between atoms: C_2  and  C_19
REMARK    2  A    between atoms: N_6  and  S_7
REMARK    3  A    between atoms: S_7  and  C_10
REMARK    4  A    between atoms: C_11  and  N_12
REMARK    5  A    between atoms: C_16  and  C_17
REMARK    6  A    between atoms: C_19  and  O_20
REMARK                            x       y       z     vdW  Elec       q    Type
REMARK                         _______ _______ _______ _____ _____    ______ ____
ROOT
ATOM      1  S   UNL     1       8.693  -2.435  24.475  0.00  0.00    +0.063 S 
ATOM      2  O   UNL     1       9.912  -2.858  23.806  0.00  0.00    -0.153 OA
ATOM      3  O   UNL     1       8.616  -2.523  25.920  0.00  0.00    -0.153 OA
ENDROOT
BRANCH   1   4
ATOM      4  C   UNL     1       8.317  -0.771  23.967  0.00  0.00    +0.126 A 
ATOM      5  C   UNL     1       9.326  -0.017  23.340  0.00  0.00    +0.035 A 
ATOM      6  C   UNL     1       9.029   1.219  22.724  0.00  0.00    -0.030 A 
ATOM      7  C   UNL     1      10.133   1.940  21.999  0.00  0.00    +0.045 C 
ATOM      8  C   UNL     1       7.714   1.697  22.787  0.00  0.00    +0.046 A 
ATOM      9 CL   UNL     1       7.229   3.188  22.061  0.00  0.00    -0.083 Cl
ATOM     10  C   UNL     1       6.725   0.960  23.446  0.00  0.00    +0.045 A 
ATOM     11  C   UNL     1       6.993  -0.300  23.999  0.00  0.00    +0.053 A 
BRANCH  11  12
ATOM     12  N   UNL     1       5.966  -0.905  24.743  0.00  0.00    -0.356 N 
ATOM     13  H   UNL     1       5.700  -1.830  24.416  0.00  0.00    +0.142 HD
ATOM     14  H   UNL     1       6.135  -0.917  25.758  0.00  0.00    +0.142 HD
ENDBRANCH  11  12
ENDBRANCH   1   4
BRANCH   1  16
ATOM     15  C   UNL     1       7.233  -4.714  24.656  0.00  0.00    +0.188 C 
ATOM     16  N   UNL     1       7.457  -3.423  23.906  0.00  0.00    -0.163 NA
ATOM     17  C   UNL     1       7.418  -3.718  22.449  0.00  0.00    +0.110 C 
ATOM     18  C   UNL     1       7.259  -5.226  22.332  0.00  0.00    +0.019 C 
ATOM     19  C   UNL     1       6.543  -5.603  23.614  0.00  0.00    +0.033 C 
BRANCH  15  20
ATOM     20  C   UNL     1       8.436  -5.441  25.276  0.00  0.00    +0.324 C 
ATOM     21  O   UNL     1       9.402  -5.844  24.638  0.00  0.00    -0.249 OA
BRANCH  20  22
ATOM     22  O   UNL     1       8.325  -5.670  26.603  0.00  0.00    -0.479 OA
ATOM     23  H   UNL     1       7.668  -5.112  27.079  0.00  0.00    +0.295 HD
ENDBRANCH  20  22
ENDBRANCH  15  20
ENDBRANCH   1  16
TORSDOF 5
ENDMDL
MODEL 3
REMARK VINA RESULT:      -6.3      1.775      2.104
REMARK  Name = 
REMARK  6 active torsions:
REMARK  status: ('A' for Active; 'I' for Inactive)
REMARK    1  A    between atoms: C_2  and  C_19
REMARK    2  A    between atoms: N_6  and  S_7
REMARK    3  A    between atoms: S_7  and  C_10
REMARK    4  A    between atoms: C_11  and  N_12
REMARK    5  A    between atoms: C_16  and  C_17
REMARK    6  A    between atoms: C_19  and  O_20
REMARK                            x       y       z     vdW  Elec       q    Type
REMARK                         _______ _______ _______ _____ _____    ______ ____
ROOT
ATOM      1  S   UNL     1       7.467  -2.096  23.444  0.00  0.00    +0.063 S 
ATOM      2  O   UNL     1       6.313  -1.913  24.306  0.00  0.00    -0.153 OA
ATOM      3  O   UNL     1       7.281  -2.684  22.132  0.00  0.00    -0.153 OA
ENDROOT
BRANCH   1   4
ATOM      4  C   UNL     1       8.299  -0.531  23.272  0.00  0.00    +0.126 A 
ATOM      5  C   UNL     1       7.907   0.532  24.107  0.00  0.00    +0.035 A 
ATOM      6  C   UNL     1       8.666   1.721  24.170  0.00  0.00    -0.030 A 
ATOM      7  C   UNL     1       8.242   2.789  25.141  0.00  0.00    +0.045 C 
ATOM      8  C   UNL     1       9.797   1.835  23.351  0.00  0.00    +0.046 A 
ATOM      9 CL   UNL     1      10.810   3.234  23.351  0.00  0.00    -0.083 Cl
ATOM     10  C   UNL     1      10.158   0.789  22.496  0.00  0.00    +0.045 A 
ATOM     11  C   UNL     1       9.453  -0.422  22.476  0.00  0.00    +0.053 A 
BRANCH  11  12
ATOM     12  N   UNL     1       9.820  -1.362  21.499  0.00  0.00    -0.356 N 
ATOM     13  H   UNL     1       9.873  -0.988  20.555  0.00  0.00    +0.142 HD
ATOM     14  H   UNL     1      10.673  -1.890  21.725  0.00  0.00    +0.142 HD
ENDBRANCH  11  12
ENDBRANCH   1   4
BRANCH   1  16
ATOM     15  C   UNL     1       8.295  -4.611  24.031  0.00  0.00    +0.188 C 
ATOM     16  N   UNL     1       8.517  -3.134  24.248  0.00  0.00    -0.163 NA
ATOM     17  C   UNL     1       8.745  -2.906  25.700  0.00  0.00    +0.110 C 
ATOM     18  C   UNL     1       8.563  -4.258  26.369  0.00  0.00    +0.019 C 
ATOM     19  C   UNL     1       8.931  -5.243  25.276  0.00  0.00    +0.033 C 
BRANCH  15  20
ATOM     20  C   UNL     1       6.864  -5.134  23.831  0.00  0.00    +0.324 C 
ATOM     21  O   UNL     1       6.035  -5.235  24.728  0.00  0.00    -0.249 OA
BRANCH  20  22
ATOM     22  O   UNL     1       6.593  -5.547  22.573  0.00  0.00    -0.479 OA
ATOM     23  H   UNL     1       6.947  -4.979  21.851  0.00  0.00    +0.295 HD
ENDBRANCH  20  22
ENDBRANCH  15  20
ENDBRANCH   1  16
TORSDOF 5
ENDMDL
MODEL 4
REMARK VINA RESULT:      -6.3      3.377      6.125
REMARK  Name = 
REMARK  6 active torsions:
REMARK  status: ('A' for Active; 'I' for Inactive)
REMARK    1  A    between atoms: C_2  and  C_19
REMARK    2  A    between atoms: N_6  and  S_7
REMARK    3  A    between atoms: S_7  and  C_10
REMARK    4  A    between atoms: C_11  and  N_12
REMARK    5  A    between atoms: C_16  and  C_17
REMARK    6  A    between atoms: C_19  and  O_20
REMARK                            x       y       z     vdW  Elec       q    Type
REMARK                         _______ _______ _______ _____ _____    ______ ____
ROOT
ATOM      1  S   UNL     1       9.206  -0.491  22.970  0.00  0.00    +0.063 S 
ATOM      2  O   UNL     1      10.504  -0.309  23.596  0.00  0.00    -0.153 OA
ATOM      3  O   UNL     1       9.106  -0.425  21.525  0.00  0.00    -0.153 OA
ENDROOT
BRANCH   1   4
ATOM      4  C   UNL     1       8.516  -2.032  23.536  0.00  0.00    +0.126 A 
ATOM      5  C   UNL     1       9.367  -2.954  24.172  0.00  0.00    +0.035 A 
ATOM      6  C   UNL     1       8.842  -4.087  24.831  0.00  0.00    -0.030 A 
ATOM      7  C   UNL     1       9.795  -4.994  25.563  0.00  0.00    +0.045 C 
ATOM      8  C   UNL     1       7.457  -4.294  24.802  0.00  0.00    +0.046 A 
ATOM      9 CL   UNL     1       6.699  -5.637  25.583  0.00  0.00    -0.083 Cl
ATOM     10  C   UNL     1       6.621  -3.393  24.134  0.00  0.00    +0.045 A 
ATOM     11  C   UNL     1       7.124  -2.229  23.537  0.00  0.00    +0.053 A 
BRANCH  11  12
ATOM     12  N   UNL     1       6.224  -1.452  22.790  0.00  0.00    -0.356 N 
ATOM     13  H   UNL     1       6.246  -0.459  23.005  0.00  0.00    +0.142 HD
ATOM     14  H   UNL     1       6.286  -1.601  21.773  0.00  0.00    +0.142 HD
ENDBRANCH  11  12
ENDBRANCH   1   4
BRANCH   1  16
ATOM     15  C   UNL     1       8.514   2.130  23.032  0.00  0.00    +0.188 C 
ATOM     16  N   UNL     1       8.213   0.740  23.538  0.00  0.00    -0.163 NA
ATOM     17  C   UNL     1       7.975   0.821  25.004  0.00  0.00    +0.110 C 
ATOM     18  C   UNL     1       8.228   2.269  25.391  0.00  0.00    +0.019 C 
ATOM     19  C   UNL     1       7.913   3.032  24.119  0.00  0.00    +0.033 C 
BRANCH  15  20
ATOM     20  C   UNL     1       9.971   2.527  22.746  0.00  0.00    +0.324 C 
ATOM     21  O   UNL     1      10.705   3.086  23.553  0.00  0.00    -0.249 OA
BRANCH  20  22
ATOM     22  O   UNL     1      10.381   2.267  21.485  0.00  0.00    -0.479 OA
ATOM     23  H   UNL     1      10.528   3.054  20.912  0.00  0.00    +0.295 HD
ENDBRANCH  20  22
ENDBRANCH  15  20
ENDBRANCH   1  16
TORSDOF 5
ENDMDL
MODEL 5
REMARK VINA RESULT:      -6.2      2.683      3.619
REMARK  Name = 
REMARK  6 active torsions:
REMARK  status: ('A' for Active; 'I' for Inactive)
REMARK    1  A    between atoms: C_2  and  C_19
REMARK    2  A    between atoms: N_6  and  S_7
REMARK    3  A    between atoms: S_7  and  C_10
REMARK    4  A    between atoms: C_11  and  N_12
REMARK    5  A    between atoms: C_16  and  C_17
REMARK    6  A    between atoms: C_19  and  O_20
REMARK                            x       y       z     vdW  Elec       q    Type
REMARK                         _______ _______ _______ _____ _____    ______ ____
ROOT
ATOM      1  S   UNL     1       6.937  -3.601  22.833  0.00  0.00    +0.063 S 
ATOM      2  O   UNL     1       6.014  -3.060  21.850  0.00  0.00    -0.153 OA
ATOM      3  O   UNL     1       7.533  -4.901  22.599  0.00  0.00    -0.153 OA
ENDROOT
BRANCH   1   4
ATOM      4  C   UNL     1       8.227  -2.406  23.115  0.00  0.00    +0.126 A 
ATOM      5  C   UNL     1       8.344  -1.324  22.224  0.00  0.00    +0.035 A 
ATOM      6  C   UNL     1       9.198  -0.237  22.514  0.00  0.00    -0.030 A 
ATOM      7  C   UNL     1       9.221   0.929  21.563  0.00  0.00    +0.045 C 
ATOM      8  C   UNL     1       9.957  -0.280  23.691  0.00  0.00    +0.046 A 
ATOM      9 CL   UNL     1      11.026   0.995  24.158  0.00  0.00    -0.083 Cl
ATOM     10  C   UNL     1       9.864  -1.378  24.552  0.00  0.00    +0.045 A 
ATOM     11  C   UNL     1       8.968  -2.429  24.310  0.00  0.00    +0.053 A 
BRANCH  11  12
ATOM     12  N   UNL     1       9.035  -3.539  25.167  0.00  0.00    -0.356 N 
ATOM     13  H   UNL     1       8.309  -4.234  25.012  0.00  0.00    +0.142 HD
ATOM     14  H   UNL     1       9.961  -3.988  25.199  0.00  0.00    +0.142 HD
ENDBRANCH  11  12
ENDBRANCH   1   4
BRANCH   1  16
ATOM     15  C   UNL     1       5.292  -5.036  24.442  0.00  0.00    +0.188 C 
ATOM     16  N   UNL     1       6.081  -3.760  24.271  0.00  0.00    -0.163 NA
ATOM     17  C   UNL     1       5.224  -2.622  24.699  0.00  0.00    +0.110 C 
ATOM     18  C   UNL     1       3.872  -3.223  25.045  0.00  0.00    +0.019 C 
ATOM     19  C   UNL     1       4.214  -4.641  25.460  0.00  0.00    +0.033 C 
BRANCH  15  20
ATOM     20  C   UNL     1       4.655  -5.697  23.210  0.00  0.00    +0.324 C 
ATOM     21  O   UNL     1       3.591  -5.347  22.712  0.00  0.00    -0.249 OA
BRANCH  20  22
ATOM     22  O   UNL     1       5.337  -6.763  22.735  0.00  0.00    -0.479 OA
ATOM     23  H   UNL     1       5.047  -7.641  23.074  0.00  0.00    +0.295 HD
ENDBRANCH  20  22
ENDBRANCH  15  20
ENDBRANCH   1  16
TORSDOF 5
ENDMDL
MODEL 6
REMARK VINA RESULT:      -6.2      1.452      1.667
REMARK  Name = 
REMARK  6 active torsions:
REMARK  status: ('A' for Active; 'I' for Inactive)
REMARK    1  A    between atoms: C_2  and  C_19
REMARK    2  A    between atoms: N_6  and  S_7
REMARK    3  A    between atoms: S_7  and  C_10
REMARK    4  A    between atoms: C_11  and  N_12
REMARK    5  A    between atoms: C_16  and  C_17
REMARK    6  A    between atoms: C_19  and  O_20
REMARK                            x       y       z     vdW  Elec       q    Type
REMARK                         _______ _______ _______ _____ _____    ______ ____
ROOT
ATOM      1  S   UNL     1       9.059  -2.291  24.394  0.00  0.00    +0.063 S 
ATOM      2  O   UNL     1      10.190  -2.806  23.641  0.00  0.00    -0.153 OA
ATOM      3  O   UNL     1       9.078  -2.376  25.841  0.00  0.00    -0.153 OA
ENDROOT
BRANCH   1   4
ATOM      4  C   UNL     1       8.778  -0.601  23.908  0.00  0.00    +0.126 A 
ATOM      5  C   UNL     1       8.214   0.281  24.848  0.00  0.00    +0.035 A 
ATOM      6  C   UNL     1       8.168   1.670  24.600  0.00  0.00    -0.030 A 
ATOM      7  C   UNL     1       7.627   2.571  25.677  0.00  0.00    +0.045 C 
ATOM      8  C   UNL     1       8.661   2.146  23.379  0.00  0.00    +0.046 A 
ATOM      9 CL   UNL     1       8.670   3.825  22.968  0.00  0.00    -0.083 Cl
ATOM     10  C   UNL     1       9.185   1.258  22.433  0.00  0.00    +0.045 A 
ATOM     11  C   UNL     1       9.300  -0.113  22.698  0.00  0.00    +0.053 A 
BRANCH  11  12
ATOM     12  N   UNL     1       9.726  -0.936  21.642  0.00  0.00    -0.356 N 
ATOM     13  H   UNL     1       9.965  -1.885  21.919  0.00  0.00    +0.142 HD
ATOM     14  H   UNL     1       9.087  -0.947  20.836  0.00  0.00    +0.142 HD
ENDBRANCH  11  12
ENDBRANCH   1   4
BRANCH   1  16
ATOM     15  C   UNL     1       7.415  -4.425  24.716  0.00  0.00    +0.188 C 
ATOM     16  N   UNL     1       7.712  -3.178  23.918  0.00  0.00    -0.163 NA
ATOM     17  C   UNL     1       7.570  -3.505  22.474  0.00  0.00    +0.110 C 
ATOM     18  C   UNL     1       7.273  -4.995  22.409  0.00  0.00    +0.019 C 
ATOM     19  C   UNL     1       6.595  -5.275  23.737  0.00  0.00    +0.033 C 
BRANCH  15  20
ATOM     20  C   UNL     1       8.581  -5.242  25.295  0.00  0.00    +0.324 C 
ATOM     21  O   UNL     1       9.413  -5.833  24.617  0.00  0.00    -0.249 OA
BRANCH  20  22
ATOM     22  O   UNL     1       8.590  -5.319  26.644  0.00  0.00    -0.479 OA
ATOM     23  H   UNL     1       7.900  -4.791  27.107  0.00  0.00    +0.295 HD
ENDBRANCH  20  22
ENDBRANCH  15  20
ENDBRANCH   1  16
TORSDOF 5
ENDMDL
MODEL 7
REMARK VINA RESULT:      -5.9      3.492      6.142
REMARK  Name = 
REMARK  6 active torsions:
REMARK  status: ('A' for Active; 'I' for Inactive)
REMARK    1  A    between atoms: C_2  and  C_19
REMARK    2  A    between atoms: N_6  and  S_7
REMARK    3  A    between atoms: S_7  and  C_10
REMARK    4  A    between atoms: C_11  and  N_12
REMARK    5  A    between atoms: C_16  and  C_17
REMARK    6  A    between atoms: C_19  and  O_20
REMARK                            x       y       z     vdW  Elec       q    Type
REMARK                         _______ _______ _______ _____ _____    ______ ____
ROOT
ATOM      1  S   UNL     1       8.200  -1.416  23.238  0.00  0.00    +0.063 S 
ATOM      2  O   UNL     1       9.152  -0.964  24.238  0.00  0.00    -0.153 OA
ATOM      3  O   UNL     1       8.643  -1.577  21.867  0.00  0.00    -0.153 OA
ENDROOT
BRANCH   1   4
ATOM      4  C   UNL     1       7.466  -2.937  23.801  0.00  0.00    +0.126 A 
ATOM      5  C   UNL     1       7.993  -3.549  24.953  0.00  0.00    +0.035 A 
ATOM      6  C   UNL     1       7.324  -4.629  25.569  0.00  0.00    -0.030 A 
ATOM      7  C   UNL     1       7.894  -5.190  26.844  0.00  0.00    +0.045 C 
ATOM      8  C   UNL     1       6.143  -5.103  24.984  0.00  0.00    +0.046 A 
ATOM      9 CL   UNL     1       5.231  -6.409  25.654  0.00  0.00    -0.083 Cl
ATOM     10  C   UNL     1       5.646  -4.514  23.817  0.00  0.00    +0.045 A 
ATOM     11  C   UNL     1       6.264  -3.398  23.237  0.00  0.00    +0.053 A 
BRANCH  11  12
ATOM     12  N   UNL     1       5.759  -2.955  22.003  0.00  0.00    -0.356 N 
ATOM     13  H   UNL     1       6.101  -3.473  21.198  0.00  0.00    +0.142 HD
ATOM     14  H   UNL     1       4.733  -2.880  21.973  0.00  0.00    +0.142 HD
ENDBRANCH  11  12
ENDBRANCH   1   4
BRANCH   1  16
ATOM     15  C   UNL     1       7.282   0.995  22.399  0.00  0.00    +0.188 C 
ATOM     16  N   UNL     1       6.977  -0.264  23.174  0.00  0.00    -0.163 NA
ATOM     17  C   UNL     1       6.319   0.124  24.450  0.00  0.00    +0.110 C 
ATOM     18  C   UNL     1       6.317   1.643  24.475  0.00  0.00    +0.019 C 
ATOM     19  C   UNL     1       6.314   2.018  23.006  0.00  0.00    +0.033 C 
BRANCH  15  20
ATOM     20  C   UNL     1       8.717   1.545  22.395  0.00  0.00    +0.324 C 
ATOM     21  O   UNL     1       9.213   2.185  23.315  0.00  0.00    -0.249 OA
BRANCH  20  22
ATOM     22  O   UNL     1       9.395   1.324  21.246  0.00  0.00    -0.479 OA
ATOM     23  H   UNL     1       8.847   1.268  20.430  0.00  0.00    +0.295 HD
ENDBRANCH  20  22
ENDBRANCH  15  20
ENDBRANCH   1  16
TORSDOF 5
ENDMDL
MODEL 8
REMARK VINA RESULT:      -5.9      3.243      6.066
REMARK  Name = 
REMARK  6 active torsions:
REMARK  status: ('A' for Active; 'I' for Inactive)
REMARK    1  A    between atoms: C_2  and  C_19
REMARK    2  A    between atoms: N_6  and  S_7
REMARK    3  A    between atoms: S_7  and  C_10
REMARK    4  A    between atoms: C_11  and  N_12
REMARK    5  A    between atoms: C_16  and  C_17
REMARK    6  A    between atoms: C_19  and  O_20
REMARK                            x       y       z     vdW  Elec       q    Type
REMARK                         _______ _______ _______ _____ _____    ______ ____
ROOT
ATOM      1  S   UNL     1       9.373  -2.003  23.209  0.00  0.00    +0.063 S 
ATOM      2  O   UNL     1      10.646  -2.688  23.348  0.00  0.00    -0.153 OA
ATOM      3  O   UNL     1       9.008  -1.449  21.919  0.00  0.00    -0.153 OA
ENDROOT
BRANCH   1   4
ATOM      4  C   UNL     1       8.079  -3.092  23.766  0.00  0.00    +0.126 A 
ATOM      5  C   UNL     1       7.279  -3.730  22.801  0.00  0.00    +0.035 A 
ATOM      6  C   UNL     1       6.388  -4.762  23.168  0.00  0.00    -0.030 A 
ATOM      7  C   UNL     1       5.617  -5.462  22.081  0.00  0.00    +0.045 C 
ATOM      8  C   UNL     1       6.290  -5.110  24.521  0.00  0.00    +0.046 A 
ATOM      9 CL   UNL     1       5.246  -6.365  25.088  0.00  0.00    -0.083 Cl
ATOM     10  C   UNL     1       7.062  -4.445  25.480  0.00  0.00    +0.045 A 
ATOM     11  C   UNL     1       8.000  -3.468  25.119  0.00  0.00    +0.053 A 
BRANCH  11  12
ATOM     12  N   UNL     1       8.637  -2.774  26.161  0.00  0.00    -0.356 N 
ATOM     13  H   UNL     1       8.652  -3.271  27.048  0.00  0.00    +0.142 HD
ATOM     14  H   UNL     1       9.579  -2.435  25.923  0.00  0.00    +0.142 HD
ENDBRANCH  11  12
ENDBRANCH   1   4
BRANCH   1  16
ATOM     15  C   UNL     1       8.180   0.188  24.274  0.00  0.00    +0.188 C 
ATOM     16  N   UNL     1       9.408  -0.691  24.259  0.00  0.00    -0.163 NA
ATOM     17  C   UNL     1      10.608   0.188  24.234  0.00  0.00    +0.110 C 
ATOM     18  C   UNL     1      10.083   1.611  24.141  0.00  0.00    +0.019 C 
ATOM     19  C   UNL     1       8.719   1.526  24.798  0.00  0.00    +0.033 C 
BRANCH  15  20
ATOM     20  C   UNL     1       7.389   0.396  22.974  0.00  0.00    +0.324 C 
ATOM     21  O   UNL     1       7.669   1.231  22.122  0.00  0.00    -0.249 OA
BRANCH  20  22
ATOM     22  O   UNL     1       6.292  -0.386  22.859  0.00  0.00    -0.479 OA
ATOM     23  H   UNL     1       6.370  -1.292  23.237  0.00  0.00    +0.295 HD
ENDBRANCH  20  22
ENDBRANCH  15  20
ENDBRANCH   1  16
TORSDOF 5
ENDMDL
MODEL 9
REMARK VINA RESULT:      -5.8      2.338      3.195
REMARK  Name = 
REMARK  6 active torsions:
REMARK  status: ('A' for Active; 'I' for Inactive)
REMARK    1  A    between atoms: C_2  and  C_19
REMARK    2  A    between atoms: N_6  and  S_7
REMARK    3  A    between atoms: S_7  and  C_10
REMARK    4  A    between atoms: C_11  and  N_12
REMARK    5  A    between atoms: C_16  and  C_17
REMARK    6  A    between atoms: C_19  and  O_20
REMARK                            x       y       z     vdW  Elec       q    Type
REMARK                         _______ _______ _______ _____ _____    ______ ____
ROOT
ATOM      1  S   UNL     1       8.264  -3.386  25.590  0.00  0.00    +0.063 S 
ATOM      2  O   UNL     1       8.027  -4.320  24.504  0.00  0.00    -0.153 OA
ATOM      3  O   UNL     1       9.092  -3.798  26.706  0.00  0.00    -0.153 OA
ENDROOT
BRANCH   1   4
ATOM      4  C   UNL     1       8.911  -1.874  24.906  0.00  0.00    +0.126 A 
ATOM      5  C   UNL     1       9.116  -1.802  23.516  0.00  0.00    +0.035 A 
ATOM      6  C   UNL     1       9.418  -0.572  22.892  0.00  0.00    -0.030 A 
ATOM      7  C   UNL     1       9.546  -0.542  21.393  0.00  0.00    +0.045 C 
ATOM      8  C   UNL     1       9.548   0.569  23.694  0.00  0.00    +0.046 A 
ATOM      9 CL   UNL     1       9.901   2.130  23.044  0.00  0.00    -0.083 Cl
ATOM     10  C   UNL     1       9.380   0.481  25.080  0.00  0.00    +0.045 A 
ATOM     11  C   UNL     1       9.012  -0.720  25.702  0.00  0.00    +0.053 A 
BRANCH  11  12
ATOM     12  N   UNL     1       8.986  -0.733  27.106  0.00  0.00    -0.356 N 
ATOM     13  H   UNL     1       8.648   0.127  27.529  0.00  0.00    +0.142 HD
ATOM     14  H   UNL     1       8.500  -1.546  27.508  0.00  0.00    +0.142 HD
ENDBRANCH  11  12
ENDBRANCH   1   4
BRANCH   1  16
ATOM     15  C   UNL     1       6.272  -3.967  27.337  0.00  0.00    +0.188 C 
ATOM     16  N   UNL     1       6.765  -3.028  26.262  0.00  0.00    -0.163 NA
ATOM     17  C   UNL     1       5.636  -2.749  25.334  0.00  0.00    +0.110 C 
ATOM     18  C   UNL     1       4.477  -3.609  25.814  0.00  0.00    +0.019 C 
ATOM     19  C   UNL     1       4.751  -3.769  27.298  0.00  0.00    +0.033 C 
BRANCH  15  20
ATOM     20  C   UNL     1       6.625  -5.460  27.251  0.00  0.00    +0.324 C 
ATOM     21  O   UNL     1       7.238  -6.074  28.116  0.00  0.00    -0.249 OA
BRANCH  20  22
ATOM     22  O   UNL     1       6.259  -6.052  26.092  0.00  0.00    -0.479 OA
ATOM     23  H   UNL     1       6.274  -5.476  25.294  0.00  0.00    +0.295 HD
ENDBRANCH  20  22
ENDBRANCH  15  20
ENDBRANCH   1  16
TORSDOF 5
ENDMDL
