MODEL 1
REMARK VINA RESULT:      -7.0      0.000      0.000
REMARK  Name = 
REMARK  7 active torsions:
REMARK  status: ('A' for Active; 'I' for Inactive)
REMARK    1  A    between atoms: C_1  and  O_2
REMARK    2  A    between atoms: O_2  and  C_3
REMARK    3  A    between atoms: C_5  and  O_6
REMARK    4  A    between atoms: O_6  and  C_7
REMARK    5  A    between atoms: C_16  and  C_18
REMARK    6  A    between atoms: C_23  and  O_24
REMARK    7  A    between atoms: O_24  and  C_25
REMARK                            x       y       z     vdW  Elec       q    Type
REMARK                         _______ _______ _______ _____ _____    ______ ____
ROOT
ATOM      1  C   UNL     1       8.104   0.245  25.704  0.00  0.00    +0.138 A 
ATOM      2  C   UNL     1       8.068  -0.935  24.971  0.00  0.00    +0.107 A 
ATOM      3  C   UNL     1       7.521  -2.263  25.241  0.00  0.00    +0.221 C 
ATOM      4  O   UNL     1       7.133  -2.659  26.327  0.00  0.00    -0.287 OA
ATOM      5  C   UNL     1       7.456  -2.992  23.883  0.00  0.00    +0.231 C 
ATOM      6  C   UNL     1       7.883  -4.452  23.742  0.00  0.00    +0.152 C 
ATOM      7  C   UNL     1       7.287  -5.279  22.864  0.00  0.00    +0.091 C 
ATOM      8  C   UNL     1       6.264  -4.785  21.888  0.00  0.00    +0.160 C 
ATOM      9  O   UNL     1       5.713  -5.568  21.125  0.00  0.00    -0.293 OA
ATOM     10  C   UNL     1       6.032  -3.296  21.833  0.00  0.00    +0.087 C 
ATOM     11  C   UNL     1       6.038  -2.744  23.262  0.00  0.00    +0.053 C 
ATOM     12  C   UNL     1       4.858  -3.332  24.058  0.00  0.00    +0.013 C 
ATOM     13  O   UNL     1       8.399  -2.227  23.072  0.00  0.00    -0.467 OA
ATOM     14  C   UNL     1       8.520  -0.998  23.669  0.00  0.00    +0.159 A 
ATOM     15  C   UNL     1       8.999   0.119  23.007  0.00  0.00    +0.125 A 
ATOM     16 CL   UNL     1       9.528   0.008  21.369  0.00  0.00    -0.076 Cl
ATOM     17  C   UNL     1       8.972   1.343  23.686  0.00  0.00    +0.145 A 
ATOM     18  C   UNL     1       8.570   1.387  25.036  0.00  0.00    +0.093 A 
ENDROOT
BRANCH   1  20
ATOM     19  C   UNL     1       6.328   0.786  27.181  0.00  0.00    +0.277 C 
ATOM     20  O   UNL     1       7.640   0.253  26.986  0.00  0.00    -0.494 OA
ENDBRANCH   1  20
BRANCH   6  21
ATOM     21  O   UNL     1       9.142  -4.853  24.176  0.00  0.00    -0.495 OA
ATOM     22  C   UNL     1       9.283  -5.442  25.456  0.00  0.00    +0.276 C 
ENDBRANCH   6  21
BRANCH  17  23
ATOM     23  O   UNL     1       9.356   2.482  23.023  0.00  0.00    -0.493 OA
ATOM     24  C   UNL     1      10.644   2.966  23.406  0.00  0.00    +0.277 C 
ENDBRANCH  17  23
TORSDOF 3
ENDMDL
MODEL 2
REMARK VINA RESULT:      -6.4      1.752      1.798
REMARK  Name = 
REMARK  7 active torsions:
REMARK  status: ('A' for Active; 'I' for Inactive)
REMARK    1  A    between atoms: C_1  and  O_2
REMARK    2  A    between atoms: O_2  and  C_3
REMARK    3  A    between atoms: C_5  and  O_6
REMARK    4  A    between atoms: O_6  and  C_7
REMARK    5  A    between atoms: C_16  and  C_18
REMARK    6  A    between atoms: C_23  and  O_24
REMARK    7  A    between atoms: O_24  and  C_25
REMARK                            x       y       z     vdW  Elec       q    Type
REMARK                         _______ _______ _______ _____ _____    ______ ____
ROOT
ATOM      1  C   UNL     1       5.820   0.833  24.461  0.00  0.00    +0.138 A 
ATOM      2  C   UNL     1       6.380  -0.424  24.270  0.00  0.00    +0.107 A 
ATOM      3  C   UNL     1       6.055  -1.752  24.786  0.00  0.00    +0.221 C 
ATOM      4  O   UNL     1       5.286  -1.984  25.704  0.00  0.00    -0.287 OA
ATOM      5  C   UNL     1       6.797  -2.763  23.888  0.00  0.00    +0.231 C 
ATOM      6  C   UNL     1       7.527  -3.968  24.479  0.00  0.00    +0.152 C 
ATOM      7  C   UNL     1       7.606  -5.137  23.819  0.00  0.00    +0.091 C 
ATOM      8  C   UNL     1       7.097  -5.286  22.419  0.00  0.00    +0.160 C 
ATOM      9  O   UNL     1       7.150  -6.373  21.857  0.00  0.00    -0.293 OA
ATOM     10  C   UNL     1       6.621  -4.034  21.726  0.00  0.00    +0.087 C 
ATOM     11  C   UNL     1       5.831  -3.187  22.728  0.00  0.00    +0.053 C 
ATOM     12  C   UNL     1       4.563  -3.940  23.169  0.00  0.00    +0.013 C 
ATOM     13  O   UNL     1       7.834  -1.936  23.277  0.00  0.00    -0.467 OA
ATOM     14  C   UNL     1       7.401  -0.638  23.367  0.00  0.00    +0.159 A 
ATOM     15  C   UNL     1       7.900   0.381  22.573  0.00  0.00    +0.125 A 
ATOM     16 CL   UNL     1       9.156   0.070  21.433  0.00  0.00    -0.076 Cl
ATOM     17  C   UNL     1       7.302   1.643  22.678  0.00  0.00    +0.145 A 
ATOM     18  C   UNL     1       6.305   1.868  23.648  0.00  0.00    +0.093 A 
ENDROOT
BRANCH   1  20
ATOM     19  C   UNL     1       5.183   1.481  26.652  0.00  0.00    +0.277 C 
ATOM     20  O   UNL     1       4.810   0.988  25.363  0.00  0.00    -0.494 OA
ENDBRANCH   1  20
BRANCH   6  21
ATOM     21  O   UNL     1       8.478  -3.783  25.478  0.00  0.00    -0.495 OA
ATOM     22  C   UNL     1       9.427  -4.803  25.733  0.00  0.00    +0.276 C 
ENDBRANCH   6  21
BRANCH  17  23
ATOM     23  O   UNL     1       7.715   2.647  21.837  0.00  0.00    -0.493 OA
ATOM     24  C   UNL     1       7.174   3.929  22.161  0.00  0.00    +0.277 C 
ENDBRANCH  17  23
TORSDOF 3
ENDMDL
MODEL 3
REMARK VINA RESULT:      -6.1      2.396      3.721
REMARK  Name = 
REMARK  7 active torsions:
REMARK  status: ('A' for Active; 'I' for Inactive)
REMARK    1  A    between atoms: C_1  and  O_2
REMARK    2  A    between atoms: O_2  and  C_3
REMARK    3  A    between atoms: C_5  and  O_6
REMARK    4  A    between atoms: O_6  and  C_7
REMARK    5  A    between atoms: C_16  and  C_18
REMARK    6  A    between atoms: C_23  and  O_24
REMARK    7  A    between atoms: O_24  and  C_25
REMARK                            x       y       z     vdW  Elec       q    Type
REMARK                         _______ _______ _______ _____ _____    ______ ____
ROOT
ATOM      1  C   UNL     1       9.239  -0.044  24.408  0.00  0.00    +0.138 A 
ATOM      2  C   UNL     1       8.443  -1.180  24.492  0.00  0.00    +0.107 A 
ATOM      3  C   UNL     1       8.699  -2.599  24.258  0.00  0.00    +0.221 C 
ATOM      4  O   UNL     1       9.691  -3.057  23.715  0.00  0.00    -0.287 OA
ATOM      5  C   UNL     1       7.529  -3.367  24.905  0.00  0.00    +0.231 C 
ATOM      6  C   UNL     1       6.861  -4.546  24.198  0.00  0.00    +0.152 C 
ATOM      7  C   UNL     1       6.358  -5.586  24.886  0.00  0.00    +0.091 C 
ATOM      8  C   UNL     1       6.308  -5.590  26.382  0.00  0.00    +0.160 C 
ATOM      9  O   UNL     1       5.878  -6.567  26.981  0.00  0.00    -0.293 OA
ATOM     10  C   UNL     1       6.715  -4.318  27.085  0.00  0.00    +0.087 C 
ATOM     11  C   UNL     1       7.938  -3.733  26.374  0.00  0.00    +0.053 C 
ATOM     12  C   UNL     1       9.133  -4.694  26.505  0.00  0.00    +0.013 C 
ATOM     13  O   UNL     1       6.499  -2.337  25.010  0.00  0.00    -0.467 OA
ATOM     14  C   UNL     1       7.149  -1.130  24.968  0.00  0.00    +0.159 A 
ATOM     15  C   UNL     1       6.583   0.048  25.424  0.00  0.00    +0.125 A 
ATOM     16 CL   UNL     1       4.973   0.067  26.041  0.00  0.00    -0.076 Cl
ATOM     17  C   UNL     1       7.384   1.197  25.434  0.00  0.00    +0.145 A 
ATOM     18  C   UNL     1       8.681   1.152  24.886  0.00  0.00    +0.093 A 
ENDROOT
BRANCH   1  20
ATOM     19  C   UNL     1      11.465   0.772  24.469  0.00  0.00    +0.277 C 
ATOM     20  O   UNL     1      10.512  -0.150  23.934  0.00  0.00    -0.494 OA
ENDBRANCH   1  20
BRANCH   6  21
ATOM     21  O   UNL     1       6.369  -4.393  22.906  0.00  0.00    -0.495 OA
ATOM     22  C   UNL     1       6.924  -5.160  21.854  0.00  0.00    +0.276 C 
ENDBRANCH   6  21
BRANCH  17  23
ATOM     23  O   UNL     1       6.878   2.357  25.966  0.00  0.00    -0.493 OA
ATOM     24  C   UNL     1       7.695   3.504  25.729  0.00  0.00    +0.277 C 
ENDBRANCH  17  23
TORSDOF 3
ENDMDL
MODEL 4
REMARK VINA RESULT:      -6.1      3.239      5.850
REMARK  Name = 
REMARK  7 active torsions:
REMARK  status: ('A' for Active; 'I' for Inactive)
REMARK    1  A    between atoms: C_1  and  O_2
REMARK    2  A    between atoms: O_2  and  C_3
REMARK    3  A    between atoms: C_5  and  O_6
REMARK    4  A    between atoms: O_6  and  C_7
REMARK    5  A    between atoms: C_16  and  C_18
REMARK    6  A    between atoms: C_23  and  O_24
REMARK    7  A    between atoms: O_24  and  C_25
REMARK                            x       y       z     vdW  Elec       q    Type
REMARK                         _______ _______ _______ _____ _____    ______ ____
ROOT
ATOM      1  C   UNL     1       6.482  -3.993  22.307  0.00  0.00    +0.138 A 
ATOM      2  C   UNL     1       5.769  -4.134  23.491  0.00  0.00    +0.107 A 
ATOM      3  C   UNL     1       4.446  -4.669  23.803  0.00  0.00    +0.221 C 
ATOM      4  O   UNL     1       3.581  -4.934  22.985  0.00  0.00    -0.287 OA
ATOM      5  C   UNL     1       4.417  -4.903  25.327  0.00  0.00    +0.231 C 
ATOM      6  C   UNL     1       3.201  -4.521  26.170  0.00  0.00    +0.152 C 
ATOM      7  C   UNL     1       2.847  -5.229  27.257  0.00  0.00    +0.091 C 
ATOM      8  C   UNL     1       3.694  -6.349  27.777  0.00  0.00    +0.160 C 
ATOM      9  O   UNL     1       3.327  -6.999  28.748  0.00  0.00    -0.293 OA
ATOM     10  C   UNL     1       5.033  -6.561  27.115  0.00  0.00    +0.087 C 
ATOM     11  C   UNL     1       4.868  -6.380  25.603  0.00  0.00    +0.053 C 
ATOM     12  C   UNL     1       3.937  -7.469  25.041  0.00  0.00    +0.013 C 
ATOM     13  O   UNL     1       5.504  -4.047  25.795  0.00  0.00    -0.467 OA
ATOM     14  C   UNL     1       6.327  -3.837  24.718  0.00  0.00    +0.159 A 
ATOM     15  C   UNL     1       7.640  -3.418  24.842  0.00  0.00    +0.125 A 
ATOM     16 CL   UNL     1       8.312  -3.085  26.394  0.00  0.00    -0.076 Cl
ATOM     17  C   UNL     1       8.415  -3.345  23.677  0.00  0.00    +0.145 A 
ATOM     18  C   UNL     1       7.820  -3.587  22.423  0.00  0.00    +0.093 A 
ENDROOT
BRANCH   1  20
ATOM     19  C   UNL     1       6.068  -5.642  20.654  0.00  0.00    +0.277 C 
ATOM     20  O   UNL     1       5.885  -4.304  21.123  0.00  0.00    -0.494 OA
ENDBRANCH   1  20
BRANCH   6  21
ATOM     21  O   UNL     1       2.694  -3.227  26.111  0.00  0.00    -0.495 OA
ATOM     22  C   UNL     1       1.375  -3.017  25.642  0.00  0.00    +0.276 C 
ENDBRANCH   6  21
BRANCH  17  23
ATOM     23  O   UNL     1       9.745  -3.021  23.782  0.00  0.00    -0.493 OA
ATOM     24  C   UNL     1      10.127  -1.892  22.994  0.00  0.00    +0.277 C 
ENDBRANCH  17  23
TORSDOF 3
ENDMDL
MODEL 5
REMARK VINA RESULT:      -6.1      2.556      4.172
REMARK  Name = 
REMARK  7 active torsions:
REMARK  status: ('A' for Active; 'I' for Inactive)
REMARK    1  A    between atoms: C_1  and  O_2
REMARK    2  A    between atoms: O_2  and  C_3
REMARK    3  A    between atoms: C_5  and  O_6
REMARK    4  A    between atoms: O_6  and  C_7
REMARK    5  A    between atoms: C_16  and  C_18
REMARK    6  A    between atoms: C_23  and  O_24
REMARK    7  A    between atoms: O_24  and  C_25
REMARK                            x       y       z     vdW  Elec       q    Type
REMARK                         _______ _______ _______ _____ _____    ______ ____
ROOT
ATOM      1  C   UNL     1       7.965  -0.902  22.747  0.00  0.00    +0.138 A 
ATOM      2  C   UNL     1       7.210  -1.932  23.293  0.00  0.00    +0.107 A 
ATOM      3  C   UNL     1       7.225  -3.383  23.120  0.00  0.00    +0.221 C 
ATOM      4  O   UNL     1       7.829  -3.983  22.247  0.00  0.00    -0.287 OA
ATOM      5  C   UNL     1       6.417  -3.971  24.295  0.00  0.00    +0.231 C 
ATOM      6  C   UNL     1       5.416  -5.106  24.084  0.00  0.00    +0.152 C 
ATOM      7  C   UNL     1       5.199  -6.039  25.028  0.00  0.00    +0.091 C 
ATOM      8  C   UNL     1       5.828  -5.947  26.384  0.00  0.00    +0.160 C 
ATOM      9  O   UNL     1       5.641  -6.830  27.211  0.00  0.00    -0.293 OA
ATOM     10  C   UNL     1       6.602  -4.690  26.697  0.00  0.00    +0.087 C 
ATOM     11  C   UNL     1       7.415  -4.292  25.462  0.00  0.00    +0.053 C 
ATOM     12  C   UNL     1       8.464  -5.374  25.152  0.00  0.00    +0.013 C 
ATOM     13  O   UNL     1       5.626  -2.825  24.735  0.00  0.00    -0.467 OA
ATOM     14  C   UNL     1       6.276  -1.706  24.284  0.00  0.00    +0.159 A 
ATOM     15  C   UNL     1       6.066  -0.445  24.816  0.00  0.00    +0.125 A 
ATOM     16 CL   UNL     1       4.912  -0.205  26.075  0.00  0.00    -0.076 Cl
ATOM     17  C   UNL     1       6.870   0.603  24.350  0.00  0.00    +0.145 A 
ATOM     18  C   UNL     1       7.774   0.376  23.294  0.00  0.00    +0.093 A 
ENDROOT
BRANCH   1  20
ATOM     19  C   UNL     1      10.228  -1.361  22.205  0.00  0.00    +0.277 C 
ATOM     20  O   UNL     1       8.877  -1.181  21.774  0.00  0.00    -0.494 OA
ENDBRANCH   1  20
BRANCH   6  21
ATOM     21  O   UNL     1       4.408  -4.976  23.134  0.00  0.00    -0.495 OA
ATOM     22  C   UNL     1       3.054  -5.052  23.542  0.00  0.00    +0.276 C 
ENDBRANCH   6  21
BRANCH  17  23
ATOM     23  O   UNL     1       6.746   1.843  24.925  0.00  0.00    -0.493 OA
ATOM     24  C   UNL     1       7.983   2.394  25.380  0.00  0.00    +0.277 C 
ENDBRANCH  17  23
TORSDOF 3
ENDMDL
MODEL 6
REMARK VINA RESULT:      -6.0      3.664      6.929
REMARK  Name = 
REMARK  7 active torsions:
REMARK  status: ('A' for Active; 'I' for Inactive)
REMARK    1  A    between atoms: C_1  and  O_2
REMARK    2  A    between atoms: O_2  and  C_3
REMARK    3  A    between atoms: C_5  and  O_6
REMARK    4  A    between atoms: O_6  and  C_7
REMARK    5  A    between atoms: C_16  and  C_18
REMARK    6  A    between atoms: C_23  and  O_24
REMARK    7  A    between atoms: O_24  and  C_25
REMARK                            x       y       z     vdW  Elec       q    Type
REMARK                         _______ _______ _______ _____ _____    ______ ____
ROOT
ATOM      1  C   UNL     1       3.938  -7.009  25.157  0.00  0.00    +0.138 A 
ATOM      2  C   UNL     1       5.014  -6.145  24.996  0.00  0.00    +0.107 A 
ATOM      3  C   UNL     1       5.832  -5.772  23.844  0.00  0.00    +0.221 C 
ATOM      4  O   UNL     1       5.839  -6.346  22.768  0.00  0.00    -0.287 OA
ATOM      5  C   UNL     1       6.587  -4.487  24.242  0.00  0.00    +0.231 C 
ATOM      6  C   UNL     1       8.065  -4.295  23.906  0.00  0.00    +0.152 C 
ATOM      7  C   UNL     1       8.572  -3.081  23.629  0.00  0.00    +0.091 C 
ATOM      8  C   UNL     1       7.749  -1.836  23.759  0.00  0.00    +0.160 C 
ATOM      9  O   UNL     1       8.228  -0.748  23.465  0.00  0.00    -0.293 OA
ATOM     10  C   UNL     1       6.370  -1.985  24.351  0.00  0.00    +0.087 C 
ATOM     11  C   UNL     1       5.728  -3.256  23.788  0.00  0.00    +0.053 C 
ATOM     12  C   UNL     1       5.529  -3.116  22.268  0.00  0.00    +0.013 C 
ATOM     13  O   UNL     1       6.516  -4.522  25.700  0.00  0.00    -0.467 OA
ATOM     14  C   UNL     1       5.458  -5.334  26.020  0.00  0.00    +0.159 A 
ATOM     15  C   UNL     1       4.834  -5.308  27.255  0.00  0.00    +0.125 A 
ATOM     16 CL   UNL     1       5.398  -4.260  28.502  0.00  0.00    -0.076 Cl
ATOM     17  C   UNL     1       3.694  -6.104  27.427  0.00  0.00    +0.145 A 
ATOM     18  C   UNL     1       3.286  -6.977  26.399  0.00  0.00    +0.093 A 
ENDROOT
BRANCH   1  20
ATOM     19  C   UNL     1       2.136  -7.796  23.831  0.00  0.00    +0.277 C 
ATOM     20  O   UNL     1       3.538  -7.785  24.111  0.00  0.00    -0.494 OA
ENDBRANCH   1  20
BRANCH   6  21
ATOM     21  O   UNL     1       8.996  -5.254  24.291  0.00  0.00    -0.495 OA
ATOM     22  C   UNL     1       9.798  -5.026  25.435  0.00  0.00    +0.276 C 
ENDBRANCH   6  21
BRANCH  17  23
ATOM     23  O   UNL     1       3.002  -6.029  28.611  0.00  0.00    -0.493 OA
ATOM     24  C   UNL     1       3.230  -7.136  29.484  0.00  0.00    +0.277 C 
ENDBRANCH  17  23
TORSDOF 3
ENDMDL
MODEL 7
REMARK VINA RESULT:      -6.0      3.176      4.404
REMARK  Name = 
REMARK  7 active torsions:
REMARK  status: ('A' for Active; 'I' for Inactive)
REMARK    1  A    between atoms: C_1  and  O_2
REMARK    2  A    between atoms: O_2  and  C_3
REMARK    3  A    between atoms: C_5  and  O_6
REMARK    4  A    between atoms: O_6  and  C_7
REMARK    5  A    between atoms: C_16  and  C_18
REMARK    6  A    between atoms: C_23  and  O_24
REMARK    7  A    between atoms: O_24  and  C_25
REMARK                            x       y       z     vdW  Elec       q    Type
REMARK                         _______ _______ _______ _____ _____    ______ ____
ROOT
ATOM      1  C   UNL     1       6.713  -1.573  24.588  0.00  0.00    +0.138 A 
ATOM      2  C   UNL     1       6.157  -2.761  25.047  0.00  0.00    +0.107 A 
ATOM      3  C   UNL     1       4.792  -3.163  25.379  0.00  0.00    +0.221 C 
ATOM      4  O   UNL     1       3.845  -2.405  25.507  0.00  0.00    -0.287 OA
ATOM      5  C   UNL     1       4.793  -4.704  25.439  0.00  0.00    +0.231 C 
ATOM      6  C   UNL     1       4.064  -5.459  26.550  0.00  0.00    +0.152 C 
ATOM      7  C   UNL     1       3.494  -6.657  26.331  0.00  0.00    +0.091 C 
ATOM      8  C   UNL     1       3.651  -7.376  25.027  0.00  0.00    +0.160 C 
ATOM      9  O   UNL     1       3.090  -8.449  24.844  0.00  0.00    -0.293 OA
ATOM     10  C   UNL     1       4.592  -6.768  24.017  0.00  0.00    +0.087 C 
ATOM     11  C   UNL     1       4.403  -5.248  24.021  0.00  0.00    +0.053 C 
ATOM     12  C   UNL     1       2.982  -4.894  23.548  0.00  0.00    +0.013 C 
ATOM     13  O   UNL     1       6.210  -5.009  25.621  0.00  0.00    -0.467 OA
ATOM     14  C   UNL     1       6.904  -3.913  25.176  0.00  0.00    +0.159 A 
ATOM     15  C   UNL     1       8.241  -3.961  24.821  0.00  0.00    +0.125 A 
ATOM     16 CL   UNL     1       9.137  -5.427  24.968  0.00  0.00    -0.076 Cl
ATOM     17  C   UNL     1       8.814  -2.805  24.276  0.00  0.00    +0.145 A 
ATOM     18  C   UNL     1       8.062  -1.615  24.208  0.00  0.00    +0.093 A 
ENDROOT
BRANCH   1  20
ATOM     19  C   UNL     1       6.492   0.641  23.766  0.00  0.00    +0.277 C 
ATOM     20  O   UNL     1       5.928  -0.465  24.475  0.00  0.00    -0.494 OA
ENDBRANCH   1  20
BRANCH   6  21
ATOM     21  O   UNL     1       4.331  -5.162  27.882  0.00  0.00    -0.495 OA
ATOM     22  C   UNL     1       3.344  -4.511  28.662  0.00  0.00    +0.276 C 
ENDBRANCH   6  21
BRANCH  17  23
ATOM     23  O   UNL     1      10.112  -2.851  23.830  0.00  0.00    -0.493 OA
ATOM     24  C   UNL     1      10.439  -1.821  22.897  0.00  0.00    +0.277 C 
ENDBRANCH  17  23
TORSDOF 3
ENDMDL
MODEL 8
REMARK VINA RESULT:      -5.8      2.611      6.511
REMARK  Name = 
REMARK  7 active torsions:
REMARK  status: ('A' for Active; 'I' for Inactive)
REMARK    1  A    between atoms: C_1  and  O_2
REMARK    2  A    between atoms: O_2  and  C_3
REMARK    3  A    between atoms: C_5  and  O_6
REMARK    4  A    between atoms: O_6  and  C_7
REMARK    5  A    between atoms: C_16  and  C_18
REMARK    6  A    between atoms: C_23  and  O_24
REMARK    7  A    between atoms: O_24  and  C_25
REMARK                            x       y       z     vdW  Elec       q    Type
REMARK                         _______ _______ _______ _____ _____    ______ ____
ROOT
ATOM      1  C   UNL     1       5.272  -5.647  22.876  0.00  0.00    +0.138 A 
ATOM      2  C   UNL     1       5.878  -4.701  23.693  0.00  0.00    +0.107 A 
ATOM      3  C   UNL     1       7.249  -4.206  23.803  0.00  0.00    +0.221 C 
ATOM      4  O   UNL     1       8.227  -4.715  23.282  0.00  0.00    -0.287 OA
ATOM      5  C   UNL     1       7.176  -2.896  24.613  0.00  0.00    +0.231 C 
ATOM      6  C   UNL     1       8.192  -2.580  25.710  0.00  0.00    +0.152 C 
ATOM      7  C   UNL     1       8.581  -1.319  25.968  0.00  0.00    +0.091 C 
ATOM      8  C   UNL     1       7.950  -0.146  25.286  0.00  0.00    +0.160 C 
ATOM      9  O   UNL     1       8.351   0.989  25.515  0.00  0.00    -0.293 OA
ATOM     10  C   UNL     1       6.760  -0.425  24.401  0.00  0.00    +0.087 C 
ATOM     11  C   UNL     1       7.030  -1.704  23.604  0.00  0.00    +0.053 C 
ATOM     12  C   UNL     1       8.226  -1.492  22.658  0.00  0.00    +0.013 C 
ATOM     13  O   UNL     1       5.889  -3.019  25.292  0.00  0.00    -0.467 OA
ATOM     14  C   UNL     1       5.151  -3.921  24.569  0.00  0.00    +0.159 A 
ATOM     15  C   UNL     1       3.773  -4.010  24.656  0.00  0.00    +0.125 A 
ATOM     16 CL   UNL     1       2.894  -2.997  25.740  0.00  0.00    -0.076 Cl
ATOM     17  C   UNL     1       3.119  -4.893  23.787  0.00  0.00    +0.145 A 
ATOM     18  C   UNL     1       3.873  -5.732  22.942  0.00  0.00    +0.093 A 
ENDROOT
BRANCH   1  20
ATOM     19  C   UNL     1       6.182  -5.878  20.698  0.00  0.00    +0.277 C 
ATOM     20  O   UNL     1       6.037  -6.388  22.026  0.00  0.00    -0.494 OA
ENDBRANCH   1  20
BRANCH   6  21
ATOM     21  O   UNL     1       8.410  -3.492  26.738  0.00  0.00    -0.495 OA
ATOM     22  C   UNL     1       9.327  -4.553  26.544  0.00  0.00    +0.276 C 
ENDBRANCH   6  21
BRANCH  17  23
ATOM     23  O   UNL     1       1.747  -4.934  23.788  0.00  0.00    -0.493 OA
ATOM     24  C   UNL     1       1.197  -5.825  22.817  0.00  0.00    +0.277 C 
ENDBRANCH  17  23
TORSDOF 3
ENDMDL
MODEL 9
REMARK VINA RESULT:      -5.8      2.408      4.401
REMARK  Name = 
REMARK  7 active torsions:
REMARK  status: ('A' for Active; 'I' for Inactive)
REMARK    1  A    between atoms: C_1  and  O_2
REMARK    2  A    between atoms: O_2  and  C_3
REMARK    3  A    between atoms: C_5  and  O_6
REMARK    4  A    between atoms: O_6  and  C_7
REMARK    5  A    between atoms: C_16  and  C_18
REMARK    6  A    between atoms: C_23  and  O_24
REMARK    7  A    between atoms: O_24  and  C_25
REMARK                            x       y       z     vdW  Elec       q    Type
REMARK                         _______ _______ _______ _____ _____    ______ ____
ROOT
ATOM      1  C   UNL     1       9.030  -3.687  24.184  0.00  0.00    +0.138 A 
ATOM      2  C   UNL     1       7.651  -3.537  24.273  0.00  0.00    +0.107 A 
ATOM      3  C   UNL     1       6.586  -4.387  24.801  0.00  0.00    +0.221 C 
ATOM      4  O   UNL     1       6.707  -5.560  25.109  0.00  0.00    -0.287 OA
ATOM      5  C   UNL     1       5.347  -3.483  24.963  0.00  0.00    +0.231 C 
ATOM      6  C   UNL     1       3.954  -3.957  24.549  0.00  0.00    +0.152 C 
ATOM      7  C   UNL     1       2.850  -3.561  25.206  0.00  0.00    +0.091 C 
ATOM      8  C   UNL     1       2.909  -2.536  26.296  0.00  0.00    +0.160 C 
ATOM      9  O   UNL     1       1.892  -2.222  26.902  0.00  0.00    -0.293 OA
ATOM     10  C   UNL     1       4.237  -1.861  26.531  0.00  0.00    +0.087 C 
ATOM     11  C   UNL     1       5.348  -2.909  26.422  0.00  0.00    +0.053 C 
ATOM     12  C   UNL     1       5.197  -3.954  27.542  0.00  0.00    +0.013 C 
ATOM     13  O   UNL     1       5.659  -2.363  24.080  0.00  0.00    -0.467 OA
ATOM     14  C   UNL     1       7.021  -2.363  23.916  0.00  0.00    +0.159 A 
ATOM     15  C   UNL     1       7.729  -1.255  23.484  0.00  0.00    +0.125 A 
ATOM     16 CL   UNL     1       6.909   0.206  23.075  0.00  0.00    -0.076 Cl
ATOM     17  C   UNL     1       9.126  -1.341  23.462  0.00  0.00    +0.145 A 
ATOM     18  C   UNL     1       9.758  -2.563  23.766  0.00  0.00    +0.093 A 
ENDROOT
BRANCH   1  20
ATOM     19  C   UNL     1       9.967  -4.989  25.931  0.00  0.00    +0.277 C 
ATOM     20  O   UNL     1       9.602  -4.867  24.554  0.00  0.00    -0.494 OA
ENDBRANCH   1  20
BRANCH   6  21
ATOM     21  O   UNL     1       3.739  -4.439  23.261  0.00  0.00    -0.495 OA
ATOM     22  C   UNL     1       2.947  -5.598  23.076  0.00  0.00    +0.276 C 
ENDBRANCH   6  21
BRANCH  17  23
ATOM     23  O   UNL     1       9.857  -0.228  23.126  0.00  0.00    -0.493 OA
ATOM     24  C   UNL     1      10.592   0.330  24.216  0.00  0.00    +0.277 C 
ENDBRANCH  17  23
TORSDOF 3
ENDMDL
