MODEL 1
REMARK VINA RESULT:      -6.4      0.000      0.000
REMARK  Name = 
REMARK  5 active torsions:
REMARK  status: ('A' for Active; 'I' for Inactive)
REMARK    1  A    between atoms: O_1  and  C_2
REMARK    2  A    between atoms: C_2  and  C_4
REMARK    3  A    between atoms: N_6  and  C_7
REMARK    4  A    between atoms: C_15  and  C_16
REMARK    5  A    between atoms: C_16  and  O_17
REMARK                            x       y       z     vdW  Elec       q    Type
REMARK                         _______ _______ _______ _____ _____    ______ ____
ROOT
ATOM      1  C   UNL     1       8.419  -3.234  24.009  0.00  0.00    +0.050 A 
ATOM      2  C   UNL     1       8.617  -4.535  24.530  0.00  0.00    +0.081 A 
ATOM      3  C   UNL     1       8.070  -5.664  23.876  0.00  0.00    +0.026 A 
ATOM      4  C   UNL     1       7.288  -5.489  22.718  0.00  0.00    +0.001 A 
ATOM      5  C   UNL     1       6.576  -6.361  21.851  0.00  0.00    +0.027 A 
ATOM      6  C   UNL     1       6.002  -5.596  20.860  0.00  0.00    +0.083 A 
ATOM      7  N   UNL     1       6.354  -4.292  21.083  0.00  0.00    -0.361 N 
ATOM      8  H   UNL     1       6.097  -3.505  20.502  0.00  0.00    +0.165 HD
ATOM      9  C   UNL     1       7.115  -4.200  22.227  0.00  0.00    +0.048 A 
ATOM     10  C   UNL     1       7.660  -3.071  22.837  0.00  0.00    +0.050 A 
ENDROOT
BRANCH   1  12
ATOM     11  C   UNL     1       9.841  -1.187  24.151  0.00  0.00    +0.325 C 
ATOM     12  N   UNL     1       8.942  -2.093  24.674  0.00  0.00    -0.275 N 
ATOM     13  H   UNL     1       8.719  -1.978  25.668  0.00  0.00    +0.155 HD
ATOM     14  O   UNL     1      10.453  -1.219  23.087  0.00  0.00    -0.263 OA
BRANCH  11  15
ATOM     15  C   UNL     1      10.138   0.024  25.047  0.00  0.00    +0.393 C 
ATOM     16  O   UNL     1      10.862   0.942  24.719  0.00  0.00    -0.240 OA
BRANCH  15  17
ATOM     17  O   UNL     1       9.511  -0.119  26.234  0.00  0.00    -0.474 OA
ATOM     18  H   UNL     1      10.140  -0.529  26.872  0.00  0.00    +0.296 HD
ENDBRANCH  15  17
ENDBRANCH  11  15
ENDBRANCH   1  12
BRANCH   2  19
ATOM     19  C   UNL     1       9.475  -4.734  25.729  0.00  0.00    +0.339 C 
ATOM     20  O   UNL     1       9.175  -4.297  26.828  0.00  0.00    -0.245 OA
BRANCH  19  21
ATOM     21  O   UNL     1      10.583  -5.475  25.522  0.00  0.00    -0.477 OA
ATOM     22  H   UNL     1      10.457  -6.442  25.519  0.00  0.00    +0.295 HD
ENDBRANCH  19  21
ENDBRANCH   2  19
TORSDOF 5
ENDMDL
MODEL 2
REMARK VINA RESULT:      -6.3      3.014      5.300
REMARK  Name = 
REMARK  5 active torsions:
REMARK  status: ('A' for Active; 'I' for Inactive)
REMARK    1  A    between atoms: O_1  and  C_2
REMARK    2  A    between atoms: C_2  and  C_4
REMARK    3  A    between atoms: N_6  and  C_7
REMARK    4  A    between atoms: C_15  and  C_16
REMARK    5  A    between atoms: C_16  and  O_17
REMARK                            x       y       z     vdW  Elec       q    Type
REMARK                         _______ _______ _______ _____ _____    ______ ____
ROOT
ATOM      1  C   UNL     1       7.639  -4.248  23.473  0.00  0.00    +0.050 A 
ATOM      2  C   UNL     1       8.696  -4.236  24.415  0.00  0.00    +0.081 A 
ATOM      3  C   UNL     1       9.674  -3.215  24.388  0.00  0.00    +0.026 A 
ATOM      4  C   UNL     1       9.621  -2.223  23.389  0.00  0.00    +0.001 A 
ATOM      5  C   UNL     1      10.428  -1.106  23.045  0.00  0.00    +0.027 A 
ATOM      6  C   UNL     1       9.852  -0.487  21.958  0.00  0.00    +0.083 A 
ATOM      7  N   UNL     1       8.715  -1.178  21.638  0.00  0.00    -0.361 N 
ATOM      8  H   UNL     1       8.071  -0.942  20.895  0.00  0.00    +0.165 HD
ATOM      9  C   UNL     1       8.569  -2.258  22.481  0.00  0.00    +0.048 A 
ATOM     10  C   UNL     1       7.578  -3.239  22.497  0.00  0.00    +0.050 A 
ENDROOT
BRANCH   1  12
ATOM     11  C   UNL     1       5.355  -5.167  23.885  0.00  0.00    +0.325 C 
ATOM     12  N   UNL     1       6.668  -5.283  23.478  0.00  0.00    -0.275 N 
ATOM     13  H   UNL     1       6.984  -6.233  23.258  0.00  0.00    +0.155 HD
ATOM     14  O   UNL     1       4.784  -4.219  24.418  0.00  0.00    -0.263 OA
BRANCH  11  15
ATOM     15  C   UNL     1       4.492  -6.417  23.662  0.00  0.00    +0.393 C 
ATOM     16  O   UNL     1       4.502  -7.382  24.399  0.00  0.00    -0.240 OA
BRANCH  15  17
ATOM     17  O   UNL     1       3.773  -6.282  22.527  0.00  0.00    -0.474 OA
ATOM     18  H   UNL     1       2.824  -6.171  22.769  0.00  0.00    +0.296 HD
ENDBRANCH  15  17
ENDBRANCH  11  15
ENDBRANCH   1  12
BRANCH   2  19
ATOM     19  C   UNL     1       8.738  -5.255  25.498  0.00  0.00    +0.339 C 
ATOM     20  O   UNL     1       7.820  -5.410  26.287  0.00  0.00    -0.245 OA
BRANCH  19  21
ATOM     21  O   UNL     1       9.844  -6.027  25.513  0.00  0.00    -0.477 OA
ATOM     22  H   UNL     1       9.705  -6.970  25.719  0.00  0.00    +0.295 HD
ENDBRANCH  19  21
ENDBRANCH   2  19
TORSDOF 5
ENDMDL
MODEL 3
REMARK VINA RESULT:      -6.1      2.841      5.735
REMARK  Name = 
REMARK  5 active torsions:
REMARK  status: ('A' for Active; 'I' for Inactive)
REMARK    1  A    between atoms: O_1  and  C_2
REMARK    2  A    between atoms: C_2  and  C_4
REMARK    3  A    between atoms: N_6  and  C_7
REMARK    4  A    between atoms: C_15  and  C_16
REMARK    5  A    between atoms: C_16  and  O_17
REMARK                            x       y       z     vdW  Elec       q    Type
REMARK                         _______ _______ _______ _____ _____    ______ ____
ROOT
ATOM      1  C   UNL     1       8.682  -1.552  24.347  0.00  0.00    +0.050 A 
ATOM      2  C   UNL     1       8.092  -1.372  23.073  0.00  0.00    +0.081 A 
ATOM      3  C   UNL     1       8.428  -0.256  22.273  0.00  0.00    +0.026 A 
ATOM      4  C   UNL     1       9.328   0.710  22.765  0.00  0.00    +0.001 A 
ATOM      5  C   UNL     1       9.849   1.936  22.270  0.00  0.00    +0.027 A 
ATOM      6  C   UNL     1      10.717   2.437  23.214  0.00  0.00    +0.083 A 
ATOM      7  N   UNL     1      10.756   1.553  24.257  0.00  0.00    -0.361 N 
ATOM      8  H   UNL     1      11.327   1.645  25.087  0.00  0.00    +0.165 HD
ATOM      9  C   UNL     1       9.894   0.505  24.017  0.00  0.00    +0.048 A 
ATOM     10  C   UNL     1       9.600  -0.597  24.818  0.00  0.00    +0.050 A 
ENDROOT
BRANCH   1  12
ATOM     11  C   UNL     1       9.016  -3.850  25.263  0.00  0.00    +0.325 C 
ATOM     12  N   UNL     1       8.330  -2.656  25.166  0.00  0.00    -0.275 N 
ATOM     13  H   UNL     1       7.432  -2.616  25.659  0.00  0.00    +0.155 HD
ATOM     14  O   UNL     1       9.973  -4.255  24.609  0.00  0.00    -0.263 OA
BRANCH  11  15
ATOM     15  C   UNL     1       8.482  -4.822  26.325  0.00  0.00    +0.393 C 
ATOM     16  O   UNL     1       7.789  -4.481  27.261  0.00  0.00    -0.240 OA
BRANCH  15  17
ATOM     17  O   UNL     1       8.931  -6.070  26.071  0.00  0.00    -0.474 OA
ATOM     18  H   UNL     1       8.185  -6.603  25.711  0.00  0.00    +0.296 HD
ENDBRANCH  15  17
ENDBRANCH  11  15
ENDBRANCH   1  12
BRANCH   2  19
ATOM     19  C   UNL     1       7.172  -2.407  22.527  0.00  0.00    +0.339 C 
ATOM     20  O   UNL     1       7.565  -3.499  22.150  0.00  0.00    -0.245 OA
BRANCH  19  21
ATOM     21  O   UNL     1       5.867  -2.067  22.526  0.00  0.00    -0.477 OA
ATOM     22  H   UNL     1       5.276  -2.636  21.998  0.00  0.00    +0.295 HD
ENDBRANCH  19  21
ENDBRANCH   2  19
TORSDOF 5
ENDMDL
MODEL 4
REMARK VINA RESULT:      -6.1      3.041      5.745
REMARK  Name = 
REMARK  5 active torsions:
REMARK  status: ('A' for Active; 'I' for Inactive)
REMARK    1  A    between atoms: O_1  and  C_2
REMARK    2  A    between atoms: C_2  and  C_4
REMARK    3  A    between atoms: N_6  and  C_7
REMARK    4  A    between atoms: C_15  and  C_16
REMARK    5  A    between atoms: C_16  and  O_17
REMARK                            x       y       z     vdW  Elec       q    Type
REMARK                         _______ _______ _______ _____ _____    ______ ____
ROOT
ATOM      1  C   UNL     1       8.858  -1.571  22.698  0.00  0.00    +0.050 A 
ATOM      2  C   UNL     1       9.421  -1.545  23.997  0.00  0.00    +0.081 A 
ATOM      3  C   UNL     1      10.068  -0.384  24.479  0.00  0.00    +0.026 A 
ATOM      4  C   UNL     1      10.190   0.745  23.646  0.00  0.00    +0.001 A 
ATOM      5  C   UNL     1      10.787   2.027  23.779  0.00  0.00    +0.027 A 
ATOM      6  C   UNL     1      10.565   2.721  22.610  0.00  0.00    +0.083 A 
ATOM      7  N   UNL     1       9.840   1.913  21.777  0.00  0.00    -0.361 N 
ATOM      8  H   UNL     1       9.508   2.163  20.855  0.00  0.00    +0.165 HD
ATOM      9  C   UNL     1       9.623   0.692  22.377  0.00  0.00    +0.048 A 
ATOM     10  C   UNL     1       8.960  -0.430  21.883  0.00  0.00    +0.050 A 
ENDROOT
BRANCH   1  12
ATOM     11  C   UNL     1       6.904  -3.086  22.355  0.00  0.00    +0.325 C 
ATOM     12  N   UNL     1       8.230  -2.741  22.197  0.00  0.00    -0.275 N 
ATOM     13  H   UNL     1       8.827  -3.453  21.764  0.00  0.00    +0.155 HD
ATOM     14  O   UNL     1       6.032  -2.544  23.030  0.00  0.00    -0.263 OA
BRANCH  11  15
ATOM     15  C   UNL     1       6.464  -4.347  21.598  0.00  0.00    +0.393 C 
ATOM     16  O   UNL     1       5.698  -4.334  20.657  0.00  0.00    -0.240 OA
BRANCH  15  17
ATOM     17  O   UNL     1       7.024  -5.438  22.162  0.00  0.00    -0.474 OA
ATOM     18  H   UNL     1       7.435  -5.982  21.450  0.00  0.00    +0.296 HD
ENDBRANCH  15  17
ENDBRANCH  11  15
ENDBRANCH   1  12
BRANCH   2  19
ATOM     19  C   UNL     1       9.263  -2.717  24.899  0.00  0.00    +0.339 C 
ATOM     20  O   UNL     1       8.629  -2.660  25.941  0.00  0.00    -0.245 OA
BRANCH  19  21
ATOM     21  O   UNL     1       9.828  -3.859  24.458  0.00  0.00    -0.477 OA
ATOM     22  H   UNL     1       9.416  -4.688  24.764  0.00  0.00    +0.295 HD
ENDBRANCH  19  21
ENDBRANCH   2  19
TORSDOF 5
ENDMDL
MODEL 5
REMARK VINA RESULT:      -6.1      3.291      4.420
REMARK  Name = 
REMARK  5 active torsions:
REMARK  status: ('A' for Active; 'I' for Inactive)
REMARK    1  A    between atoms: O_1  and  C_2
REMARK    2  A    between atoms: C_2  and  C_4
REMARK    3  A    between atoms: N_6  and  C_7
REMARK    4  A    between atoms: C_15  and  C_16
REMARK    5  A    between atoms: C_16  and  O_17
REMARK                            x       y       z     vdW  Elec       q    Type
REMARK                         _______ _______ _______ _____ _____    ______ ____
ROOT
ATOM      1  C   UNL     1       7.239  -4.467  23.734  0.00  0.00    +0.050 A 
ATOM      2  C   UNL     1       6.117  -4.962  23.028  0.00  0.00    +0.081 A 
ATOM      3  C   UNL     1       5.127  -5.725  23.690  0.00  0.00    +0.026 A 
ATOM      4  C   UNL     1       5.280  -6.032  25.057  0.00  0.00    +0.001 A 
ATOM      5  C   UNL     1       4.531  -6.780  26.004  0.00  0.00    +0.027 A 
ATOM      6  C   UNL     1       5.186  -6.707  27.213  0.00  0.00    +0.083 A 
ATOM      7  N   UNL     1       6.297  -5.929  27.040  0.00  0.00    -0.361 N 
ATOM      8  H   UNL     1       6.961  -5.679  27.761  0.00  0.00    +0.165 HD
ATOM      9  C   UNL     1       6.390  -5.529  25.725  0.00  0.00    +0.048 A 
ATOM     10  C   UNL     1       7.370  -4.754  25.104  0.00  0.00    +0.050 A 
ENDROOT
BRANCH   1  12
ATOM     11  C   UNL     1       8.265  -2.355  22.887  0.00  0.00    +0.325 C 
ATOM     12  N   UNL     1       8.249  -3.722  23.071  0.00  0.00    -0.275 N 
ATOM     13  H   UNL     1       8.990  -4.245  22.593  0.00  0.00    +0.155 HD
ATOM     14  O   UNL     1       7.397  -1.523  23.139  0.00  0.00    -0.263 OA
BRANCH  11  15
ATOM     15  C   UNL     1       9.545  -1.799  22.247  0.00  0.00    +0.393 C 
ATOM     16  O   UNL     1      10.660  -2.014  22.676  0.00  0.00    -0.240 OA
BRANCH  15  17
ATOM     17  O   UNL     1       9.229  -1.026  21.186  0.00  0.00    -0.474 OA
ATOM     18  H   UNL     1       8.644  -1.544  20.585  0.00  0.00    +0.296 HD
ENDBRANCH  15  17
ENDBRANCH  11  15
ENDBRANCH   1  12
BRANCH   2  19
ATOM     19  C   UNL     1       5.925  -4.610  21.596  0.00  0.00    +0.339 C 
ATOM     20  O   UNL     1       6.051  -5.427  20.698  0.00  0.00    -0.245 OA
BRANCH  19  21
ATOM     21  O   UNL     1       5.554  -3.333  21.366  0.00  0.00    -0.477 OA
ATOM     22  H   UNL     1       5.122  -3.161  20.509  0.00  0.00    +0.295 HD
ENDBRANCH  19  21
ENDBRANCH   2  19
TORSDOF 5
ENDMDL
MODEL 6
REMARK VINA RESULT:      -6.1      3.452      5.505
REMARK  Name = 
REMARK  5 active torsions:
REMARK  status: ('A' for Active; 'I' for Inactive)
REMARK    1  A    between atoms: O_1  and  C_2
REMARK    2  A    between atoms: C_2  and  C_4
REMARK    3  A    between atoms: N_6  and  C_7
REMARK    4  A    between atoms: C_15  and  C_16
REMARK    5  A    between atoms: C_16  and  O_17
REMARK                            x       y       z     vdW  Elec       q    Type
REMARK                         _______ _______ _______ _____ _____    ______ ____
ROOT
ATOM      1  C   UNL     1       8.530  -3.008  26.040  0.00  0.00    +0.050 A 
ATOM      2  C   UNL     1       9.134  -3.479  24.849  0.00  0.00    +0.081 A 
ATOM      3  C   UNL     1       9.792  -2.586  23.972  0.00  0.00    +0.026 A 
ATOM      4  C   UNL     1       9.813  -1.208  24.265  0.00  0.00    +0.001 A 
ATOM      5  C   UNL     1      10.331  -0.056  23.616  0.00  0.00    +0.027 A 
ATOM      6  C   UNL     1      10.052   1.036  24.407  0.00  0.00    +0.083 A 
ATOM      7  N   UNL     1       9.398   0.587  25.522  0.00  0.00    -0.361 N 
ATOM      8  H   UNL     1       9.087   1.162  26.294  0.00  0.00    +0.165 HD
ATOM      9  C   UNL     1       9.216  -0.776  25.444  0.00  0.00    +0.048 A 
ATOM     10  C   UNL     1       8.580  -1.635  26.338  0.00  0.00    +0.050 A 
ENDROOT
BRANCH   1  12
ATOM     11  C   UNL     1       6.496  -4.179  26.890  0.00  0.00    +0.325 C 
ATOM     12  N   UNL     1       7.845  -3.894  26.912  0.00  0.00    -0.275 N 
ATOM     13  H   UNL     1       8.371  -4.287  27.700  0.00  0.00    +0.155 HD
ATOM     14  O   UNL     1       5.602  -3.670  26.218  0.00  0.00    -0.263 OA
BRANCH  11  15
ATOM     15  C   UNL     1       6.046  -5.273  27.868  0.00  0.00    +0.393 C 
ATOM     16  O   UNL     1       4.905  -5.393  28.265  0.00  0.00    -0.240 OA
BRANCH  15  17
ATOM     17  O   UNL     1       7.104  -6.029  28.229  0.00  0.00    -0.474 OA
ATOM     18  H   UNL     1       6.832  -6.977  28.216  0.00  0.00    +0.296 HD
ENDBRANCH  15  17
ENDBRANCH  11  15
ENDBRANCH   1  12
BRANCH   2  19
ATOM     19  C   UNL     1       9.153  -4.937  24.552  0.00  0.00    +0.339 C 
ATOM     20  O   UNL     1       8.467  -5.434  23.673  0.00  0.00    -0.245 OA
BRANCH  19  21
ATOM     21  O   UNL     1      10.020  -5.660  25.290  0.00  0.00    -0.477 OA
ATOM     22  H   UNL     1      10.852  -5.213  25.532  0.00  0.00    +0.295 HD
ENDBRANCH  19  21
ENDBRANCH   2  19
TORSDOF 5
ENDMDL
MODEL 7
REMARK VINA RESULT:      -6.0      3.255      3.898
REMARK  Name = 
REMARK  5 active torsions:
REMARK  status: ('A' for Active; 'I' for Inactive)
REMARK    1  A    between atoms: O_1  and  C_2
REMARK    2  A    between atoms: C_2  and  C_4
REMARK    3  A    between atoms: N_6  and  C_7
REMARK    4  A    between atoms: C_15  and  C_16
REMARK    5  A    between atoms: C_16  and  O_17
REMARK                            x       y       z     vdW  Elec       q    Type
REMARK                         _______ _______ _______ _____ _____    ______ ____
ROOT
ATOM      1  C   UNL     1       6.119  -5.157  25.160  0.00  0.00    +0.050 A 
ATOM      2  C   UNL     1       5.873  -5.809  26.392  0.00  0.00    +0.081 A 
ATOM      3  C   UNL     1       4.833  -6.760  26.509  0.00  0.00    +0.026 A 
ATOM      4  C   UNL     1       4.008  -7.033  25.401  0.00  0.00    +0.001 A 
ATOM      5  C   UNL     1       2.884  -7.871  25.173  0.00  0.00    +0.027 A 
ATOM      6  C   UNL     1       2.505  -7.722  23.857  0.00  0.00    +0.083 A 
ATOM      7  N   UNL     1       3.368  -6.835  23.272  0.00  0.00    -0.361 N 
ATOM      8  H   UNL     1       3.350  -6.548  22.303  0.00  0.00    +0.165 HD
ATOM      9  C   UNL     1       4.276  -6.380  24.203  0.00  0.00    +0.048 A 
ATOM     10  C   UNL     1       5.308  -5.455  24.051  0.00  0.00    +0.050 A 
ENDROOT
BRANCH   1  12
ATOM     11  C   UNL     1       8.435  -4.405  24.607  0.00  0.00    +0.325 C 
ATOM     12  N   UNL     1       7.144  -4.182  25.040  0.00  0.00    -0.275 N 
ATOM     13  H   UNL     1       6.951  -3.242  25.403  0.00  0.00    +0.155 HD
ATOM     14  O   UNL     1       8.998  -5.465  24.347  0.00  0.00    -0.263 OA
BRANCH  11  15
ATOM     15  C   UNL     1       9.297  -3.144  24.455  0.00  0.00    +0.393 C 
ATOM     16  O   UNL     1      10.260  -3.071  23.720  0.00  0.00    -0.240 OA
BRANCH  15  17
ATOM     17  O   UNL     1       8.841  -2.175  25.278  0.00  0.00    -0.474 OA
ATOM     18  H   UNL     1       8.821  -2.529  26.197  0.00  0.00    +0.296 HD
ENDBRANCH  15  17
ENDBRANCH  11  15
ENDBRANCH   1  12
BRANCH   2  19
ATOM     19  C   UNL     1       6.764  -5.559  27.556  0.00  0.00    +0.339 C 
ATOM     20  O   UNL     1       6.365  -5.043  28.587  0.00  0.00    -0.245 OA
BRANCH  19  21
ATOM     21  O   UNL     1       8.034  -5.990  27.407  0.00  0.00    -0.477 OA
ATOM     22  H   UNL     1       8.143  -6.869  27.002  0.00  0.00    +0.295 HD
ENDBRANCH  19  21
ENDBRANCH   2  19
TORSDOF 5
ENDMDL
MODEL 8
REMARK VINA RESULT:      -6.0      2.970      5.550
REMARK  Name = 
REMARK  5 active torsions:
REMARK  status: ('A' for Active; 'I' for Inactive)
REMARK    1  A    between atoms: O_1  and  C_2
REMARK    2  A    between atoms: C_2  and  C_4
REMARK    3  A    between atoms: N_6  and  C_7
REMARK    4  A    between atoms: C_15  and  C_16
REMARK    5  A    between atoms: C_16  and  O_17
REMARK                            x       y       z     vdW  Elec       q    Type
REMARK                         _______ _______ _______ _____ _____    ______ ____
ROOT
ATOM      1  C   UNL     1       8.105  -3.199  23.359  0.00  0.00    +0.050 A 
ATOM      2  C   UNL     1       7.964  -3.059  24.761  0.00  0.00    +0.081 A 
ATOM      3  C   UNL     1       8.559  -1.972  25.441  0.00  0.00    +0.026 A 
ATOM      4  C   UNL     1       9.334  -1.039  24.724  0.00  0.00    +0.001 A 
ATOM      5  C   UNL     1      10.084   0.116  25.071  0.00  0.00    +0.027 A 
ATOM      6  C   UNL     1      10.624   0.633  23.915  0.00  0.00    +0.083 A 
ATOM      7  N   UNL     1      10.217  -0.156  22.874  0.00  0.00    -0.361 N 
ATOM      8  H   UNL     1      10.439  -0.007  21.899  0.00  0.00    +0.165 HD
ATOM      9  C   UNL     1       9.451  -1.199  23.348  0.00  0.00    +0.048 A 
ATOM     10  C   UNL     1       8.857  -2.248  22.647  0.00  0.00    +0.050 A 
ENDROOT
BRANCH   1  12
ATOM     11  C   UNL     1       6.366  -4.286  21.934  0.00  0.00    +0.325 C 
ATOM     12  N   UNL     1       7.532  -4.301  22.673  0.00  0.00    -0.275 N 
ATOM     13  H   UNL     1       7.958  -5.223  22.814  0.00  0.00    +0.155 HD
ATOM     14  O   UNL     1       5.538  -3.388  21.803  0.00  0.00    -0.263 OA
BRANCH  11  15
ATOM     15  C   UNL     1       6.049  -5.592  21.193  0.00  0.00    +0.393 C 
ATOM     16  O   UNL     1       5.975  -5.679  19.985  0.00  0.00    -0.240 OA
BRANCH  15  17
ATOM     17  O   UNL     1       5.835  -6.584  22.083  0.00  0.00    -0.474 OA
ATOM     18  H   UNL     1       5.964  -7.448  21.626  0.00  0.00    +0.296 HD
ENDBRANCH  15  17
ENDBRANCH  11  15
ENDBRANCH   1  12
BRANCH   2  19
ATOM     19  C   UNL     1       7.114  -4.015  25.521  0.00  0.00    +0.339 C 
ATOM     20  O   UNL     1       6.061  -3.684  26.041  0.00  0.00    -0.245 OA
BRANCH  19  21
ATOM     21  O   UNL     1       7.568  -5.285  25.550  0.00  0.00    -0.477 OA
ATOM     22  H   UNL     1       7.030  -5.921  26.056  0.00  0.00    +0.295 HD
ENDBRANCH  19  21
ENDBRANCH   2  19
TORSDOF 5
ENDMDL
MODEL 9
REMARK VINA RESULT:      -5.9      2.949      5.741
REMARK  Name = 
REMARK  5 active torsions:
REMARK  status: ('A' for Active; 'I' for Inactive)
REMARK    1  A    between atoms: O_1  and  C_2
REMARK    2  A    between atoms: C_2  and  C_4
REMARK    3  A    between atoms: N_6  and  C_7
REMARK    4  A    between atoms: C_15  and  C_16
REMARK    5  A    between atoms: C_16  and  O_17
REMARK                            x       y       z     vdW  Elec       q    Type
REMARK                         _______ _______ _______ _____ _____    ______ ____
ROOT
ATOM      1  C   UNL     1       8.177  -2.379  24.591  0.00  0.00    +0.050 A 
ATOM      2  C   UNL     1       7.878  -2.091  23.237  0.00  0.00    +0.081 A 
ATOM      3  C   UNL     1       8.487  -0.997  22.581  0.00  0.00    +0.026 A 
ATOM      4  C   UNL     1       9.369  -0.158  23.292  0.00  0.00    +0.001 A 
ATOM      5  C   UNL     1      10.108   1.013  22.976  0.00  0.00    +0.027 A 
ATOM      6  C   UNL     1      10.818   1.379  24.098  0.00  0.00    +0.083 A 
ATOM      7  N   UNL     1      10.550   0.464  25.079  0.00  0.00    -0.361 N 
ATOM      8  H   UNL     1      10.949   0.462  26.009  0.00  0.00    +0.165 HD
ATOM      9  C   UNL     1       9.646  -0.468  24.618  0.00  0.00    +0.048 A 
ATOM     10  C   UNL     1       9.079  -1.554  25.285  0.00  0.00    +0.050 A 
ENDROOT
BRANCH   1  12
ATOM     11  C   UNL     1       8.100  -4.704  25.497  0.00  0.00    +0.325 C 
ATOM     12  N   UNL     1       7.550  -3.460  25.264  0.00  0.00    -0.275 N 
ATOM     13  H   UNL     1       6.562  -3.355  25.515  0.00  0.00    +0.155 HD
ATOM     14  O   UNL     1       9.161  -5.176  25.095  0.00  0.00    -0.263 OA
BRANCH  11  15
ATOM     15  C   UNL     1       7.247  -5.641  26.362  0.00  0.00    +0.393 C 
ATOM     16  O   UNL     1       6.107  -5.958  26.088  0.00  0.00    -0.240 OA
BRANCH  15  17
ATOM     17  O   UNL     1       7.940  -6.008  27.461  0.00  0.00    -0.474 OA
ATOM     18  H   UNL     1       7.545  -6.839  27.817  0.00  0.00    +0.296 HD
ENDBRANCH  15  17
ENDBRANCH  11  15
ENDBRANCH   1  12
BRANCH   2  19
ATOM     19  C   UNL     1       6.981  -2.993  22.466  0.00  0.00    +0.339 C 
ATOM     20  O   UNL     1       7.298  -4.133  22.168  0.00  0.00    -0.245 OA
BRANCH  19  21
ATOM     21  O   UNL     1       5.773  -2.475  22.165  0.00  0.00    -0.477 OA
ATOM     22  H   UNL     1       5.141  -3.082  21.736  0.00  0.00    +0.295 HD
ENDBRANCH  19  21
ENDBRANCH   2  19
TORSDOF 5
ENDMDL
