MODEL 1
REMARK VINA RESULT:      -4.1      0.000      0.000
REMARK  Name = 
REMARK  8 active torsions:
REMARK  status: ('A' for Active; 'I' for Inactive)
REMARK    1  A    between atoms: C_2  and  N_3
REMARK    2  A    between atoms: C_2  and  C_4
REMARK    3  A    between atoms: C_2  and  C_10
REMARK    4  A    between atoms: C_4  and  S_5
REMARK    5  A    between atoms: S_5  and  S_6
REMARK    6  A    between atoms: S_6  and  C_7
REMARK    7  A    between atoms: C_7  and  C_8
REMARK    8  A    between atoms: C_8  and  C_9
REMARK                            x       y       z     vdW  Elec       q    Type
REMARK                         _______ _______ _______ _____ _____    ______ ____
ROOT
ATOM      1  C   UNK     1       9.153  -4.627  25.656  0.00  0.00    +0.125 C 
ENDROOT
BRANCH   1   2
ATOM      2  N   UNK     1      10.233  -5.626  25.461  0.00  0.00    -0.321 NA
ATOM      3  H   UNK     1      10.900  -5.243  24.787  0.00  0.00    +0.119 HD
ATOM      4  H   UNK     1      10.775  -5.671  26.329  0.00  0.00    +0.119 HD
ENDBRANCH   1   2
BRANCH   1   5
ATOM      5  C   UNK     1       7.941  -5.305  26.283  0.00  0.00    +0.242 C 
ATOM      6  O   UNK     1       7.701  -5.290  27.488  0.00  0.00    -0.299 OA
ENDBRANCH   1   5
BRANCH   1   7
ATOM      7  C   UNK     1       8.763  -4.006  24.310  0.00  0.00    +0.107 C 
BRANCH   7   8
ATOM      8  S   UNK     1       9.559  -2.400  23.916  0.00  0.00    -0.091 S 
BRANCH   8   9
ATOM      9  S   UNK     1       8.396  -1.647  22.396  0.00  0.00    -0.093 S 
BRANCH   9  10
ATOM     10  C   UNK     1       9.586  -0.577  21.530  0.00  0.00    +0.081 C 
BRANCH  10  11
ATOM     11  C   UNK     1       9.065   0.854  21.459  0.00  0.00    +0.008 C 
ATOM     12  C   UNK     1      10.045   1.805  22.129  0.00  0.00    +0.004 C 
ENDBRANCH  10  11
ENDBRANCH   9  10
ENDBRANCH   8   9
ENDBRANCH   7   8
ENDBRANCH   1   7
TORSDOF 7
ENDMDL
MODEL 2
REMARK VINA RESULT:      -3.9      3.204      3.862
REMARK  Name = 
REMARK  8 active torsions:
REMARK  status: ('A' for Active; 'I' for Inactive)
REMARK    1  A    between atoms: C_2  and  N_3
REMARK    2  A    between atoms: C_2  and  C_4
REMARK    3  A    between atoms: C_2  and  C_10
REMARK    4  A    between atoms: C_4  and  S_5
REMARK    5  A    between atoms: S_5  and  S_6
REMARK    6  A    between atoms: S_6  and  C_7
REMARK    7  A    between atoms: C_7  and  C_8
REMARK    8  A    between atoms: C_8  and  C_9
REMARK                            x       y       z     vdW  Elec       q    Type
REMARK                         _______ _______ _______ _____ _____    ______ ____
ROOT
ATOM      1  C   UNK     1       9.064  -4.625  26.379  0.00  0.00    +0.125 C 
ENDROOT
BRANCH   1   2
ATOM      2  N   UNK     1       9.960  -5.389  25.476  0.00  0.00    -0.321 NA
ATOM      3  H   UNK     1       9.504  -6.278  25.257  0.00  0.00    +0.119 HD
ATOM      4  H   UNK     1       9.977  -4.905  24.573  0.00  0.00    +0.119 HD
ENDBRANCH   1   2
BRANCH   1   5
ATOM      5  C   UNK     1       7.806  -5.442  26.653  0.00  0.00    +0.242 C 
ATOM      6  O   UNK     1       7.449  -5.783  27.779  0.00  0.00    -0.299 OA
ENDBRANCH   1   5
BRANCH   1   7
ATOM      7  C   UNK     1       8.686  -3.287  25.736  0.00  0.00    +0.107 C 
BRANCH   7   8
ATOM      8  S   UNK     1       9.467  -2.938  24.113  0.00  0.00    -0.091 S 
BRANCH   8   9
ATOM      9  S   UNK     1       7.863  -2.680  22.851  0.00  0.00    -0.093 S 
BRANCH   9  10
ATOM     10  C   UNK     1       6.850  -4.136  23.256  0.00  0.00    +0.081 C 
BRANCH  10  11
ATOM     11  C   UNK     1       7.517  -5.410  22.751  0.00  0.00    +0.008 C 
ATOM     12  C   UNK     1       6.531  -6.233  21.936  0.00  0.00    +0.004 C 
ENDBRANCH  10  11
ENDBRANCH   9  10
ENDBRANCH   8   9
ENDBRANCH   7   8
ENDBRANCH   1   7
TORSDOF 7
ENDMDL
MODEL 3
REMARK VINA RESULT:      -3.7      3.883      6.067
REMARK  Name = 
REMARK  8 active torsions:
REMARK  status: ('A' for Active; 'I' for Inactive)
REMARK    1  A    between atoms: C_2  and  N_3
REMARK    2  A    between atoms: C_2  and  C_4
REMARK    3  A    between atoms: C_2  and  C_10
REMARK    4  A    between atoms: C_4  and  S_5
REMARK    5  A    between atoms: S_5  and  S_6
REMARK    6  A    between atoms: S_6  and  C_7
REMARK    7  A    between atoms: C_7  and  C_8
REMARK    8  A    between atoms: C_8  and  C_9
REMARK                            x       y       z     vdW  Elec       q    Type
REMARK                         _______ _______ _______ _____ _____    ______ ____
ROOT
ATOM      1  C   UNK     1       9.580   1.127  22.573  0.00  0.00    +0.125 C 
ENDROOT
BRANCH   1   2
ATOM      2  N   UNK     1      10.118   2.198  21.698  0.00  0.00    -0.321 NA
ATOM      3  H   UNK     1       9.833   1.993  20.737  0.00  0.00    +0.119 HD
ATOM      4  H   UNK     1       9.608   3.061  21.914  0.00  0.00    +0.119 HD
ENDBRANCH   1   2
BRANCH   1   5
ATOM      5  C   UNK     1      10.150   1.286  23.978  0.00  0.00    +0.242 C 
ATOM      6  O   UNK     1      11.171   0.722  24.364  0.00  0.00    -0.299 OA
ENDBRANCH   1   5
BRANCH   1   7
ATOM      7  C   UNK     1       9.957  -0.248  22.012  0.00  0.00    +0.107 C 
BRANCH   7   8
ATOM      8  S   UNK     1       8.747  -1.592  22.325  0.00  0.00    -0.091 S 
BRANCH   8   9
ATOM      9  S   UNK     1       9.566  -2.617  23.909  0.00  0.00    -0.093 S 
BRANCH   9  10
ATOM     10  C   UNK     1       8.451  -4.050  24.025  0.00  0.00    +0.081 C 
BRANCH  10  11
ATOM     11  C   UNK     1       7.470  -4.060  22.859  0.00  0.00    +0.008 C 
ATOM     12  C   UNK     1       7.277  -5.478  22.344  0.00  0.00    +0.004 C 
ENDBRANCH  10  11
ENDBRANCH   9  10
ENDBRANCH   8   9
ENDBRANCH   7   8
ENDBRANCH   1   7
TORSDOF 7
ENDMDL
MODEL 4
REMARK VINA RESULT:      -3.7      3.785      4.685
REMARK  Name = 
REMARK  8 active torsions:
REMARK  status: ('A' for Active; 'I' for Inactive)
REMARK    1  A    between atoms: C_2  and  N_3
REMARK    2  A    between atoms: C_2  and  C_4
REMARK    3  A    between atoms: C_2  and  C_10
REMARK    4  A    between atoms: C_4  and  S_5
REMARK    5  A    between atoms: S_5  and  S_6
REMARK    6  A    between atoms: S_6  and  C_7
REMARK    7  A    between atoms: C_7  and  C_8
REMARK    8  A    between atoms: C_8  and  C_9
REMARK                            x       y       z     vdW  Elec       q    Type
REMARK                         _______ _______ _______ _____ _____    ______ ____
ROOT
ATOM      1  C   UNK     1       8.887  -4.936  24.921  0.00  0.00    +0.125 C 
ENDROOT
BRANCH   1   2
ATOM      2  N   UNK     1      10.134  -5.630  25.326  0.00  0.00    -0.321 NA
ATOM      3  H   UNK     1      10.127  -5.724  26.345  0.00  0.00    +0.119 HD
ATOM      4  H   UNK     1      10.069  -6.600  25.001  0.00  0.00    +0.119 HD
ENDBRANCH   1   2
BRANCH   1   5
ATOM      5  C   UNK     1       9.207  -3.491  24.554  0.00  0.00    +0.242 C 
ATOM      6  O   UNK     1      10.201  -3.158  23.912  0.00  0.00    -0.299 OA
ENDBRANCH   1   5
BRANCH   1   7
ATOM      7  C   UNK     1       7.872  -4.967  26.070  0.00  0.00    +0.107 C 
BRANCH   7   8
ATOM      8  S   UNK     1       6.171  -5.478  25.612  0.00  0.00    -0.091 S 
BRANCH   8   9
ATOM      9  S   UNK     1       5.467  -3.885  24.518  0.00  0.00    -0.093 S 
BRANCH   9  10
ATOM     10  C   UNK     1       5.228  -4.648  22.884  0.00  0.00    +0.081 C 
BRANCH  10  11
ATOM     11  C   UNK     1       6.483  -4.493  22.032  0.00  0.00    +0.008 C 
ATOM     12  C   UNK     1       7.095  -5.856  21.744  0.00  0.00    +0.004 C 
ENDBRANCH  10  11
ENDBRANCH   9  10
ENDBRANCH   8   9
ENDBRANCH   7   8
ENDBRANCH   1   7
TORSDOF 7
ENDMDL
MODEL 5
REMARK VINA RESULT:      -3.6      1.964      2.349
REMARK  Name = 
REMARK  8 active torsions:
REMARK  status: ('A' for Active; 'I' for Inactive)
REMARK    1  A    between atoms: C_2  and  N_3
REMARK    2  A    between atoms: C_2  and  C_4
REMARK    3  A    between atoms: C_2  and  C_10
REMARK    4  A    between atoms: C_4  and  S_5
REMARK    5  A    between atoms: S_5  and  S_6
REMARK    6  A    between atoms: S_6  and  C_7
REMARK    7  A    between atoms: C_7  and  C_8
REMARK    8  A    between atoms: C_8  and  C_9
REMARK                            x       y       z     vdW  Elec       q    Type
REMARK                         _______ _______ _______ _____ _____    ______ ____
ROOT
ATOM      1  C   UNK     1       9.231  -4.105  24.979  0.00  0.00    +0.125 C 
ENDROOT
BRANCH   1   2
ATOM      2  N   UNK     1      10.218  -5.211  25.049  0.00  0.00    -0.321 NA
ATOM      3  H   UNK     1       9.768  -6.007  25.508  0.00  0.00    +0.119 HD
ATOM      4  H   UNK     1      10.374  -5.549  24.094  0.00  0.00    +0.119 HD
ENDBRANCH   1   2
BRANCH   1   5
ATOM      5  C   UNK     1       7.917  -4.634  24.415  0.00  0.00    +0.242 C 
ATOM      6  O   UNK     1       7.809  -5.130  23.295  0.00  0.00    -0.299 OA
ENDBRANCH   1   5
BRANCH   1   7
ATOM      7  C   UNK     1       9.765  -2.980  24.085  0.00  0.00    +0.107 C 
BRANCH   7   8
ATOM      8  S   UNK     1       8.704  -1.487  23.972  0.00  0.00    -0.091 S 
BRANCH   8   9
ATOM      9  S   UNK     1       9.582  -0.172  25.288  0.00  0.00    -0.093 S 
BRANCH   9  10
ATOM     10  C   UNK     1      10.786   0.665  24.212  0.00  0.00    +0.081 C 
BRANCH  10  11
ATOM     11  C   UNK     1      10.163   1.900  23.571  0.00  0.00    +0.008 C 
ATOM     12  C   UNK     1      10.016   1.698  22.071  0.00  0.00    +0.004 C 
ENDBRANCH  10  11
ENDBRANCH   9  10
ENDBRANCH   8   9
ENDBRANCH   7   8
ENDBRANCH   1   7
TORSDOF 7
ENDMDL
MODEL 6
REMARK VINA RESULT:      -3.6      2.091      2.380
REMARK  Name = 
REMARK  8 active torsions:
REMARK  status: ('A' for Active; 'I' for Inactive)
REMARK    1  A    between atoms: C_2  and  N_3
REMARK    2  A    between atoms: C_2  and  C_4
REMARK    3  A    between atoms: C_2  and  C_10
REMARK    4  A    between atoms: C_4  and  S_5
REMARK    5  A    between atoms: S_5  and  S_6
REMARK    6  A    between atoms: S_6  and  C_7
REMARK    7  A    between atoms: C_7  and  C_8
REMARK    8  A    between atoms: C_8  and  C_9
REMARK                            x       y       z     vdW  Elec       q    Type
REMARK                         _______ _______ _______ _____ _____    ______ ____
ROOT
ATOM      1  C   UNK     1       7.974  -5.055  25.908  0.00  0.00    +0.125 C 
ENDROOT
BRANCH   1   2
ATOM      2  N   UNK     1       7.990  -5.648  27.269  0.00  0.00    -0.321 NA
ATOM      3  H   UNK     1       7.156  -5.321  27.765  0.00  0.00    +0.119 HD
ATOM      4  H   UNK     1       7.824  -6.654  27.171  0.00  0.00    +0.119 HD
ENDBRANCH   1   2
BRANCH   1   5
ATOM      5  C   UNK     1       9.186  -5.550  25.126  0.00  0.00    +0.242 C 
ATOM      6  O   UNK     1      10.214  -4.894  24.981  0.00  0.00    -0.299 OA
ENDBRANCH   1   5
BRANCH   1   7
ATOM      7  C   UNK     1       8.005  -3.525  26.002  0.00  0.00    +0.107 C 
BRANCH   7   8
ATOM      8  S   UNK     1       6.983  -2.635  24.765  0.00  0.00    -0.091 S 
BRANCH   8   9
ATOM      9  S   UNK     1       8.276  -2.342  23.193  0.00  0.00    -0.093 S 
BRANCH   9  10
ATOM     10  C   UNK     1       9.673  -1.524  24.023  0.00  0.00    +0.081 C 
BRANCH  10  11
ATOM     11  C   UNK     1      10.327  -0.508  23.093  0.00  0.00    +0.008 C 
ATOM     12  C   UNK     1       9.607  -0.479  21.754  0.00  0.00    +0.004 C 
ENDBRANCH  10  11
ENDBRANCH   9  10
ENDBRANCH   8   9
ENDBRANCH   7   8
ENDBRANCH   1   7
TORSDOF 7
ENDMDL
MODEL 7
REMARK VINA RESULT:      -3.5      2.908      3.110
REMARK  Name = 
REMARK  8 active torsions:
REMARK  status: ('A' for Active; 'I' for Inactive)
REMARK    1  A    between atoms: C_2  and  N_3
REMARK    2  A    between atoms: C_2  and  C_4
REMARK    3  A    between atoms: C_2  and  C_10
REMARK    4  A    between atoms: C_4  and  S_5
REMARK    5  A    between atoms: S_5  and  S_6
REMARK    6  A    between atoms: S_6  and  C_7
REMARK    7  A    between atoms: C_7  and  C_8
REMARK    8  A    between atoms: C_8  and  C_9
REMARK                            x       y       z     vdW  Elec       q    Type
REMARK                         _______ _______ _______ _____ _____    ______ ____
ROOT
ATOM      1  C   UNK     1       7.213  -3.783  23.086  0.00  0.00    +0.125 C 
ENDROOT
BRANCH   1   2
ATOM      2  N   UNK     1       7.896  -4.977  23.642  0.00  0.00    -0.321 NA
ATOM      3  H   UNK     1       8.498  -4.668  24.409  0.00  0.00    +0.119 HD
ATOM      4  H   UNK     1       7.189  -5.548  24.115  0.00  0.00    +0.119 HD
ENDBRANCH   1   2
BRANCH   1   5
ATOM      5  C   UNK     1       6.402  -4.188  21.860  0.00  0.00    +0.242 C 
ATOM      6  O   UNK     1       5.270  -3.770  21.626  0.00  0.00    -0.299 OA
ENDBRANCH   1   5
BRANCH   1   7
ATOM      7  C   UNK     1       8.246  -2.720  22.698  0.00  0.00    +0.107 C 
BRANCH   7   8
ATOM      8  S   UNK     1       9.616  -2.472  23.893  0.00  0.00    -0.091 S 
BRANCH   8   9
ATOM      9  S   UNK     1      10.241  -0.548  23.516  0.00  0.00    -0.093 S 
BRANCH   9  10
ATOM     10  C   UNK     1       9.759  -0.348  21.774  0.00  0.00    +0.081 C 
BRANCH  10  11
ATOM     11  C   UNK     1       9.207   1.051  21.529  0.00  0.00    +0.008 C 
ATOM     12  C   UNK     1      10.102   2.092  22.184  0.00  0.00    +0.004 C 
ENDBRANCH  10  11
ENDBRANCH   9  10
ENDBRANCH   8   9
ENDBRANCH   7   8
ENDBRANCH   1   7
TORSDOF 7
ENDMDL
MODEL 8
REMARK VINA RESULT:      -3.5      4.464      6.616
REMARK  Name = 
REMARK  8 active torsions:
REMARK  status: ('A' for Active; 'I' for Inactive)
REMARK    1  A    between atoms: C_2  and  N_3
REMARK    2  A    between atoms: C_2  and  C_4
REMARK    3  A    between atoms: C_2  and  C_10
REMARK    4  A    between atoms: C_4  and  S_5
REMARK    5  A    between atoms: S_5  and  S_6
REMARK    6  A    between atoms: S_6  and  C_7
REMARK    7  A    between atoms: C_7  and  C_8
REMARK    8  A    between atoms: C_8  and  C_9
REMARK                            x       y       z     vdW  Elec       q    Type
REMARK                         _______ _______ _______ _____ _____    ______ ____
ROOT
ATOM      1  C   UNK     1       9.707   1.688  22.906  0.00  0.00    +0.125 C 
ENDROOT
BRANCH   1   2
ATOM      2  N   UNK     1       9.811   2.107  21.486  0.00  0.00    -0.321 NA
ATOM      3  H   UNK     1      10.702   2.596  21.366  0.00  0.00    +0.119 HD
ATOM      4  H   UNK     1       9.929   1.261  20.920  0.00  0.00    +0.119 HD
ENDBRANCH   1   2
BRANCH   1   5
ATOM      5  C   UNK     1      10.540   2.625  23.773  0.00  0.00    +0.242 C 
ATOM      6  O   UNK     1      11.261   3.510  23.318  0.00  0.00    -0.299 OA
ENDBRANCH   1   5
BRANCH   1   7
ATOM      7  C   UNK     1      10.206   0.248  23.066  0.00  0.00    +0.107 C 
BRANCH   7   8
ATOM      8  S   UNK     1       9.586  -0.950  21.823  0.00  0.00    -0.091 S 
BRANCH   8   9
ATOM      9  S   UNK     1       8.420  -2.232  22.931  0.00  0.00    -0.093 S 
BRANCH   9  10
ATOM     10  C   UNK     1       9.637  -2.900  24.107  0.00  0.00    +0.081 C 
BRANCH  10  11
ATOM     11  C   UNK     1       8.969  -3.871  25.073  0.00  0.00    +0.008 C 
ATOM     12  C   UNK     1       8.358  -5.037  24.311  0.00  0.00    +0.004 C 
ENDBRANCH  10  11
ENDBRANCH   9  10
ENDBRANCH   8   9
ENDBRANCH   7   8
ENDBRANCH   1   7
TORSDOF 7
ENDMDL
MODEL 9
REMARK VINA RESULT:      -3.5      4.111      6.307
REMARK  Name = 
REMARK  8 active torsions:
REMARK  status: ('A' for Active; 'I' for Inactive)
REMARK    1  A    between atoms: C_2  and  N_3
REMARK    2  A    between atoms: C_2  and  C_4
REMARK    3  A    between atoms: C_2  and  C_10
REMARK    4  A    between atoms: C_4  and  S_5
REMARK    5  A    between atoms: S_5  and  S_6
REMARK    6  A    between atoms: S_6  and  C_7
REMARK    7  A    between atoms: C_7  and  C_8
REMARK    8  A    between atoms: C_8  and  C_9
REMARK                            x       y       z     vdW  Elec       q    Type
REMARK                         _______ _______ _______ _____ _____    ______ ____
ROOT
ATOM      1  C   UNK     1       9.784   0.879  22.191  0.00  0.00    +0.125 C 
ENDROOT
BRANCH   1   2
ATOM      2  N   UNK     1      10.180   2.193  21.626  0.00  0.00    -0.321 NA
ATOM      3  H   UNK     1      10.227   2.098  20.608  0.00  0.00    +0.119 HD
ATOM      4  H   UNK     1       9.397   2.840  21.765  0.00  0.00    +0.119 HD
ENDBRANCH   1   2
BRANCH   1   5
ATOM      5  C   UNK     1       8.268   0.831  22.346  0.00  0.00    +0.242 C 
ATOM      6  O   UNK     1       7.506   1.649  21.837  0.00  0.00    -0.299 OA
ENDBRANCH   1   5
BRANCH   1   7
ATOM      7  C   UNK     1      10.453   0.670  23.554  0.00  0.00    +0.107 C 
BRANCH   7   8
ATOM      8  S   UNK     1       9.590  -0.481  24.693  0.00  0.00    -0.091 S 
BRANCH   8   9
ATOM      9  S   UNK     1       9.793  -2.310  23.774  0.00  0.00    -0.093 S 
BRANCH   9  10
ATOM     10  C   UNK     1       8.241  -3.128  24.255  0.00  0.00    +0.081 C 
BRANCH  10  11
ATOM     11  C   UNK     1       8.407  -4.643  24.234  0.00  0.00    +0.008 C 
ATOM     12  C   UNK     1       9.407  -5.079  25.294  0.00  0.00    +0.004 C 
ENDBRANCH  10  11
ENDBRANCH   9  10
ENDBRANCH   8   9
ENDBRANCH   7   8
ENDBRANCH   1   7
TORSDOF 7
ENDMDL
