MODEL 1
REMARK VINA RESULT:      -7.3      0.000      0.000
REMARK  Name = 
REMARK  15 active torsions:
REMARK  status: ('A' for Active; 'I' for Inactive)
REMARK    1  A    between atoms: O_1  and  C_2
REMARK    2  A    between atoms: C_4  and  C_6
REMARK    3  A    between atoms: C_6  and  O_7
REMARK    4  A    between atoms: O_7  and  P_8
REMARK    5  A    between atoms: P_8  and  O_9
REMARK    6  A    between atoms: P_8  and  O_11
REMARK    7  A    between atoms: O_11  and  P_12
REMARK    8  A    between atoms: P_12  and  O_13
REMARK    9  A    between atoms: P_12  and  O_15
REMARK   10  A    between atoms: O_15  and  C_16
REMARK   11  A    between atoms: C_20  and  O_22
REMARK   12  A    between atoms: C_23  and  O_25
REMARK   13  A    between atoms: C_26  and  O_28
REMARK   14  A    between atoms: C_30  and  N_35
REMARK   15  A    between atoms: C_32  and  O_34
REMARK                            x       y       z     vdW  Elec       q    Type
REMARK                         _______ _______ _______ _____ _____    ______ ____
ROOT
ATOM      1  P   UNL     1       7.160   0.355  27.204  0.00  0.00    +0.483 P 
ATOM      2  O   UNL     1       6.476   0.504  28.573  0.00  0.00    -0.227 OA
ENDROOT
BRANCH   1   3
ATOM      3  O   UNL     1       8.632   0.053  28.060  0.00  0.00    -0.302 OA
ATOM      4  H   UNL     1       8.770   0.897  28.539  0.00  0.00    +0.222 HD
ENDBRANCH   1   3
BRANCH   1   5
ATOM      5  O   UNL     1       7.031  -1.268  26.853  0.00  0.00    -0.284 OA
BRANCH   5   6
ATOM      6  C   UNL     1       8.261  -1.885  26.511  0.00  0.00    +0.206 C 
BRANCH   6  11
ATOM      7  C   UNL     1       8.297  -4.457  26.753  0.00  0.00    +0.178 C 
ATOM      8  C   UNL     1       7.399  -5.526  26.128  0.00  0.00    +0.195 C 
ATOM      9  C   UNL     1       6.381  -4.726  25.286  0.00  0.00    +0.255 C 
ATOM     10  O   UNL     1       6.726  -3.336  25.390  0.00  0.00    -0.346 OA
ATOM     11  C   UNL     1       8.087  -3.250  25.846  0.00  0.00    +0.178 C 
BRANCH   9  12
ATOM     12  N   UNL     1       6.317  -5.131  23.873  0.00  0.00    -0.271 N 
ATOM     13  C   UNL     1       5.087  -5.564  23.398  0.00  0.00    +0.331 A 
ATOM     14  O   UNL     1       4.090  -5.665  24.109  0.00  0.00    -0.246 OA
ATOM     15  N   UNL     1       5.030  -5.887  22.063  0.00  0.00    -0.275 N 
ATOM     16  H   UNL     1       4.145  -6.191  21.700  0.00  0.00    +0.173 HD
ATOM     17  C   UNL     1       6.063  -5.771  21.167  0.00  0.00    +0.254 A 
ATOM     18  O   UNL     1       5.940  -6.025  19.978  0.00  0.00    -0.268 OA
ATOM     19  C   UNL     1       7.338  -5.305  21.728  0.00  0.00    +0.088 A 
ATOM     20  C   UNL     1       7.404  -5.008  23.027  0.00  0.00    +0.098 A 
ENDBRANCH   9  12
BRANCH   7  21
ATOM     21  O   UNL     1       9.656  -4.894  26.757  0.00  0.00    -0.386 OA
ATOM     22  H   UNL     1      10.118  -4.405  27.465  0.00  0.00    +0.210 HD
ENDBRANCH   7  21
BRANCH   8  23
ATOM     23  O   UNL     1       6.742  -6.287  27.157  0.00  0.00    -0.385 OA
ATOM     24  H   UNL     1       5.804  -6.359  26.887  0.00  0.00    +0.210 HD
ENDBRANCH   8  23
ENDBRANCH   6  11
ENDBRANCH   5   6
ENDBRANCH   1   5
BRANCH   1  25
ATOM     25  O   UNL     1       5.686   0.657  26.349  0.00  0.00    -0.186 OA
BRANCH  25  26
ATOM     26  P   UNL     1       6.032   0.890  24.669  0.00  0.00    +0.486 P 
ATOM     27  O   UNL     1       4.768   1.746  24.537  0.00  0.00    -0.227 OA
BRANCH  26  28
ATOM     28  O   UNL     1       5.632  -0.654  24.331  0.00  0.00    -0.302 OA
ATOM     29  H   UNL     1       6.035  -0.953  23.492  0.00  0.00    +0.222 HD
ENDBRANCH  26  28
BRANCH  26  30
ATOM     30  O   UNL     1       6.377   1.122  22.990  0.00  0.00    -0.254 OA
BRANCH  30  31
ATOM     31  C   UNL     1       7.767   0.921  22.705  0.00  0.00    +0.293 C 
ATOM     32  C   UNL     1       8.605   2.202  22.934  0.00  0.00    +0.202 C 
ATOM     33  C   UNL     1      10.096   1.910  22.722  0.00  0.00    +0.178 C 
ATOM     34  C   UNL     1      10.551   0.719  23.568  0.00  0.00    +0.171 C 
ATOM     35  C   UNL     1       9.639  -0.470  23.246  0.00  0.00    +0.197 C 
ATOM     36  O   UNL     1       8.267  -0.160  23.505  0.00  0.00    -0.346 OA
BRANCH  32  37
ATOM     37  O   UNL     1       8.204   3.223  21.993  0.00  0.00    -0.384 OA
ATOM     38  H   UNL     1       7.232   3.319  22.106  0.00  0.00    +0.210 HD
ENDBRANCH  32  37
BRANCH  33  39
ATOM     39  O   UNL     1      10.839   3.110  22.975  0.00  0.00    -0.386 OA
ATOM     40  H   UNL     1      10.650   3.392  23.890  0.00  0.00    +0.210 HD
ENDBRANCH  33  39
BRANCH  34  41
ATOM     41  O   UNL     1      10.489   1.076  24.951  0.00  0.00    -0.387 OA
ATOM     42  H   UNL     1       9.603   1.442  25.136  0.00  0.00    +0.210 HD
ENDBRANCH  34  41
ENDBRANCH  30  31
ENDBRANCH  26  30
ENDBRANCH  25  26
ENDBRANCH   1  25
TORSDOF 15
ENDMDL
MODEL 2
REMARK VINA RESULT:      -7.3      2.318      3.716
REMARK  Name = 
REMARK  15 active torsions:
REMARK  status: ('A' for Active; 'I' for Inactive)
REMARK    1  A    between atoms: O_1  and  C_2
REMARK    2  A    between atoms: C_4  and  C_6
REMARK    3  A    between atoms: C_6  and  O_7
REMARK    4  A    between atoms: O_7  and  P_8
REMARK    5  A    between atoms: P_8  and  O_9
REMARK    6  A    between atoms: P_8  and  O_11
REMARK    7  A    between atoms: O_11  and  P_12
REMARK    8  A    between atoms: P_12  and  O_13
REMARK    9  A    between atoms: P_12  and  O_15
REMARK   10  A    between atoms: O_15  and  C_16
REMARK   11  A    between atoms: C_20  and  O_22
REMARK   12  A    between atoms: C_23  and  O_25
REMARK   13  A    between atoms: C_26  and  O_28
REMARK   14  A    between atoms: C_30  and  N_35
REMARK   15  A    between atoms: C_32  and  O_34
REMARK                            x       y       z     vdW  Elec       q    Type
REMARK                         _______ _______ _______ _____ _____    ______ ____
ROOT
ATOM      1  P   UNL     1      10.226   0.139  24.680  0.00  0.00    +0.483 P 
ATOM      2  O   UNL     1       9.398   1.433  24.727  0.00  0.00    -0.227 OA
ENDROOT
BRANCH   1   3
ATOM      3  O   UNL     1       9.804  -0.099  26.340  0.00  0.00    -0.302 OA
ATOM      4  H   UNL     1       9.510  -1.034  26.347  0.00  0.00    +0.222 HD
ENDBRANCH   1   3
BRANCH   1   5
ATOM      5  O   UNL     1       9.134  -1.035  24.232  0.00  0.00    -0.284 OA
BRANCH   5   6
ATOM      6  C   UNL     1       9.712  -2.313  24.025  0.00  0.00    +0.206 C 
BRANCH   6  11
ATOM      7  C   UNL     1       9.231  -4.489  25.333  0.00  0.00    +0.178 C 
ATOM      8  C   UNL     1       7.932  -5.013  25.946  0.00  0.00    +0.195 C 
ATOM      9  C   UNL     1       6.893  -3.913  25.639  0.00  0.00    +0.255 C 
ATOM     10  O   UNL     1       7.550  -2.895  24.868  0.00  0.00    -0.346 OA
ATOM     11  C   UNL     1       8.748  -3.465  24.313  0.00  0.00    +0.178 C 
BRANCH   9  12
ATOM     12  N   UNL     1       5.696  -4.393  24.932  0.00  0.00    -0.271 N 
ATOM     13  C   UNL     1       4.736  -3.447  24.603  0.00  0.00    +0.331 A 
ATOM     14  O   UNL     1       4.826  -2.262  24.917  0.00  0.00    -0.246 OA
ATOM     15  N   UNL     1       3.649  -3.903  23.896  0.00  0.00    -0.275 N 
ATOM     16  H   UNL     1       2.951  -3.229  23.640  0.00  0.00    +0.173 HD
ATOM     17  C   UNL     1       3.464  -5.189  23.454  0.00  0.00    +0.254 A 
ATOM     18  O   UNL     1       2.501  -5.527  22.783  0.00  0.00    -0.268 OA
ATOM     19  C   UNL     1       4.515  -6.144  23.830  0.00  0.00    +0.088 A 
ATOM     20  C   UNL     1       5.562  -5.711  24.533  0.00  0.00    +0.098 A 
ENDBRANCH   9  12
BRANCH   7  21
ATOM     21  O   UNL     1       9.954  -5.557  24.719  0.00  0.00    -0.386 OA
ATOM     22  H   UNL     1       9.844  -5.466  23.753  0.00  0.00    +0.210 HD
ENDBRANCH   7  21
BRANCH   8  23
ATOM     23  O   UNL     1       8.091  -5.199  27.364  0.00  0.00    -0.385 OA
ATOM     24  H   UNL     1       8.572  -6.044  27.477  0.00  0.00    +0.210 HD
ENDBRANCH   8  23
ENDBRANCH   6  11
ENDBRANCH   5   6
ENDBRANCH   1   5
BRANCH   1  25
ATOM     25  O   UNL     1      10.649   0.379  23.019  0.00  0.00    -0.186 OA
BRANCH  25  26
ATOM     26  P   UNL     1       9.269   0.955  22.150  0.00  0.00    +0.486 P 
ATOM     27  O   UNL     1       9.503  -0.119  21.083  0.00  0.00    -0.227 OA
BRANCH  26  28
ATOM     28  O   UNL     1      10.067   2.302  21.694  0.00  0.00    -0.302 OA
ATOM     29  H   UNL     1       9.489   2.908  21.190  0.00  0.00    +0.222 HD
ENDBRANCH  26  28
BRANCH  26  30
ATOM     30  O   UNL     1       7.889   1.532  21.280  0.00  0.00    -0.254 OA
BRANCH  30  31
ATOM     31  C   UNL     1       6.838   1.936  22.168  0.00  0.00    +0.293 C 
ATOM     32  C   UNL     1       6.675   0.969  23.365  0.00  0.00    +0.202 C 
ATOM     33  C   UNL     1       5.617   1.500  24.340  0.00  0.00    +0.178 C 
ATOM     34  C   UNL     1       5.919   2.942  24.751  0.00  0.00    +0.171 C 
ATOM     35  C   UNL     1       6.058   3.782  23.478  0.00  0.00    +0.197 C 
ATOM     36  O   UNL     1       7.088   3.272  22.626  0.00  0.00    -0.346 OA
BRANCH  32  37
ATOM     37  O   UNL     1       6.247  -0.328  22.891  0.00  0.00    -0.384 OA
ATOM     38  H   UNL     1       5.856  -0.168  22.004  0.00  0.00    +0.210 HD
ENDBRANCH  32  37
BRANCH  33  39
ATOM     39  O   UNL     1       5.519   0.595  25.448  0.00  0.00    -0.386 OA
ATOM     40  H   UNL     1       4.643   0.167  25.408  0.00  0.00    +0.210 HD
ENDBRANCH  33  39
BRANCH  34  41
ATOM     41  O   UNL     1       7.114   2.964  25.535  0.00  0.00    -0.387 OA
ATOM     42  H   UNL     1       7.440   2.049  25.628  0.00  0.00    +0.210 HD
ENDBRANCH  34  41
ENDBRANCH  30  31
ENDBRANCH  26  30
ENDBRANCH  25  26
ENDBRANCH   1  25
TORSDOF 15
ENDMDL
MODEL 3
REMARK VINA RESULT:      -7.2      3.206      7.782
REMARK  Name = 
REMARK  15 active torsions:
REMARK  status: ('A' for Active; 'I' for Inactive)
REMARK    1  A    between atoms: O_1  and  C_2
REMARK    2  A    between atoms: C_4  and  C_6
REMARK    3  A    between atoms: C_6  and  O_7
REMARK    4  A    between atoms: O_7  and  P_8
REMARK    5  A    between atoms: P_8  and  O_9
REMARK    6  A    between atoms: P_8  and  O_11
REMARK    7  A    between atoms: O_11  and  P_12
REMARK    8  A    between atoms: P_12  and  O_13
REMARK    9  A    between atoms: P_12  and  O_15
REMARK   10  A    between atoms: O_15  and  C_16
REMARK   11  A    between atoms: C_20  and  O_22
REMARK   12  A    between atoms: C_23  and  O_25
REMARK   13  A    between atoms: C_26  and  O_28
REMARK   14  A    between atoms: C_30  and  N_35
REMARK   15  A    between atoms: C_32  and  O_34
REMARK                            x       y       z     vdW  Elec       q    Type
REMARK                         _______ _______ _______ _____ _____    ______ ____
ROOT
ATOM      1  P   UNL     1       8.469  -5.257  24.978  0.00  0.00    +0.483 P 
ATOM      2  O   UNL     1       9.804  -4.507  24.845  0.00  0.00    -0.227 OA
ENDROOT
BRANCH   1   3
ATOM      3  O   UNL     1       8.606  -5.036  26.688  0.00  0.00    -0.302 OA
ATOM      4  H   UNL     1       8.159  -4.175  26.822  0.00  0.00    +0.222 HD
ENDBRANCH   1   3
BRANCH   1   5
ATOM      5  O   UNL     1       7.314  -4.060  24.916  0.00  0.00    -0.284 OA
BRANCH   5   6
ATOM      6  C   UNL     1       7.629  -2.912  25.687  0.00  0.00    +0.206 C 
BRANCH   6  11
ATOM      7  C   UNL     1       6.254  -1.208  24.314  0.00  0.00    +0.178 C 
ATOM      8  C   UNL     1       6.350   0.317  24.241  0.00  0.00    +0.195 C 
ATOM      9  C   UNL     1       7.484   0.677  25.226  0.00  0.00    +0.255 C 
ATOM     10  O   UNL     1       8.010  -0.551  25.754  0.00  0.00    -0.346 OA
ATOM     11  C   UNL     1       7.612  -1.616  24.874  0.00  0.00    +0.178 C 
BRANCH   9  12
ATOM     12  N   UNL     1       8.564   1.481  24.635  0.00  0.00    -0.271 N 
ATOM     13  C   UNL     1       8.313   2.834  24.449  0.00  0.00    +0.331 A 
ATOM     14  O   UNL     1       7.231   3.357  24.708  0.00  0.00    -0.246 OA
ATOM     15  N   UNL     1       9.350   3.582  23.946  0.00  0.00    -0.275 N 
ATOM     16  H   UNL     1       9.189   4.563  23.816  0.00  0.00    +0.173 HD
ATOM     17  C   UNL     1      10.610   3.116  23.664  0.00  0.00    +0.254 A 
ATOM     18  O   UNL     1      11.511   3.839  23.267  0.00  0.00    -0.268 OA
ATOM     19  C   UNL     1      10.816   1.678  23.885  0.00  0.00    +0.088 A 
ATOM     20  C   UNL     1       9.807   0.943  24.354  0.00  0.00    +0.098 A 
ENDBRANCH   9  12
BRANCH   7  21
ATOM     21  O   UNL     1       6.025  -1.751  23.015  0.00  0.00    -0.386 OA
ATOM     22  H   UNL     1       6.854  -1.657  22.508  0.00  0.00    +0.210 HD
ENDBRANCH   7  21
BRANCH   8  23
ATOM     23  O   UNL     1       5.103   0.913  24.641  0.00  0.00    -0.385 OA
ATOM     24  H   UNL     1       4.461   0.704  23.933  0.00  0.00    +0.210 HD
ENDBRANCH   8  23
ENDBRANCH   6  11
ENDBRANCH   5   6
ENDBRANCH   1   5
BRANCH   1  25
ATOM     25  O   UNL     1       8.333  -5.478  23.268  0.00  0.00    -0.186 OA
BRANCH  25  26
ATOM     26  P   UNL     1       6.679  -5.302  22.793  0.00  0.00    +0.486 P 
ATOM     27  O   UNL     1       6.806  -6.551  21.915  0.00  0.00    -0.227 OA
BRANCH  26  28
ATOM     28  O   UNL     1       7.038  -4.002  21.876  0.00  0.00    -0.302 OA
ATOM     29  H   UNL     1       6.605  -4.050  21.002  0.00  0.00    +0.222 HD
ENDBRANCH  26  28
BRANCH  26  30
ATOM     30  O   UNL     1       5.025  -5.124  22.318  0.00  0.00    -0.254 OA
BRANCH  30  31
ATOM     31  C   UNL     1       4.144  -5.170  23.448  0.00  0.00    +0.293 C 
ATOM     32  C   UNL     1       4.511  -6.306  24.433  0.00  0.00    +0.202 C 
ATOM     33  C   UNL     1       3.612  -6.248  25.675  0.00  0.00    +0.178 C 
ATOM     34  C   UNL     1       3.634  -4.855  26.307  0.00  0.00    +0.171 C 
ATOM     35  C   UNL     1       3.258  -3.836  25.227  0.00  0.00    +0.197 C 
ATOM     36  O   UNL     1       4.154  -3.900  24.114  0.00  0.00    -0.346 OA
BRANCH  32  37
ATOM     37  O   UNL     1       4.321  -7.588  23.794  0.00  0.00    -0.384 OA
ATOM     38  H   UNL     1       4.113  -7.386  22.855  0.00  0.00    +0.210 HD
ENDBRANCH  32  37
BRANCH  33  39
ATOM     39  O   UNL     1       4.005  -7.293  26.575  0.00  0.00    -0.386 OA
ATOM     40  H   UNL     1       4.854  -7.657  26.258  0.00  0.00    +0.210 HD
ENDBRANCH  33  39
BRANCH  34  41
ATOM     41  O   UNL     1       4.935  -4.604  26.843  0.00  0.00    -0.387 OA
ATOM     42  H   UNL     1       5.074  -5.198  27.605  0.00  0.00    +0.210 HD
ENDBRANCH  34  41
ENDBRANCH  30  31
ENDBRANCH  26  30
ENDBRANCH  25  26
ENDBRANCH   1  25
TORSDOF 15
ENDMDL
MODEL 4
REMARK VINA RESULT:      -7.2      2.494      4.136
REMARK  Name = 
REMARK  15 active torsions:
REMARK  status: ('A' for Active; 'I' for Inactive)
REMARK    1  A    between atoms: O_1  and  C_2
REMARK    2  A    between atoms: C_4  and  C_6
REMARK    3  A    between atoms: C_6  and  O_7
REMARK    4  A    between atoms: O_7  and  P_8
REMARK    5  A    between atoms: P_8  and  O_9
REMARK    6  A    between atoms: P_8  and  O_11
REMARK    7  A    between atoms: O_11  and  P_12
REMARK    8  A    between atoms: P_12  and  O_13
REMARK    9  A    between atoms: P_12  and  O_15
REMARK   10  A    between atoms: O_15  and  C_16
REMARK   11  A    between atoms: C_20  and  O_22
REMARK   12  A    between atoms: C_23  and  O_25
REMARK   13  A    between atoms: C_26  and  O_28
REMARK   14  A    between atoms: C_30  and  N_35
REMARK   15  A    between atoms: C_32  and  O_34
REMARK                            x       y       z     vdW  Elec       q    Type
REMARK                         _______ _______ _______ _____ _____    ______ ____
ROOT
ATOM      1  P   UNL     1      10.381   0.285  24.454  0.00  0.00    +0.483 P 
ATOM      2  O   UNL     1      10.215   1.813  24.440  0.00  0.00    -0.227 OA
ENDROOT
BRANCH   1   3
ATOM      3  O   UNL     1      10.186   0.358  26.171  0.00  0.00    -0.302 OA
ATOM      4  H   UNL     1       9.504   1.055  26.273  0.00  0.00    +0.222 HD
ENDBRANCH   1   3
BRANCH   1   5
ATOM      5  O   UNL     1       8.829  -0.300  24.303  0.00  0.00    -0.284 OA
BRANCH   5   6
ATOM      6  C   UNL     1       8.387  -1.062  25.414  0.00  0.00    +0.206 C 
BRANCH   6  11
ATOM      7  C   UNL     1       9.304  -3.273  24.441  0.00  0.00    +0.178 C 
ATOM      8  C   UNL     1       9.083  -4.720  24.883  0.00  0.00    +0.195 C 
ATOM      9  C   UNL     1       8.166  -4.606  26.121  0.00  0.00    +0.255 C 
ATOM     10  O   UNL     1       7.859  -3.216  26.309  0.00  0.00    -0.346 OA
ATOM     11  C   UNL     1       8.133  -2.531  25.075  0.00  0.00    +0.178 C 
BRANCH   9  12
ATOM     12  N   UNL     1       6.928  -5.394  26.029  0.00  0.00    -0.271 N 
ATOM     13  C   UNL     1       6.505  -6.040  27.182  0.00  0.00    +0.331 A 
ATOM     14  O   UNL     1       7.139  -6.017  28.235  0.00  0.00    -0.246 OA
ATOM     15  N   UNL     1       5.319  -6.728  27.094  0.00  0.00    -0.275 N 
ATOM     16  H   UNL     1       4.993  -7.191  27.922  0.00  0.00    +0.173 HD
ATOM     17  C   UNL     1       4.507  -6.786  25.989  0.00  0.00    +0.254 A 
ATOM     18  O   UNL     1       3.435  -7.372  25.984  0.00  0.00    -0.268 OA
ATOM     19  C   UNL     1       5.006  -6.081  24.801  0.00  0.00    +0.088 A 
ATOM     20  C   UNL     1       6.166  -5.427  24.875  0.00  0.00    +0.098 A 
ENDBRANCH   9  12
BRANCH   7  21
ATOM     21  O   UNL     1       9.286  -3.184  23.016  0.00  0.00    -0.386 OA
ATOM     22  H   UNL     1       8.595  -3.793  22.694  0.00  0.00    +0.210 HD
ENDBRANCH   7  21
BRANCH   8  23
ATOM     23  O   UNL     1      10.340  -5.334  25.220  0.00  0.00    -0.385 OA
ATOM     24  H   UNL     1      11.023  -4.863  24.700  0.00  0.00    +0.210 HD
ENDBRANCH   8  23
ENDBRANCH   6  11
ENDBRANCH   5   6
ENDBRANCH   1   5
BRANCH   1  25
ATOM     25  O   UNL     1      10.576   0.213  22.736  0.00  0.00    -0.186 OA
BRANCH  25  26
ATOM     26  P   UNL     1       9.240   1.002  21.970  0.00  0.00    +0.486 P 
ATOM     27  O   UNL     1       9.250  -0.066  20.872  0.00  0.00    -0.227 OA
BRANCH  26  28
ATOM     28  O   UNL     1      10.193   2.233  21.485  0.00  0.00    -0.302 OA
ATOM     29  H   UNL     1      10.292   2.248  20.513  0.00  0.00    +0.222 HD
ENDBRANCH  26  28
BRANCH  26  30
ATOM     30  O   UNL     1       7.905   1.791  21.204  0.00  0.00    -0.254 OA
BRANCH  30  31
ATOM     31  C   UNL     1       7.207   2.650  22.115  0.00  0.00    +0.293 C 
ATOM     32  C   UNL     1       6.958   1.975  23.486  0.00  0.00    +0.202 C 
ATOM     33  C   UNL     1       6.308   2.967  24.459  0.00  0.00    +0.178 C 
ATOM     34  C   UNL     1       7.118   4.262  24.550  0.00  0.00    +0.171 C 
ATOM     35  C   UNL     1       7.291   4.816  23.132  0.00  0.00    +0.197 C 
ATOM     36  O   UNL     1       7.943   3.870  22.279  0.00  0.00    -0.346 OA
BRANCH  32  37
ATOM     37  O   UNL     1       6.067   0.850  23.321  0.00  0.00    -0.384 OA
ATOM     38  H   UNL     1       6.644   0.054  23.316  0.00  0.00    +0.210 HD
ENDBRANCH  32  37
BRANCH  33  39
ATOM     39  O   UNL     1       6.124   2.315  25.723  0.00  0.00    -0.386 OA
ATOM     40  H   UNL     1       6.798   2.661  26.339  0.00  0.00    +0.210 HD
ENDBRANCH  33  39
BRANCH  34  41
ATOM     41  O   UNL     1       8.376   3.985  25.169  0.00  0.00    -0.387 OA
ATOM     42  H   UNL     1       8.208   3.626  26.061  0.00  0.00    +0.210 HD
ENDBRANCH  34  41
ENDBRANCH  30  31
ENDBRANCH  26  30
ENDBRANCH  25  26
ENDBRANCH   1  25
TORSDOF 15
ENDMDL
MODEL 5
REMARK VINA RESULT:      -7.2      3.464      7.781
REMARK  Name = 
REMARK  15 active torsions:
REMARK  status: ('A' for Active; 'I' for Inactive)
REMARK    1  A    between atoms: O_1  and  C_2
REMARK    2  A    between atoms: C_4  and  C_6
REMARK    3  A    between atoms: C_6  and  O_7
REMARK    4  A    between atoms: O_7  and  P_8
REMARK    5  A    between atoms: P_8  and  O_9
REMARK    6  A    between atoms: P_8  and  O_11
REMARK    7  A    between atoms: O_11  and  P_12
REMARK    8  A    between atoms: P_12  and  O_13
REMARK    9  A    between atoms: P_12  and  O_15
REMARK   10  A    between atoms: O_15  and  C_16
REMARK   11  A    between atoms: C_20  and  O_22
REMARK   12  A    between atoms: C_23  and  O_25
REMARK   13  A    between atoms: C_26  and  O_28
REMARK   14  A    between atoms: C_30  and  N_35
REMARK   15  A    between atoms: C_32  and  O_34
REMARK                            x       y       z     vdW  Elec       q    Type
REMARK                         _______ _______ _______ _____ _____    ______ ____
ROOT
ATOM      1  P   UNL     1       5.960  -5.665  22.365  0.00  0.00    +0.483 P 
ATOM      2  O   UNL     1       5.967  -5.090  20.940  0.00  0.00    -0.227 OA
ENDROOT
BRANCH   1   3
ATOM      3  O   UNL     1       7.685  -5.727  22.265  0.00  0.00    -0.302 OA
ATOM      4  H   UNL     1       7.957  -5.262  23.083  0.00  0.00    +0.222 HD
ENDBRANCH   1   3
BRANCH   1   5
ATOM      5  O   UNL     1       6.065  -4.327  23.351  0.00  0.00    -0.284 OA
BRANCH   5   6
ATOM      6  C   UNL     1       6.116  -3.095  22.650  0.00  0.00    +0.206 C 
BRANCH   6  11
ATOM      7  C   UNL     1       8.667  -2.709  22.797  0.00  0.00    +0.178 C 
ATOM      8  C   UNL     1       9.488  -1.427  22.646  0.00  0.00    +0.195 C 
ATOM      9  C   UNL     1       8.439  -0.335  22.344  0.00  0.00    +0.255 C 
ATOM     10  O   UNL     1       7.143  -0.951  22.385  0.00  0.00    -0.346 OA
ATOM     11  C   UNL     1       7.265  -2.192  23.100  0.00  0.00    +0.178 C 
BRANCH   9  12
ATOM     12  N   UNL     1       8.485   0.815  23.260  0.00  0.00    -0.271 N 
ATOM     13  C   UNL     1       9.300   1.878  22.896  0.00  0.00    +0.331 A 
ATOM     14  O   UNL     1      10.002   1.871  21.887  0.00  0.00    -0.246 OA
ATOM     15  N   UNL     1       9.291   2.967  23.735  0.00  0.00    -0.275 N 
ATOM     16  H   UNL     1       9.865   3.749  23.480  0.00  0.00    +0.173 HD
ATOM     17  C   UNL     1       8.516   3.105  24.859  0.00  0.00    +0.254 A 
ATOM     18  O   UNL     1       8.511   4.119  25.540  0.00  0.00    -0.268 OA
ATOM     19  C   UNL     1       7.673   1.949  25.192  0.00  0.00    +0.088 A 
ATOM     20  C   UNL     1       7.692   0.882  24.391  0.00  0.00    +0.098 A 
ENDBRANCH   9  12
BRANCH   7  21
ATOM     21  O   UNL     1       9.186  -3.506  23.862  0.00  0.00    -0.386 OA
ATOM     22  H   UNL     1       8.952  -4.435  23.672  0.00  0.00    +0.210 HD
ENDBRANCH   7  21
BRANCH   8  23
ATOM     23  O   UNL     1      10.426  -1.563  21.564  0.00  0.00    -0.385 OA
ATOM     24  H   UNL     1      11.250  -1.125  21.860  0.00  0.00    +0.210 HD
ENDBRANCH   8  23
ENDBRANCH   6  11
ENDBRANCH   5   6
ENDBRANCH   1   5
BRANCH   1  25
ATOM     25  O   UNL     1       4.234  -5.603  22.465  0.00  0.00    -0.186 OA
BRANCH  25  26
ATOM     26  P   UNL     1       3.745  -5.756  24.118  0.00  0.00    +0.486 P 
ATOM     27  O   UNL     1       2.812  -6.906  23.727  0.00  0.00    -0.227 OA
BRANCH  26  28
ATOM     28  O   UNL     1       2.896  -4.367  24.038  0.00  0.00    -0.302 OA
ATOM     29  H   UNL     1       2.160  -4.433  23.399  0.00  0.00    +0.222 HD
ENDBRANCH  26  28
BRANCH  26  30
ATOM     30  O   UNL     1       3.257  -5.908  25.771  0.00  0.00    -0.254 OA
BRANCH  30  31
ATOM     31  C   UNL     1       4.193  -5.281  26.657  0.00  0.00    +0.293 C 
ATOM     32  C   UNL     1       5.473  -6.129  26.856  0.00  0.00    +0.202 C 
ATOM     33  C   UNL     1       6.487  -5.369  27.722  0.00  0.00    +0.178 C 
ATOM     34  C   UNL     1       6.756  -3.973  27.159  0.00  0.00    +0.171 C 
ATOM     35  C   UNL     1       5.413  -3.251  27.010  0.00  0.00    +0.197 C 
ATOM     36  O   UNL     1       4.523  -3.978  26.157  0.00  0.00    -0.346 OA
BRANCH  32  37
ATOM     37  O   UNL     1       5.140  -7.366  27.525  0.00  0.00    -0.384 OA
ATOM     38  H   UNL     1       5.602  -8.071  27.020  0.00  0.00    +0.210 HD
ENDBRANCH  32  37
BRANCH  33  39
ATOM     39  O   UNL     1       7.667  -6.172  27.855  0.00  0.00    -0.386 OA
ATOM     40  H   UNL     1       7.397  -7.110  27.818  0.00  0.00    +0.210 HD
ENDBRANCH  33  39
BRANCH  34  41
ATOM     41  O   UNL     1       7.434  -4.095  25.907  0.00  0.00    -0.387 OA
ATOM     42  H   UNL     1       6.861  -4.592  25.292  0.00  0.00    +0.210 HD
ENDBRANCH  34  41
ENDBRANCH  30  31
ENDBRANCH  26  30
ENDBRANCH  25  26
ENDBRANCH   1  25
TORSDOF 15
ENDMDL
MODEL 6
REMARK VINA RESULT:      -7.1      2.295      4.905
REMARK  Name = 
REMARK  15 active torsions:
REMARK  status: ('A' for Active; 'I' for Inactive)
REMARK    1  A    between atoms: O_1  and  C_2
REMARK    2  A    between atoms: C_4  and  C_6
REMARK    3  A    between atoms: C_6  and  O_7
REMARK    4  A    between atoms: O_7  and  P_8
REMARK    5  A    between atoms: P_8  and  O_9
REMARK    6  A    between atoms: P_8  and  O_11
REMARK    7  A    between atoms: O_11  and  P_12
REMARK    8  A    between atoms: P_12  and  O_13
REMARK    9  A    between atoms: P_12  and  O_15
REMARK   10  A    between atoms: O_15  and  C_16
REMARK   11  A    between atoms: C_20  and  O_22
REMARK   12  A    between atoms: C_23  and  O_25
REMARK   13  A    between atoms: C_26  and  O_28
REMARK   14  A    between atoms: C_30  and  N_35
REMARK   15  A    between atoms: C_32  and  O_34
REMARK                            x       y       z     vdW  Elec       q    Type
REMARK                         _______ _______ _______ _____ _____    ______ ____
ROOT
ATOM      1  P   UNL     1      10.188  -0.597  22.618  0.00  0.00    +0.483 P 
ATOM      2  O   UNL     1      10.639   0.056  23.934  0.00  0.00    -0.227 OA
ENDROOT
BRANCH   1   3
ATOM      3  O   UNL     1      10.582  -2.122  23.330  0.00  0.00    -0.302 OA
ATOM      4  H   UNL     1       9.705  -2.451  23.616  0.00  0.00    +0.222 HD
ENDBRANCH   1   3
BRANCH   1   5
ATOM      5  O   UNL     1       8.568  -0.909  22.846  0.00  0.00    -0.284 OA
BRANCH   5   6
ATOM      6  C   UNL     1       8.030  -1.861  21.943  0.00  0.00    +0.206 C 
BRANCH   6  11
ATOM      7  C   UNL     1       6.561  -3.976  21.721  0.00  0.00    +0.178 C 
ATOM      8  C   UNL     1       6.579  -5.285  22.511  0.00  0.00    +0.195 C 
ATOM      9  C   UNL     1       7.735  -5.107  23.520  0.00  0.00    +0.255 C 
ATOM     10  O   UNL     1       8.270  -3.787  23.342  0.00  0.00    -0.346 OA
ATOM     11  C   UNL     1       7.290  -3.003  22.641  0.00  0.00    +0.178 C 
BRANCH   9  12
ATOM     12  N   UNL     1       7.348  -5.315  24.924  0.00  0.00    -0.271 N 
ATOM     13  C   UNL     1       8.374  -5.501  25.840  0.00  0.00    +0.331 A 
ATOM     14  O   UNL     1       9.559  -5.546  25.519  0.00  0.00    -0.246 OA
ATOM     15  N   UNL     1       7.998  -5.640  27.154  0.00  0.00    -0.275 N 
ATOM     16  H   UNL     1       8.728  -5.764  27.831  0.00  0.00    +0.173 HD
ATOM     17  C   UNL     1       6.714  -5.561  27.632  0.00  0.00    +0.254 A 
ATOM     18  O   UNL     1       6.443  -5.642  28.821  0.00  0.00    -0.268 OA
ATOM     19  C   UNL     1       5.672  -5.360  26.617  0.00  0.00    +0.088 A 
ATOM     20  C   UNL     1       6.029  -5.244  25.337  0.00  0.00    +0.098 A 
ENDBRANCH   9  12
BRANCH   7  21
ATOM     21  O   UNL     1       5.216  -3.569  21.469  0.00  0.00    -0.386 OA
ATOM     22  H   UNL     1       4.932  -4.000  20.640  0.00  0.00    +0.210 HD
ENDBRANCH   7  21
BRANCH   8  23
ATOM     23  O   UNL     1       6.824  -6.394  21.628  0.00  0.00    -0.385 OA
ATOM     24  H   UNL     1       6.159  -6.328  20.914  0.00  0.00    +0.210 HD
ENDBRANCH   8  23
ENDBRANCH   6  11
ENDBRANCH   5   6
ENDBRANCH   1   5
BRANCH   1  25
ATOM     25  O   UNL     1       9.793   0.930  21.906  0.00  0.00    -0.186 OA
BRANCH  25  26
ATOM     26  P   UNL     1       8.712   1.790  22.947  0.00  0.00    +0.486 P 
ATOM     27  O   UNL     1       7.844   2.148  21.736  0.00  0.00    -0.227 OA
BRANCH  26  28
ATOM     28  O   UNL     1       9.800   2.986  23.159  0.00  0.00    -0.302 OA
ATOM     29  H   UNL     1       9.416   3.738  23.650  0.00  0.00    +0.222 HD
ENDBRANCH  26  28
BRANCH  26  30
ATOM     30  O   UNL     1       7.631   2.651  23.988  0.00  0.00    -0.254 OA
BRANCH  30  31
ATOM     31  C   UNL     1       7.162   1.824  25.061  0.00  0.00    +0.293 C 
ATOM     32  C   UNL     1       6.138   0.766  24.584  0.00  0.00    +0.202 C 
ATOM     33  C   UNL     1       5.750  -0.162  25.742  0.00  0.00    +0.178 C 
ATOM     34  C   UNL     1       6.989  -0.763  26.407  0.00  0.00    +0.171 C 
ATOM     35  C   UNL     1       7.912   0.387  26.824  0.00  0.00    +0.197 C 
ATOM     36  O   UNL     1       8.281   1.193  25.700  0.00  0.00    -0.346 OA
BRANCH  32  37
ATOM     37  O   UNL     1       4.943   1.424  24.108  0.00  0.00    -0.384 OA
ATOM     38  H   UNL     1       5.185   2.371  24.007  0.00  0.00    +0.210 HD
ENDBRANCH  32  37
BRANCH  33  39
ATOM     39  O   UNL     1       4.827  -1.144  25.253  0.00  0.00    -0.386 OA
ATOM     40  H   UNL     1       4.565  -1.709  26.005  0.00  0.00    +0.210 HD
ENDBRANCH  33  39
BRANCH  34  41
ATOM     41  O   UNL     1       7.630  -1.651  25.488  0.00  0.00    -0.387 OA
ATOM     42  H   UNL     1       7.539  -2.562  25.825  0.00  0.00    +0.210 HD
ENDBRANCH  34  41
ENDBRANCH  30  31
ENDBRANCH  26  30
ENDBRANCH  25  26
ENDBRANCH   1  25
TORSDOF 15
ENDMDL
MODEL 7
REMARK VINA RESULT:      -7.1      2.958      4.263
REMARK  Name = 
REMARK  15 active torsions:
REMARK  status: ('A' for Active; 'I' for Inactive)
REMARK    1  A    between atoms: O_1  and  C_2
REMARK    2  A    between atoms: C_4  and  C_6
REMARK    3  A    between atoms: C_6  and  O_7
REMARK    4  A    between atoms: O_7  and  P_8
REMARK    5  A    between atoms: P_8  and  O_9
REMARK    6  A    between atoms: P_8  and  O_11
REMARK    7  A    between atoms: O_11  and  P_12
REMARK    8  A    between atoms: P_12  and  O_13
REMARK    9  A    between atoms: P_12  and  O_15
REMARK   10  A    between atoms: O_15  and  C_16
REMARK   11  A    between atoms: C_20  and  O_22
REMARK   12  A    between atoms: C_23  and  O_25
REMARK   13  A    between atoms: C_26  and  O_28
REMARK   14  A    between atoms: C_30  and  N_35
REMARK   15  A    between atoms: C_32  and  O_34
REMARK                            x       y       z     vdW  Elec       q    Type
REMARK                         _______ _______ _______ _____ _____    ______ ____
ROOT
ATOM      1  P   UNL     1       8.872  -4.610  25.067  0.00  0.00    +0.483 P 
ATOM      2  O   UNL     1       9.065  -4.183  26.531  0.00  0.00    -0.227 OA
ENDROOT
BRANCH   1   3
ATOM      3  O   UNL     1       9.804  -6.019  25.438  0.00  0.00    -0.302 OA
ATOM      4  H   UNL     1      10.672  -5.806  25.035  0.00  0.00    +0.222 HD
ENDBRANCH   1   3
BRANCH   1   5
ATOM      5  O   UNL     1       7.481  -5.525  25.084  0.00  0.00    -0.284 OA
BRANCH   5   6
ATOM      6  C   UNL     1       6.780  -5.488  26.316  0.00  0.00    +0.206 C 
BRANCH   6  11
ATOM      7  C   UNL     1       4.716  -6.362  27.603  0.00  0.00    +0.178 C 
ATOM      8  C   UNL     1       3.241  -6.405  27.202  0.00  0.00    +0.195 C 
ATOM      9  C   UNL     1       3.207  -5.763  25.798  0.00  0.00    +0.255 C 
ATOM     10  O   UNL     1       4.558  -5.447  25.430  0.00  0.00    -0.346 OA
ATOM     11  C   UNL     1       5.437  -6.218  26.268  0.00  0.00    +0.178 C 
BRANCH   9  12
ATOM     12  N   UNL     1       2.581  -6.603  24.766  0.00  0.00    -0.271 N 
ATOM     13  C   UNL     1       2.541  -6.092  23.476  0.00  0.00    +0.331 A 
ATOM     14  O   UNL     1       2.955  -4.972  23.186  0.00  0.00    -0.246 OA
ATOM     15  N   UNL     1       2.002  -6.911  22.513  0.00  0.00    -0.275 N 
ATOM     16  H   UNL     1       1.975  -6.561  21.573  0.00  0.00    +0.173 HD
ATOM     17  C   UNL     1       1.552  -8.192  22.713  0.00  0.00    +0.254 A 
ATOM     18  O   UNL     1       1.129  -8.894  21.807  0.00  0.00    -0.268 OA
ATOM     19  C   UNL     1       1.622  -8.679  24.096  0.00  0.00    +0.088 A 
ATOM     20  C   UNL     1       2.127  -7.881  25.039  0.00  0.00    +0.098 A 
ENDBRANCH   9  12
BRANCH   7  21
ATOM     21  O   UNL     1       5.080  -7.564  28.281  0.00  0.00    -0.386 OA
ATOM     22  H   UNL     1       5.691  -7.320  29.002  0.00  0.00    +0.210 HD
ENDBRANCH   7  21
BRANCH   8  23
ATOM     23  O   UNL     1       2.449  -5.653  28.139  0.00  0.00    -0.385 OA
ATOM     24  H   UNL     1       1.974  -6.311  28.686  0.00  0.00    +0.210 HD
ENDBRANCH   8  23
ENDBRANCH   6  11
ENDBRANCH   5   6
ENDBRANCH   1   5
BRANCH   1  25
ATOM     25  O   UNL     1       7.940  -3.200  24.697  0.00  0.00    -0.186 OA
BRANCH  25  26
ATOM     26  P   UNL     1       8.682  -2.345  23.388  0.00  0.00    +0.486 P 
ATOM     27  O   UNL     1       7.897  -3.206  22.393  0.00  0.00    -0.227 OA
BRANCH  26  28
ATOM     28  O   UNL     1      10.113  -3.076  23.668  0.00  0.00    -0.302 OA
ATOM     29  H   UNL     1      10.474  -2.833  24.543  0.00  0.00    +0.222 HD
ENDBRANCH  26  28
BRANCH  26  30
ATOM     30  O   UNL     1       9.424  -1.491  22.080  0.00  0.00    -0.254 OA
BRANCH  30  31
ATOM     31  C   UNL     1      10.030  -0.270  22.524  0.00  0.00    +0.293 C 
ATOM     32  C   UNL     1       9.121   0.959  22.283  0.00  0.00    +0.202 C 
ATOM     33  C   UNL     1       9.763   2.222  22.871  0.00  0.00    +0.178 C 
ATOM     34  C   UNL     1      10.143   2.016  24.339  0.00  0.00    +0.171 C 
ATOM     35  C   UNL     1      11.033   0.773  24.431  0.00  0.00    +0.197 C 
ATOM     36  O   UNL     1      10.370  -0.384  23.912  0.00  0.00    -0.346 OA
BRANCH  32  37
ATOM     37  O   UNL     1       8.938   1.161  20.864  0.00  0.00    -0.384 OA
ATOM     38  H   UNL     1       8.395   0.401  20.557  0.00  0.00    +0.210 HD
ENDBRANCH  32  37
BRANCH  33  39
ATOM     39  O   UNL     1       8.878   3.329  22.657  0.00  0.00    -0.386 OA
ATOM     40  H   UNL     1       7.986   2.970  22.486  0.00  0.00    +0.210 HD
ENDBRANCH  33  39
BRANCH  34  41
ATOM     41  O   UNL     1       8.951   1.873  25.114  0.00  0.00    -0.387 OA
ATOM     42  H   UNL     1       8.741   0.923  25.187  0.00  0.00    +0.210 HD
ENDBRANCH  34  41
ENDBRANCH  30  31
ENDBRANCH  26  30
ENDBRANCH  25  26
ENDBRANCH   1  25
TORSDOF 15
ENDMDL
MODEL 8
REMARK VINA RESULT:      -7.1      3.185      7.425
REMARK  Name = 
REMARK  15 active torsions:
REMARK  status: ('A' for Active; 'I' for Inactive)
REMARK    1  A    between atoms: O_1  and  C_2
REMARK    2  A    between atoms: C_4  and  C_6
REMARK    3  A    between atoms: C_6  and  O_7
REMARK    4  A    between atoms: O_7  and  P_8
REMARK    5  A    between atoms: P_8  and  O_9
REMARK    6  A    between atoms: P_8  and  O_11
REMARK    7  A    between atoms: O_11  and  P_12
REMARK    8  A    between atoms: P_12  and  O_13
REMARK    9  A    between atoms: P_12  and  O_15
REMARK   10  A    between atoms: O_15  and  C_16
REMARK   11  A    between atoms: C_20  and  O_22
REMARK   12  A    between atoms: C_23  and  O_25
REMARK   13  A    between atoms: C_26  and  O_28
REMARK   14  A    between atoms: C_30  and  N_35
REMARK   15  A    between atoms: C_32  and  O_34
REMARK                            x       y       z     vdW  Elec       q    Type
REMARK                         _______ _______ _______ _____ _____    ______ ____
ROOT
ATOM      1  P   UNL     1       8.997  -4.327  25.879  0.00  0.00    +0.483 P 
ATOM      2  O   UNL     1       8.361  -5.381  24.958  0.00  0.00    -0.227 OA
ENDROOT
BRANCH   1   3
ATOM      3  O   UNL     1       9.997  -3.876  24.543  0.00  0.00    -0.302 OA
ATOM      4  H   UNL     1      10.611  -4.637  24.477  0.00  0.00    +0.222 HD
ENDBRANCH   1   3
BRANCH   1   5
ATOM      5  O   UNL     1       8.071  -2.963  25.647  0.00  0.00    -0.284 OA
BRANCH   5   6
ATOM      6  C   UNL     1       8.706  -1.758  26.044  0.00  0.00    +0.206 C 
BRANCH   6  11
ATOM      7  C   UNL     1       7.897  -0.989  23.714  0.00  0.00    +0.178 C 
ATOM      8  C   UNL     1       7.604   0.414  23.177  0.00  0.00    +0.195 C 
ATOM      9  C   UNL     1       7.877   1.347  24.377  0.00  0.00    +0.255 C 
ATOM     10  O   UNL     1       8.340   0.534  25.466  0.00  0.00    -0.346 OA
ATOM     11  C   UNL     1       8.785  -0.721  24.923  0.00  0.00    +0.178 C 
BRANCH   9  12
ATOM     12  N   UNL     1       8.842   2.421  24.098  0.00  0.00    -0.271 N 
ATOM     13  C   UNL     1       8.511   3.695  24.537  0.00  0.00    +0.331 A 
ATOM     14  O   UNL     1       7.446   3.958  25.092  0.00  0.00    -0.246 OA
ATOM     15  N   UNL     1       9.447   4.678  24.316  0.00  0.00    -0.275 N 
ATOM     16  H   UNL     1       9.228   5.602  24.638  0.00  0.00    +0.173 HD
ATOM     17  C   UNL     1      10.683   4.492  23.750  0.00  0.00    +0.254 A 
ATOM     18  O   UNL     1      11.497   5.395  23.625  0.00  0.00    -0.268 OA
ATOM     19  C   UNL     1      10.977   3.123  23.308  0.00  0.00    +0.088 A 
ATOM     20  C   UNL     1      10.065   2.170  23.502  0.00  0.00    +0.098 A 
ENDBRANCH   9  12
BRANCH   7  21
ATOM     21  O   UNL     1       8.564  -1.768  22.721  0.00  0.00    -0.386 OA
ATOM     22  H   UNL     1       9.505  -1.508  22.729  0.00  0.00    +0.210 HD
ENDBRANCH   7  21
BRANCH   8  23
ATOM     23  O   UNL     1       6.235   0.505  22.746  0.00  0.00    -0.385 OA
ATOM     24  H   UNL     1       6.262   0.684  21.784  0.00  0.00    +0.210 HD
ENDBRANCH   8  23
ENDBRANCH   6  11
ENDBRANCH   5   6
ENDBRANCH   1   5
BRANCH   1  25
ATOM     25  O   UNL     1       7.996  -4.779  27.216  0.00  0.00    -0.186 OA
BRANCH  25  26
ATOM     26  P   UNL     1       6.354  -4.913  26.688  0.00  0.00    +0.486 P 
ATOM     27  O   UNL     1       5.898  -4.162  27.944  0.00  0.00    -0.227 OA
BRANCH  26  28
ATOM     28  O   UNL     1       6.334  -6.509  27.020  0.00  0.00    -0.302 OA
ATOM     29  H   UNL     1       5.436  -6.816  27.252  0.00  0.00    +0.222 HD
ENDBRANCH  26  28
BRANCH  26  30
ATOM     30  O   UNL     1       4.712  -5.047  26.161  0.00  0.00    -0.254 OA
BRANCH  30  31
ATOM     31  C   UNL     1       4.609  -4.965  24.733  0.00  0.00    +0.293 C 
ATOM     32  C   UNL     1       5.100  -3.603  24.186  0.00  0.00    +0.202 C 
ATOM     33  C   UNL     1       5.073  -3.602  22.652  0.00  0.00    +0.178 C 
ATOM     34  C   UNL     1       5.833  -4.803  22.086  0.00  0.00    +0.171 C 
ATOM     35  C   UNL     1       5.250  -6.074  22.711  0.00  0.00    +0.197 C 
ATOM     36  O   UNL     1       5.343  -6.043  24.139  0.00  0.00    -0.346 OA
BRANCH  32  37
ATOM     37  O   UNL     1       4.234  -2.546  24.657  0.00  0.00    -0.384 OA
ATOM     38  H   UNL     1       4.194  -1.892  23.924  0.00  0.00    +0.210 HD
ENDBRANCH  32  37
BRANCH  33  39
ATOM     39  O   UNL     1       5.565  -2.339  22.186  0.00  0.00    -0.386 OA
ATOM     40  H   UNL     1       4.890  -1.663  22.386  0.00  0.00    +0.210 HD
ENDBRANCH  33  39
BRANCH  34  41
ATOM     41  O   UNL     1       7.225  -4.656  22.381  0.00  0.00    -0.387 OA
ATOM     42  H   UNL     1       7.737  -4.919  21.592  0.00  0.00    +0.210 HD
ENDBRANCH  34  41
ENDBRANCH  30  31
ENDBRANCH  26  30
ENDBRANCH  25  26
ENDBRANCH   1  25
TORSDOF 15
ENDMDL
MODEL 9
REMARK VINA RESULT:      -7.0      2.398      4.490
REMARK  Name = 
REMARK  15 active torsions:
REMARK  status: ('A' for Active; 'I' for Inactive)
REMARK    1  A    between atoms: O_1  and  C_2
REMARK    2  A    between atoms: C_4  and  C_6
REMARK    3  A    between atoms: C_6  and  O_7
REMARK    4  A    between atoms: O_7  and  P_8
REMARK    5  A    between atoms: P_8  and  O_9
REMARK    6  A    between atoms: P_8  and  O_11
REMARK    7  A    between atoms: O_11  and  P_12
REMARK    8  A    between atoms: P_12  and  O_13
REMARK    9  A    between atoms: P_12  and  O_15
REMARK   10  A    between atoms: O_15  and  C_16
REMARK   11  A    between atoms: C_20  and  O_22
REMARK   12  A    between atoms: C_23  and  O_25
REMARK   13  A    between atoms: C_26  and  O_28
REMARK   14  A    between atoms: C_30  and  N_35
REMARK   15  A    between atoms: C_32  and  O_34
REMARK                            x       y       z     vdW  Elec       q    Type
REMARK                         _______ _______ _______ _____ _____    ______ ____
ROOT
ATOM      1  P   UNL     1      10.085   0.137  24.607  0.00  0.00    +0.483 P 
ATOM      2  O   UNL     1       9.760   1.636  24.707  0.00  0.00    -0.227 OA
ENDROOT
BRANCH   1   3
ATOM      3  O   UNL     1       9.717   0.024  26.293  0.00  0.00    -0.302 OA
ATOM      4  H   UNL     1       9.377   0.922  26.491  0.00  0.00    +0.222 HD
ENDBRANCH   1   3
BRANCH   1   5
ATOM      5  O   UNL     1       8.626  -0.578  24.240  0.00  0.00    -0.284 OA
BRANCH   5   6
ATOM      6  C   UNL     1       8.680  -1.993  24.160  0.00  0.00    +0.206 C 
BRANCH   6  11
ATOM      7  C   UNL     1       6.159  -2.405  23.769  0.00  0.00    +0.178 C 
ATOM      8  C   UNL     1       5.317  -3.667  23.963  0.00  0.00    +0.195 C 
ATOM      9  C   UNL     1       6.328  -4.730  24.445  0.00  0.00    +0.255 C 
ATOM     10  O   UNL     1       7.609  -4.093  24.565  0.00  0.00    -0.346 OA
ATOM     11  C   UNL     1       7.392  -2.672  24.625  0.00  0.00    +0.178 C 
BRANCH   9  12
ATOM     12  N   UNL     1       5.961  -5.380  25.713  0.00  0.00    -0.271 N 
ATOM     13  C   UNL     1       5.119  -6.480  25.637  0.00  0.00    +0.331 A 
ATOM     14  O   UNL     1       4.642  -6.888  24.580  0.00  0.00    -0.246 OA
ATOM     15  N   UNL     1       4.829  -7.108  26.825  0.00  0.00    -0.275 N 
ATOM     16  H   UNL     1       4.230  -7.912  26.786  0.00  0.00    +0.173 HD
ATOM     17  C   UNL     1       5.337  -6.769  28.054  0.00  0.00    +0.254 A 
ATOM     18  O   UNL     1       5.084  -7.397  29.071  0.00  0.00    -0.268 OA
ATOM     19  C   UNL     1       6.225  -5.599  28.071  0.00  0.00    +0.088 A 
ATOM     20  C   UNL     1       6.494  -4.974  26.923  0.00  0.00    +0.098 A 
ENDBRANCH   9  12
BRANCH   7  21
ATOM     21  O   UNL     1       5.437  -1.256  24.214  0.00  0.00    -0.386 OA
ATOM     22  H   UNL     1       5.086  -1.458  25.102  0.00  0.00    +0.210 HD
ENDBRANCH   7  21
BRANCH   8  23
ATOM     23  O   UNL     1       4.708  -4.053  22.718  0.00  0.00    -0.385 OA
ATOM     24  H   UNL     1       3.815  -4.387  22.942  0.00  0.00    +0.210 HD
ENDBRANCH   8  23
ENDBRANCH   6  11
ENDBRANCH   5   6
ENDBRANCH   1   5
BRANCH   1  25
ATOM     25  O   UNL     1      10.454   0.251  22.920  0.00  0.00    -0.186 OA
BRANCH  25  26
ATOM     26  P   UNL     1       9.223   1.168  22.121  0.00  0.00    +0.486 P 
ATOM     27  O   UNL     1       9.191   0.129  20.996  0.00  0.00    -0.227 OA
BRANCH  26  28
ATOM     28  O   UNL     1      10.295   2.325  21.710  0.00  0.00    -0.302 OA
ATOM     29  H   UNL     1      11.075   2.316  22.298  0.00  0.00    +0.222 HD
ENDBRANCH  26  28
BRANCH  26  30
ATOM     30  O   UNL     1       7.994   2.086  21.322  0.00  0.00    -0.254 OA
BRANCH  30  31
ATOM     31  C   UNL     1       7.336   2.984  22.225  0.00  0.00    +0.293 C 
ATOM     32  C   UNL     1       6.739   2.252  23.452  0.00  0.00    +0.202 C 
ATOM     33  C   UNL     1       6.143   3.264  24.439  0.00  0.00    +0.178 C 
ATOM     34  C   UNL     1       7.162   4.345  24.804  0.00  0.00    +0.171 C 
ATOM     35  C   UNL     1       7.670   4.979  23.505  0.00  0.00    +0.197 C 
ATOM     36  O   UNL     1       8.257   4.001  22.641  0.00  0.00    -0.346 OA
BRANCH  32  37
ATOM     37  O   UNL     1       5.686   1.360  23.024  0.00  0.00    -0.384 OA
ATOM     38  H   UNL     1       5.535   1.566  22.075  0.00  0.00    +0.210 HD
ENDBRANCH  32  37
BRANCH  33  39
ATOM     39  O   UNL     1       5.632   2.550  25.573  0.00  0.00    -0.386 OA
ATOM     40  H   UNL     1       4.675   2.736  25.637  0.00  0.00    +0.210 HD
ENDBRANCH  33  39
BRANCH  34  41
ATOM     41  O   UNL     1       8.224   3.752  25.555  0.00  0.00    -0.387 OA
ATOM     42  H   UNL     1       8.004   2.815  25.715  0.00  0.00    +0.210 HD
ENDBRANCH  34  41
ENDBRANCH  30  31
ENDBRANCH  26  30
ENDBRANCH  25  26
ENDBRANCH   1  25
TORSDOF 15
ENDMDL
