MODEL 1
REMARK VINA RESULT:      -6.5      0.000      0.000
REMARK  Name = 
REMARK  10 active torsions:
REMARK  status: ('A' for Active; 'I' for Inactive)
REMARK    1  A    between atoms: C_1  and  C_2
REMARK    2  A    between atoms: C_2  and  C_3
REMARK    3  A    between atoms: C_2  and  C_4
REMARK    4  A    between atoms: C_2  and  C_5
REMARK    5  A    between atoms: C_5  and  O_6
REMARK    6  A    between atoms: O_6  and  C_7
REMARK    7  A    between atoms: C_8  and  C_21
REMARK    8  A    between atoms: C_10  and  N_13
REMARK    9  A    between atoms: C_15  and  C_18
REMARK   10  A    between atoms: C_18  and  O_19
REMARK                            x       y       z     vdW  Elec       q    Type
REMARK                         _______ _______ _______ _____ _____    ______ ____
ROOT
ATOM      1  C   UNL     1       9.157  -1.289  23.109  0.00  0.00    +0.138 A 
ATOM      2  C   UNL     1       9.566  -0.532  22.006  0.00  0.00    +0.049 A 
ATOM      3  C   UNL     1       9.945   0.796  22.143  0.00  0.00    +0.031 A 
ATOM      4  C   UNL     1       9.932   1.406  23.398  0.00  0.00    +0.067 A 
ATOM      5  C   UNL     1       9.568   0.650  24.525  0.00  0.00    +0.050 A 
ATOM      6  C   UNL     1       9.179  -0.698  24.384  0.00  0.00    +0.095 A 
ENDROOT
BRANCH   4   7
ATOM      7  N   UNL     1      10.278   2.778  23.513  0.00  0.00    -0.239 N 
ATOM      8  N   UNL     1       9.364   3.721  23.851  0.00  0.00    -0.174 NA
ATOM      9  C   UNL     1      10.055   4.864  23.872  0.00  0.00    +0.149 A 
ATOM     10  C   UNL     1      11.414   4.698  23.546  0.00  0.00    +0.097 A 
ATOM     11  C   UNL     1      11.512   3.344  23.301  0.00  0.00    +0.129 A 
BRANCH  10  12
ATOM     12  C   UNL     1      12.529   5.624  23.449  0.00  0.00    +0.340 C 
ATOM     13  O   UNL     1      13.182   5.769  22.427  0.00  0.00    -0.245 OA
BRANCH  12  14
ATOM     14  O   UNL     1      12.812   6.321  24.574  0.00  0.00    -0.477 OA
ATOM     15  H   UNL     1      12.087   6.877  24.902  0.00  0.00    +0.295 HD
ENDBRANCH  12  14
ENDBRANCH  10  12
ENDBRANCH   4   7
BRANCH   6  16
ATOM     16  C   UNL     1       8.799  -1.445  25.554  0.00  0.00    +0.103 C 
ATOM     17  N   UNL     1       8.475  -2.083  26.468  0.00  0.00    -0.191 NA
ENDBRANCH   6  16
BRANCH   1  18
ATOM     18  O   UNL     1       8.724  -2.591  23.000  0.00  0.00    -0.490 OA
BRANCH  18  19
ATOM     19  C   UNL     1       7.498  -2.762  22.277  0.00  0.00    +0.235 C 
BRANCH  19  21
ATOM     20  C   UNL     1       6.956  -5.145  21.655  0.00  0.00    +0.014 C 
ATOM     21  C   UNL     1       6.736  -4.032  22.690  0.00  0.00    -0.004 C 
ATOM     22  C   UNL     1       7.289  -4.486  24.054  0.00  0.00    +0.014 C 
ATOM     23  C   UNL     1       5.238  -3.729  22.818  0.00  0.00    +0.014 C 
ENDBRANCH  19  21
ENDBRANCH  18  19
ENDBRANCH   1  18
TORSDOF 7
ENDMDL
MODEL 2
REMARK VINA RESULT:      -6.4      2.531      4.083
REMARK  Name = 
REMARK  10 active torsions:
REMARK  status: ('A' for Active; 'I' for Inactive)
REMARK    1  A    between atoms: C_1  and  C_2
REMARK    2  A    between atoms: C_2  and  C_3
REMARK    3  A    between atoms: C_2  and  C_4
REMARK    4  A    between atoms: C_2  and  C_5
REMARK    5  A    between atoms: C_5  and  O_6
REMARK    6  A    between atoms: O_6  and  C_7
REMARK    7  A    between atoms: C_8  and  C_21
REMARK    8  A    between atoms: C_10  and  N_13
REMARK    9  A    between atoms: C_15  and  C_18
REMARK   10  A    between atoms: C_18  and  O_19
REMARK                            x       y       z     vdW  Elec       q    Type
REMARK                         _______ _______ _______ _____ _____    ______ ____
ROOT
ATOM      1  C   UNL     1       7.022  -4.642  23.397  0.00  0.00    +0.138 A 
ATOM      2  C   UNL     1       7.223  -3.766  22.325  0.00  0.00    +0.049 A 
ATOM      3  C   UNL     1       7.951  -2.593  22.480  0.00  0.00    +0.031 A 
ATOM      4  C   UNL     1       8.507  -2.268  23.717  0.00  0.00    +0.067 A 
ATOM      5  C   UNL     1       8.355  -3.158  24.794  0.00  0.00    +0.050 A 
ATOM      6  C   UNL     1       7.612  -4.346  24.637  0.00  0.00    +0.095 A 
ENDROOT
BRANCH   4   7
ATOM      7  N   UNL     1       9.209  -1.043  23.869  0.00  0.00    -0.239 N 
ATOM      8  N   UNL     1       9.903  -0.751  24.995  0.00  0.00    -0.174 NA
ATOM      9  C   UNL     1      10.427   0.456  24.762  0.00  0.00    +0.149 A 
ATOM     10  C   UNL     1      10.087   0.975  23.498  0.00  0.00    +0.097 A 
ATOM     11  C   UNL     1       9.284  -0.012  22.963  0.00  0.00    +0.129 A 
BRANCH  10  12
ATOM     12  C   UNL     1      10.419   2.211  22.815  0.00  0.00    +0.340 C 
ATOM     13  O   UNL     1      10.889   3.181  23.392  0.00  0.00    -0.245 OA
BRANCH  12  14
ATOM     14  O   UNL     1      10.169   2.234  21.485  0.00  0.00    -0.477 OA
ATOM     15  H   UNL     1       9.697   3.023  21.173  0.00  0.00    +0.295 HD
ENDBRANCH  12  14
ENDBRANCH  10  12
ENDBRANCH   4   7
BRANCH   6  16
ATOM     16  C   UNL     1       7.460  -5.233  25.761  0.00  0.00    +0.103 C 
ATOM     17  N   UNL     1       7.291  -5.951  26.656  0.00  0.00    -0.191 NA
ENDBRANCH   6  16
BRANCH   1  18
ATOM     18  O   UNL     1       6.260  -5.784  23.292  0.00  0.00    -0.490 OA
BRANCH  18  19
ATOM     19  C   UNL     1       4.972  -5.599  22.690  0.00  0.00    +0.235 C 
BRANCH  19  21
ATOM     20  C   UNL     1       2.530  -6.154  22.985  0.00  0.00    +0.014 C 
ATOM     21  C   UNL     1       3.820  -5.729  23.700  0.00  0.00    -0.004 C 
ATOM     22  C   UNL     1       4.217  -6.808  24.725  0.00  0.00    +0.014 C 
ATOM     23  C   UNL     1       3.599  -4.393  24.420  0.00  0.00    +0.014 C 
ENDBRANCH  19  21
ENDBRANCH  18  19
ENDBRANCH   1  18
TORSDOF 7
ENDMDL
MODEL 3
REMARK VINA RESULT:      -6.3      3.506      5.475
REMARK  Name = 
REMARK  10 active torsions:
REMARK  status: ('A' for Active; 'I' for Inactive)
REMARK    1  A    between atoms: C_1  and  C_2
REMARK    2  A    between atoms: C_2  and  C_3
REMARK    3  A    between atoms: C_2  and  C_4
REMARK    4  A    between atoms: C_2  and  C_5
REMARK    5  A    between atoms: C_5  and  O_6
REMARK    6  A    between atoms: O_6  and  C_7
REMARK    7  A    between atoms: C_8  and  C_21
REMARK    8  A    between atoms: C_10  and  N_13
REMARK    9  A    between atoms: C_15  and  C_18
REMARK   10  A    between atoms: C_18  and  O_19
REMARK                            x       y       z     vdW  Elec       q    Type
REMARK                         _______ _______ _______ _____ _____    ______ ____
ROOT
ATOM      1  C   UNL     1       6.103  -5.302  24.515  0.00  0.00    +0.138 A 
ATOM      2  C   UNL     1       6.017  -4.822  23.204  0.00  0.00    +0.049 A 
ATOM      3  C   UNL     1       6.897  -3.857  22.731  0.00  0.00    +0.031 A 
ATOM      4  C   UNL     1       7.895  -3.349  23.561  0.00  0.00    +0.067 A 
ATOM      5  C   UNL     1       8.027  -3.850  24.866  0.00  0.00    +0.050 A 
ATOM      6  C   UNL     1       7.130  -4.827  25.348  0.00  0.00    +0.095 A 
ENDROOT
BRANCH   4   7
ATOM      7  N   UNL     1       8.757  -2.329  23.076  0.00  0.00    -0.239 N 
ATOM      8  N   UNL     1      10.097  -2.507  22.983  0.00  0.00    -0.174 NA
ATOM      9  C   UNL     1      10.554  -1.356  22.482  0.00  0.00    +0.149 A 
ATOM     10  C   UNL     1       9.538  -0.411  22.246  0.00  0.00    +0.097 A 
ATOM     11  C   UNL     1       8.399  -1.068  22.661  0.00  0.00    +0.129 A 
BRANCH  10  12
ATOM     12  C   UNL     1       9.549   0.940  21.714  0.00  0.00    +0.340 C 
ATOM     13  O   UNL     1      10.326   1.799  22.104  0.00  0.00    -0.245 OA
BRANCH  12  14
ATOM     14  O   UNL     1       8.633   1.201  20.753  0.00  0.00    -0.477 OA
ATOM     15  H   UNL     1       8.533   0.503  20.085  0.00  0.00    +0.295 HD
ENDBRANCH  12  14
ENDBRANCH  10  12
ENDBRANCH   4   7
BRANCH   6  16
ATOM     16  C   UNL     1       7.279  -5.314  26.694  0.00  0.00    +0.103 C 
ATOM     17  N   UNL     1       7.401  -5.752  27.761  0.00  0.00    -0.191 NA
ENDBRANCH   6  16
BRANCH   1  18
ATOM     18  O   UNL     1       5.214  -6.218  25.033  0.00  0.00    -0.490 OA
BRANCH  18  19
ATOM     19  C   UNL     1       4.417  -6.904  24.058  0.00  0.00    +0.235 C 
BRANCH  19  21
ATOM     20  C   UNL     1       2.642  -6.188  25.700  0.00  0.00    +0.014 C 
ATOM     21  C   UNL     1       2.908  -6.709  24.281  0.00  0.00    -0.004 C 
ATOM     22  C   UNL     1       2.415  -5.671  23.254  0.00  0.00    +0.014 C 
ATOM     23  C   UNL     1       2.169  -8.035  24.066  0.00  0.00    +0.014 C 
ENDBRANCH  19  21
ENDBRANCH  18  19
ENDBRANCH   1  18
TORSDOF 7
ENDMDL
MODEL 4
REMARK VINA RESULT:      -6.3      1.869      2.313
REMARK  Name = 
REMARK  10 active torsions:
REMARK  status: ('A' for Active; 'I' for Inactive)
REMARK    1  A    between atoms: C_1  and  C_2
REMARK    2  A    between atoms: C_2  and  C_3
REMARK    3  A    between atoms: C_2  and  C_4
REMARK    4  A    between atoms: C_2  and  C_5
REMARK    5  A    between atoms: C_5  and  O_6
REMARK    6  A    between atoms: O_6  and  C_7
REMARK    7  A    between atoms: C_8  and  C_21
REMARK    8  A    between atoms: C_10  and  N_13
REMARK    9  A    between atoms: C_15  and  C_18
REMARK   10  A    between atoms: C_18  and  O_19
REMARK                            x       y       z     vdW  Elec       q    Type
REMARK                         _______ _______ _______ _____ _____    ______ ____
ROOT
ATOM      1  C   UNL     1       8.265   0.021  24.924  0.00  0.00    +0.138 A 
ATOM      2  C   UNL     1       9.662   0.046  24.860  0.00  0.00    +0.049 A 
ATOM      3  C   UNL     1      10.348   1.210  24.538  0.00  0.00    +0.031 A 
ATOM      4  C   UNL     1       9.650   2.388  24.277  0.00  0.00    +0.067 A 
ATOM      5  C   UNL     1       8.249   2.395  24.381  0.00  0.00    +0.050 A 
ATOM      6  C   UNL     1       7.553   1.212  24.704  0.00  0.00    +0.095 A 
ENDROOT
BRANCH   4   7
ATOM      7  N   UNL     1      10.364   3.558  23.904  0.00  0.00    -0.239 N 
ATOM      8  N   UNL     1       9.825   4.795  24.024  0.00  0.00    -0.174 NA
ATOM      9  C   UNL     1      10.784   5.621  23.595  0.00  0.00    +0.149 A 
ATOM     10  C   UNL     1      11.952   4.951  23.185  0.00  0.00    +0.097 A 
ATOM     11  C   UNL     1      11.633   3.623  23.380  0.00  0.00    +0.129 A 
BRANCH  10  12
ATOM     12  C   UNL     1      13.227   5.414  22.668  0.00  0.00    +0.340 C 
ATOM     13  O   UNL     1      13.318   6.205  21.742  0.00  0.00    -0.245 OA
BRANCH  12  14
ATOM     14  O   UNL     1      14.326   4.905  23.273  0.00  0.00    -0.477 OA
ATOM     15  H   UNL     1      15.069   4.717  22.677  0.00  0.00    +0.295 HD
ENDBRANCH  12  14
ENDBRANCH  10  12
ENDBRANCH   4   7
BRANCH   6  16
ATOM     16  C   UNL     1       6.116   1.243  24.791  0.00  0.00    +0.103 C 
ATOM     17  N   UNL     1       4.957   1.285  24.815  0.00  0.00    -0.191 NA
ENDBRANCH   6  16
BRANCH   1  18
ATOM     18  O   UNL     1       7.552  -1.128  25.187  0.00  0.00    -0.490 OA
BRANCH  18  19
ATOM     19  C   UNL     1       8.167  -2.339  24.730  0.00  0.00    +0.235 C 
BRANCH  19  21
ATOM     20  C   UNL     1       8.357  -2.298  22.216  0.00  0.00    +0.014 C 
ATOM     21  C   UNL     1       7.566  -2.850  23.410  0.00  0.00    -0.004 C 
ATOM     22  C   UNL     1       7.659  -4.387  23.419  0.00  0.00    +0.014 C 
ATOM     23  C   UNL     1       6.096  -2.425  23.303  0.00  0.00    +0.014 C 
ENDBRANCH  19  21
ENDBRANCH  18  19
ENDBRANCH   1  18
TORSDOF 7
ENDMDL
MODEL 5
REMARK VINA RESULT:      -6.1      2.464      8.141
REMARK  Name = 
REMARK  10 active torsions:
REMARK  status: ('A' for Active; 'I' for Inactive)
REMARK    1  A    between atoms: C_1  and  C_2
REMARK    2  A    between atoms: C_2  and  C_3
REMARK    3  A    between atoms: C_2  and  C_4
REMARK    4  A    between atoms: C_2  and  C_5
REMARK    5  A    between atoms: C_5  and  O_6
REMARK    6  A    between atoms: O_6  and  C_7
REMARK    7  A    between atoms: C_8  and  C_21
REMARK    8  A    between atoms: C_10  and  N_13
REMARK    9  A    between atoms: C_15  and  C_18
REMARK   10  A    between atoms: C_18  and  O_19
REMARK                            x       y       z     vdW  Elec       q    Type
REMARK                         _______ _______ _______ _____ _____    ______ ____
ROOT
ATOM      1  C   UNL     1       9.499   2.111  23.300  0.00  0.00    +0.138 A 
ATOM      2  C   UNL     1      10.468   1.232  23.796  0.00  0.00    +0.049 A 
ATOM      3  C   UNL     1      10.209  -0.126  23.927  0.00  0.00    +0.031 A 
ATOM      4  C   UNL     1       8.969  -0.645  23.556  0.00  0.00    +0.067 A 
ATOM      5  C   UNL     1       7.999   0.214  23.013  0.00  0.00    +0.050 A 
ATOM      6  C   UNL     1       8.260   1.594  22.884  0.00  0.00    +0.095 A 
ENDROOT
BRANCH   4   7
ATOM      7  N   UNL     1       8.705  -2.028  23.740  0.00  0.00    -0.239 N 
ATOM      8  N   UNL     1       7.938  -2.732  22.874  0.00  0.00    -0.174 NA
ATOM      9  C   UNL     1       7.932  -3.975  23.364  0.00  0.00    +0.149 A 
ATOM     10  C   UNL     1       8.680  -4.107  24.550  0.00  0.00    +0.097 A 
ATOM     11  C   UNL     1       9.144  -2.826  24.769  0.00  0.00    +0.129 A 
BRANCH  10  12
ATOM     12  C   UNL     1       8.966  -5.235  25.418  0.00  0.00    +0.340 C 
ATOM     13  O   UNL     1       8.134  -5.718  26.172  0.00  0.00    -0.245 OA
BRANCH  12  14
ATOM     14  O   UNL     1      10.226  -5.724  25.351  0.00  0.00    -0.477 OA
ATOM     15  H   UNL     1      10.644  -5.653  24.477  0.00  0.00    +0.295 HD
ENDBRANCH  12  14
ENDBRANCH  10  12
ENDBRANCH   4   7
BRANCH   6  16
ATOM     16  C   UNL     1       7.244   2.454  22.337  0.00  0.00    +0.103 C 
ATOM     17  N   UNL     1       6.448   3.185  21.915  0.00  0.00    -0.191 NA
ENDBRANCH   6  16
BRANCH   1  18
ATOM     18  O   UNL     1       9.704   3.470  23.207  0.00  0.00    -0.490 OA
BRANCH  18  19
ATOM     19  C   UNL     1       9.393   4.210  24.396  0.00  0.00    +0.235 C 
BRANCH  19  21
ATOM     20  C   UNL     1       9.527   6.412  25.616  0.00  0.00    +0.014 C 
ATOM     21  C   UNL     1       9.725   5.706  24.268  0.00  0.00    -0.004 C 
ATOM     22  C   UNL     1      11.199   5.823  23.840  0.00  0.00    +0.014 C 
ATOM     23  C   UNL     1       8.828   6.354  23.205  0.00  0.00    +0.014 C 
ENDBRANCH  19  21
ENDBRANCH  18  19
ENDBRANCH   1  18
TORSDOF 7
ENDMDL
MODEL 6
REMARK VINA RESULT:      -6.1      2.620      3.804
REMARK  Name = 
REMARK  10 active torsions:
REMARK  status: ('A' for Active; 'I' for Inactive)
REMARK    1  A    between atoms: C_1  and  C_2
REMARK    2  A    between atoms: C_2  and  C_3
REMARK    3  A    between atoms: C_2  and  C_4
REMARK    4  A    between atoms: C_2  and  C_5
REMARK    5  A    between atoms: C_5  and  O_6
REMARK    6  A    between atoms: O_6  and  C_7
REMARK    7  A    between atoms: C_8  and  C_21
REMARK    8  A    between atoms: C_10  and  N_13
REMARK    9  A    between atoms: C_15  and  C_18
REMARK   10  A    between atoms: C_18  and  O_19
REMARK                            x       y       z     vdW  Elec       q    Type
REMARK                         _______ _______ _______ _____ _____    ______ ____
ROOT
ATOM      1  C   UNL     1       7.859  -3.892  23.962  0.00  0.00    +0.138 A 
ATOM      2  C   UNL     1       8.702  -3.185  24.825  0.00  0.00    +0.049 A 
ATOM      3  C   UNL     1       9.123  -1.896  24.526  0.00  0.00    +0.031 A 
ATOM      4  C   UNL     1       8.703  -1.274  23.351  0.00  0.00    +0.067 A 
ATOM      5  C   UNL     1       7.820  -1.950  22.493  0.00  0.00    +0.050 A 
ATOM      6  C   UNL     1       7.396  -3.261  22.795  0.00  0.00    +0.095 A 
ENDROOT
BRANCH   4   7
ATOM      7  N   UNL     1       9.181   0.026  23.038  0.00  0.00    -0.239 N 
ATOM      8  N   UNL     1       9.692   0.327  21.820  0.00  0.00    -0.174 NA
ATOM      9  C   UNL     1      10.014   1.621  21.902  0.00  0.00    +0.149 A 
ATOM     10  C   UNL     1       9.730   2.186  23.160  0.00  0.00    +0.097 A 
ATOM     11  C   UNL     1       9.215   1.120  23.869  0.00  0.00    +0.129 A 
BRANCH  10  12
ATOM     12  C   UNL     1       9.893   3.522  23.704  0.00  0.00    +0.340 C 
ATOM     13  O   UNL     1       9.141   3.990  24.546  0.00  0.00    -0.245 OA
BRANCH  12  14
ATOM     14  O   UNL     1      10.935   4.233  23.214  0.00  0.00    -0.477 OA
ATOM     15  H   UNL     1      11.548   3.726  22.657  0.00  0.00    +0.295 HD
ENDBRANCH  12  14
ENDBRANCH  10  12
ENDBRANCH   4   7
BRANCH   6  16
ATOM     16  C   UNL     1       6.501  -3.936  21.892  0.00  0.00    +0.103 C 
ATOM     17  N   UNL     1       5.761  -4.436  21.152  0.00  0.00    -0.191 NA
ENDBRANCH   6  16
BRANCH   1  18
ATOM     18  O   UNL     1       7.466  -5.191  24.202  0.00  0.00    -0.490 OA
BRANCH  18  19
ATOM     19  C   UNL     1       6.868  -5.414  25.485  0.00  0.00    +0.235 C 
BRANCH  19  21
ATOM     20  C   UNL     1       5.035  -6.464  24.108  0.00  0.00    +0.014 C 
ATOM     21  C   UNL     1       5.359  -5.694  25.396  0.00  0.00    -0.004 C 
ATOM     22  C   UNL     1       4.970  -6.551  26.615  0.00  0.00    +0.014 C 
ATOM     23  C   UNL     1       4.576  -4.375  25.425  0.00  0.00    +0.014 C 
ENDBRANCH  19  21
ENDBRANCH  18  19
ENDBRANCH   1  18
TORSDOF 7
ENDMDL
MODEL 7
REMARK VINA RESULT:      -6.1      3.624      8.759
REMARK  Name = 
REMARK  10 active torsions:
REMARK  status: ('A' for Active; 'I' for Inactive)
REMARK    1  A    between atoms: C_1  and  C_2
REMARK    2  A    between atoms: C_2  and  C_3
REMARK    3  A    between atoms: C_2  and  C_4
REMARK    4  A    between atoms: C_2  and  C_5
REMARK    5  A    between atoms: C_5  and  O_6
REMARK    6  A    between atoms: O_6  and  C_7
REMARK    7  A    between atoms: C_8  and  C_21
REMARK    8  A    between atoms: C_10  and  N_13
REMARK    9  A    between atoms: C_15  and  C_18
REMARK   10  A    between atoms: C_18  and  O_19
REMARK                            x       y       z     vdW  Elec       q    Type
REMARK                         _______ _______ _______ _____ _____    ______ ____
ROOT
ATOM      1  C   UNL     1       7.411  -0.762  23.629  0.00  0.00    +0.138 A 
ATOM      2  C   UNL     1       6.222  -0.816  24.363  0.00  0.00    +0.049 A 
ATOM      3  C   UNL     1       5.852  -1.963  25.053  0.00  0.00    +0.031 A 
ATOM      4  C   UNL     1       6.671  -3.091  25.032  0.00  0.00    +0.067 A 
ATOM      5  C   UNL     1       7.891  -3.042  24.337  0.00  0.00    +0.050 A 
ATOM      6  C   UNL     1       8.264  -1.879  23.633  0.00  0.00    +0.095 A 
ENDROOT
BRANCH   4   7
ATOM      7  N   UNL     1       6.255  -4.271  25.705  0.00  0.00    -0.239 N 
ATOM      8  N   UNL     1       5.713  -5.320  25.041  0.00  0.00    -0.174 NA
ATOM      9  C   UNL     1       5.468  -6.227  25.991  0.00  0.00    +0.149 A 
ATOM     10  C   UNL     1       5.834  -5.795  27.280  0.00  0.00    +0.097 A 
ATOM     11  C   UNL     1       6.317  -4.522  27.054  0.00  0.00    +0.129 A 
BRANCH  10  12
ATOM     12  C   UNL     1       5.769  -6.420  28.588  0.00  0.00    +0.340 C 
ATOM     13  O   UNL     1       6.406  -6.014  29.548  0.00  0.00    -0.245 OA
BRANCH  12  14
ATOM     14  O   UNL     1       4.957  -7.498  28.685  0.00  0.00    -0.477 OA
ATOM     15  H   UNL     1       4.135  -7.437  28.170  0.00  0.00    +0.295 HD
ENDBRANCH  12  14
ENDBRANCH  10  12
ENDBRANCH   4   7
BRANCH   6  16
ATOM     16  C   UNL     1       9.514  -1.860  22.919  0.00  0.00    +0.103 C 
ATOM     17  N   UNL     1      10.531  -1.888  22.362  0.00  0.00    -0.191 NA
ENDBRANCH   6  16
BRANCH   1  18
ATOM     18  O   UNL     1       7.781   0.340  22.889  0.00  0.00    -0.490 OA
BRANCH  18  19
ATOM     19  C   UNL     1       8.077   1.512  23.659  0.00  0.00    +0.235 C 
BRANCH  19  21
ATOM     20  C   UNL     1       9.585   3.533  23.694  0.00  0.00    +0.014 C 
ATOM     21  C   UNL     1       9.511   2.021  23.438  0.00  0.00    -0.004 C 
ATOM     22  C   UNL     1      10.426   1.288  24.437  0.00  0.00    +0.014 C 
ATOM     23  C   UNL     1       9.964   1.713  22.005  0.00  0.00    +0.014 C 
ENDBRANCH  19  21
ENDBRANCH  18  19
ENDBRANCH   1  18
TORSDOF 7
ENDMDL
MODEL 8
REMARK VINA RESULT:      -6.0      3.186      8.751
REMARK  Name = 
REMARK  10 active torsions:
REMARK  status: ('A' for Active; 'I' for Inactive)
REMARK    1  A    between atoms: C_1  and  C_2
REMARK    2  A    between atoms: C_2  and  C_3
REMARK    3  A    between atoms: C_2  and  C_4
REMARK    4  A    between atoms: C_2  and  C_5
REMARK    5  A    between atoms: C_5  and  O_6
REMARK    6  A    between atoms: O_6  and  C_7
REMARK    7  A    between atoms: C_8  and  C_21
REMARK    8  A    between atoms: C_10  and  N_13
REMARK    9  A    between atoms: C_15  and  C_18
REMARK   10  A    between atoms: C_18  and  O_19
REMARK                            x       y       z     vdW  Elec       q    Type
REMARK                         _______ _______ _______ _____ _____    ______ ____
ROOT
ATOM      1  C   UNL     1       9.334  -0.534  25.102  0.00  0.00    +0.138 A 
ATOM      2  C   UNL     1       8.711  -0.648  26.349  0.00  0.00    +0.049 A 
ATOM      3  C   UNL     1       8.020  -1.797  26.707  0.00  0.00    +0.031 A 
ATOM      4  C   UNL     1       7.938  -2.873  25.824  0.00  0.00    +0.067 A 
ATOM      5  C   UNL     1       8.594  -2.797  24.584  0.00  0.00    +0.050 A 
ATOM      6  C   UNL     1       9.293  -1.627  24.219  0.00  0.00    +0.095 A 
ENDROOT
BRANCH   4   7
ATOM      7  N   UNL     1       7.187  -4.023  26.188  0.00  0.00    -0.239 N 
ATOM      8  N   UNL     1       7.248  -4.553  27.433  0.00  0.00    -0.174 NA
ATOM      9  C   UNL     1       6.411  -5.594  27.396  0.00  0.00    +0.149 A 
ATOM     10  C   UNL     1       5.799  -5.769  26.140  0.00  0.00    +0.097 A 
ATOM     11  C   UNL     1       6.341  -4.750  25.385  0.00  0.00    +0.129 A 
BRANCH  10  12
ATOM     12  C   UNL     1       4.835  -6.731  25.636  0.00  0.00    +0.340 C 
ATOM     13  O   UNL     1       4.660  -6.928  24.442  0.00  0.00    -0.245 OA
BRANCH  12  14
ATOM     14  O   UNL     1       4.126  -7.400  26.574  0.00  0.00    -0.477 OA
ATOM     15  H   UNL     1       3.720  -6.839  27.254  0.00  0.00    +0.295 HD
ENDBRANCH  12  14
ENDBRANCH  10  12
ENDBRANCH   4   7
BRANCH   6  16
ATOM     16  C   UNL     1       9.946  -1.570  22.938  0.00  0.00    +0.103 C 
ATOM     17  N   UNL     1      10.490  -1.568  21.913  0.00  0.00    -0.191 NA
ENDBRANCH   6  16
BRANCH   1  18
ATOM     18  O   UNL     1       9.981   0.611  24.693  0.00  0.00    -0.490 OA
BRANCH  18  19
ATOM     19  C   UNL     1       9.159   1.784  24.642  0.00  0.00    +0.235 C 
BRANCH  19  21
ATOM     20  C   UNL     1       8.654   3.972  23.495  0.00  0.00    +0.014 C 
ATOM     21  C   UNL     1       9.469   2.673  23.426  0.00  0.00    -0.004 C 
ATOM     22  C   UNL     1      10.971   3.009  23.465  0.00  0.00    +0.014 C 
ATOM     23  C   UNL     1       9.143   1.923  22.129  0.00  0.00    +0.014 C 
ENDBRANCH  19  21
ENDBRANCH  18  19
ENDBRANCH   1  18
TORSDOF 7
ENDMDL
MODEL 9
REMARK VINA RESULT:      -6.0      3.437      9.063
REMARK  Name = 
REMARK  10 active torsions:
REMARK  status: ('A' for Active; 'I' for Inactive)
REMARK    1  A    between atoms: C_1  and  C_2
REMARK    2  A    between atoms: C_2  and  C_3
REMARK    3  A    between atoms: C_2  and  C_4
REMARK    4  A    between atoms: C_2  and  C_5
REMARK    5  A    between atoms: C_5  and  O_6
REMARK    6  A    between atoms: O_6  and  C_7
REMARK    7  A    between atoms: C_8  and  C_21
REMARK    8  A    between atoms: C_10  and  N_13
REMARK    9  A    between atoms: C_15  and  C_18
REMARK   10  A    between atoms: C_18  and  O_19
REMARK                            x       y       z     vdW  Elec       q    Type
REMARK                         _______ _______ _______ _____ _____    ______ ____
ROOT
ATOM      1  C   UNL     1       7.391  -0.720  23.459  0.00  0.00    +0.138 A 
ATOM      2  C   UNL     1       6.152  -0.794  24.103  0.00  0.00    +0.049 A 
ATOM      3  C   UNL     1       5.695  -1.986  24.651  0.00  0.00    +0.031 A 
ATOM      4  C   UNL     1       6.475  -3.140  24.574  0.00  0.00    +0.067 A 
ATOM      5  C   UNL     1       7.742  -3.075  23.971  0.00  0.00    +0.050 A 
ATOM      6  C   UNL     1       8.203  -1.866  23.411  0.00  0.00    +0.095 A 
ENDROOT
BRANCH   4   7
ATOM      7  N   UNL     1       5.972  -4.360  25.098  0.00  0.00    -0.239 N 
ATOM      8  N   UNL     1       6.550  -4.976  26.158  0.00  0.00    -0.174 NA
ATOM      9  C   UNL     1       5.803  -6.065  26.362  0.00  0.00    +0.149 A 
ATOM     10  C   UNL     1       4.738  -6.187  25.448  0.00  0.00    +0.097 A 
ATOM     11  C   UNL     1       4.896  -5.081  24.638  0.00  0.00    +0.129 A 
BRANCH  10  12
ATOM     12  C   UNL     1       3.683  -7.170  25.284  0.00  0.00    +0.340 C 
ATOM     13  O   UNL     1       2.785  -7.320  26.100  0.00  0.00    -0.245 OA
BRANCH  12  14
ATOM     14  O   UNL     1       3.755  -7.929  24.166  0.00  0.00    -0.477 OA
ATOM     15  H   UNL     1       3.812  -8.885  24.325  0.00  0.00    +0.295 HD
ENDBRANCH  12  14
ENDBRANCH  10  12
ENDBRANCH   4   7
BRANCH   6  16
ATOM     16  C   UNL     1       9.500  -1.830  22.787  0.00  0.00    +0.103 C 
ATOM     17  N   UNL     1      10.561  -1.834  22.317  0.00  0.00    -0.191 NA
ENDBRANCH   6  16
BRANCH   1  18
ATOM     18  O   UNL     1       7.850   0.431  22.858  0.00  0.00    -0.490 OA
BRANCH  18  19
ATOM     19  C   UNL     1       8.229   1.476  23.763  0.00  0.00    +0.235 C 
BRANCH  19  21
ATOM     20  C   UNL     1      10.047   1.805  22.046  0.00  0.00    +0.014 C 
ATOM     21  C   UNL     1       9.662   1.981  23.522  0.00  0.00    -0.004 C 
ATOM     22  C   UNL     1       9.697   3.477  23.885  0.00  0.00    +0.014 C 
ATOM     23  C   UNL     1      10.647   1.212  24.411  0.00  0.00    +0.014 C 
ENDBRANCH  19  21
ENDBRANCH  18  19
ENDBRANCH   1  18
TORSDOF 7
ENDMDL
