MODEL 1
REMARK VINA RESULT:      -5.2      0.000      0.000
REMARK  Name = 
REMARK  5 active torsions:
REMARK  status: ('A' for Active; 'I' for Inactive)
REMARK    1  A    between atoms: P_2  and  C_5
REMARK    2  A    between atoms: C_5  and  C_6
REMARK    3  A    between atoms: C_6  and  O_7
REMARK    4  A    between atoms: O_7  and  C_8
REMARK    5  A    between atoms: C_11  and  C_12
REMARK                            x       y       z     vdW  Elec       q    Type
REMARK                         _______ _______ _______ _____ _____    ______ ____
ROOT
ATOM      1  O   UNL     1      10.200  -1.838  22.633  0.00  0.00    -0.492 OA
ENDROOT
BRANCH   1   2
ATOM      2  C   UNL     1      10.158  -0.480  22.788  0.00  0.00    +0.121 A 
ATOM      3  C   UNL     1      10.521  -0.007  24.053  0.00  0.00    +0.046 A 
ATOM      4  C   UNL     1      10.538   1.366  24.325  0.00  0.00    +0.007 A 
ATOM      5  C   UNL     1      10.197   2.286  23.328  0.00  0.00    -0.050 A 
ATOM      6  C   UNL     1      10.239   3.760  23.598  0.00  0.00    +0.044 C 
ATOM      7  C   UNL     1       9.814   1.809  22.071  0.00  0.00    +0.007 A 
ATOM      8  C   UNL     1       9.795   0.439  21.803  0.00  0.00    +0.046 A 
ENDBRANCH   1   2
BRANCH   1   9
ATOM      9  C   UNL     1       9.801  -2.617  23.771  0.00  0.00    +0.235 C 
BRANCH   9  10
ATOM     10  C   UNL     1       8.354  -3.036  23.611  0.00  0.00    +0.092 C 
BRANCH  10  12
ATOM     11  H   UNL     1       7.248  -4.629  25.282  0.00  0.00    +0.083 HD
ATOM     12  P   UNL     1       8.120  -4.765  24.181  0.00  0.00    +0.006 P 
ATOM     13  O   UNL     1       7.436  -5.477  23.030  0.00  0.00    -0.804 OA
ATOM     14  O   UNL     1       9.496  -5.226  24.621  0.00  0.00    -0.340 OA
ENDBRANCH  10  12
ENDBRANCH   9  10
ENDBRANCH   1   9
TORSDOF 4
ENDMDL
MODEL 2
REMARK VINA RESULT:      -5.2      1.604      2.246
REMARK  Name = 
REMARK  5 active torsions:
REMARK  status: ('A' for Active; 'I' for Inactive)
REMARK    1  A    between atoms: P_2  and  C_5
REMARK    2  A    between atoms: C_5  and  C_6
REMARK    3  A    between atoms: C_6  and  O_7
REMARK    4  A    between atoms: O_7  and  C_8
REMARK    5  A    between atoms: C_11  and  C_12
REMARK                            x       y       z     vdW  Elec       q    Type
REMARK                         _______ _______ _______ _____ _____    ______ ____
ROOT
ATOM      1  O   UNL     1       9.365  -2.070  22.353  0.00  0.00    -0.492 OA
ENDROOT
BRANCH   1   2
ATOM      2  C   UNL     1       9.736  -0.800  22.699  0.00  0.00    +0.121 A 
ATOM      3  C   UNL     1       9.599   0.161  21.692  0.00  0.00    +0.046 A 
ATOM      4  C   UNL     1       9.926   1.501  21.933  0.00  0.00    +0.007 A 
ATOM      5  C   UNL     1      10.390   1.896  23.193  0.00  0.00    -0.050 A 
ATOM      6  C   UNL     1      10.716   3.333  23.473  0.00  0.00    +0.044 C 
ATOM      7  C   UNL     1      10.546   0.929  24.190  0.00  0.00    +0.007 A 
ATOM      8  C   UNL     1      10.222  -0.407  23.945  0.00  0.00    +0.046 A 
ENDBRANCH   1   2
BRANCH   1   9
ATOM      9  C   UNL     1       7.953  -2.332  22.326  0.00  0.00    +0.235 C 
BRANCH   9  10
ATOM     10  C   UNL     1       7.674  -3.652  23.016  0.00  0.00    +0.092 C 
BRANCH  10  12
ATOM     11  H   UNL     1       5.607  -5.160  23.086  0.00  0.00    +0.083 HD
ATOM     12  P   UNL     1       6.426  -4.615  22.075  0.00  0.00    +0.006 P 
ATOM     13  O   UNL     1       5.667  -3.591  21.253  0.00  0.00    -0.804 OA
ATOM     14  O   UNL     1       7.216  -5.695  21.362  0.00  0.00    -0.340 OA
ENDBRANCH  10  12
ENDBRANCH   9  10
ENDBRANCH   1   9
TORSDOF 4
ENDMDL
MODEL 3
REMARK VINA RESULT:      -5.1      1.318      2.050
REMARK  Name = 
REMARK  5 active torsions:
REMARK  status: ('A' for Active; 'I' for Inactive)
REMARK    1  A    between atoms: P_2  and  C_5
REMARK    2  A    between atoms: C_5  and  C_6
REMARK    3  A    between atoms: C_6  and  O_7
REMARK    4  A    between atoms: O_7  and  C_8
REMARK    5  A    between atoms: C_11  and  C_12
REMARK                            x       y       z     vdW  Elec       q    Type
REMARK                         _______ _______ _______ _____ _____    ______ ____
ROOT
ATOM      1  O   UNL     1       9.233  -1.942  22.069  0.00  0.00    -0.492 OA
ENDROOT
BRANCH   1   2
ATOM      2  C   UNL     1       9.666  -0.710  22.476  0.00  0.00    +0.121 A 
ATOM      3  C   UNL     1       9.452   0.333  21.570  0.00  0.00    +0.046 A 
ATOM      4  C   UNL     1       9.832   1.643  21.884  0.00  0.00    +0.007 A 
ATOM      5  C   UNL     1      10.427   1.926  23.118  0.00  0.00    -0.050 A 
ATOM      6  C   UNL     1      10.812   3.330  23.479  0.00  0.00    +0.044 C 
ATOM      7  C   UNL     1      10.659   0.878  24.013  0.00  0.00    +0.007 A 
ATOM      8  C   UNL     1      10.281  -0.428  23.695  0.00  0.00    +0.046 A 
ENDBRANCH   1   2
BRANCH   1   9
ATOM      9  C   UNL     1       7.877  -2.278  22.399  0.00  0.00    +0.235 C 
BRANCH   9  10
ATOM     10  C   UNL     1       7.819  -3.711  22.886  0.00  0.00    +0.092 C 
BRANCH  10  12
ATOM     11  H   UNL     1       7.769  -4.962  25.119  0.00  0.00    +0.083 HD
ATOM     12  P   UNL     1       8.437  -3.828  24.611  0.00  0.00    +0.006 P 
ATOM     13  O   UNL     1       9.926  -4.084  24.486  0.00  0.00    -0.804 OA
ATOM     14  O   UNL     1       7.960  -2.557  25.289  0.00  0.00    -0.340 OA
ENDBRANCH  10  12
ENDBRANCH   9  10
ENDBRANCH   1   9
TORSDOF 4
ENDMDL
MODEL 4
REMARK VINA RESULT:      -5.0      1.133      1.153
REMARK  Name = 
REMARK  5 active torsions:
REMARK  status: ('A' for Active; 'I' for Inactive)
REMARK    1  A    between atoms: P_2  and  C_5
REMARK    2  A    between atoms: C_5  and  C_6
REMARK    3  A    between atoms: C_6  and  O_7
REMARK    4  A    between atoms: O_7  and  C_8
REMARK    5  A    between atoms: C_11  and  C_12
REMARK                            x       y       z     vdW  Elec       q    Type
REMARK                         _______ _______ _______ _____ _____    ______ ____
ROOT
ATOM      1  O   UNL     1       9.536  -2.217  23.066  0.00  0.00    -0.492 OA
ENDROOT
BRANCH   1   2
ATOM      2  C   UNL     1       9.783  -0.871  23.061  0.00  0.00    +0.121 A 
ATOM      3  C   UNL     1      10.143  -0.322  24.295  0.00  0.00    +0.046 A 
ATOM      4  C   UNL     1      10.442   1.041  24.411  0.00  0.00    +0.007 A 
ATOM      5  C   UNL     1      10.389   1.871  23.286  0.00  0.00    -0.050 A 
ATOM      6  C   UNL     1      10.735   3.327  23.391  0.00  0.00    +0.044 C 
ATOM      7  C   UNL     1      10.007   1.323  22.058  0.00  0.00    +0.007 A 
ATOM      8  C   UNL     1       9.707  -0.036  21.947  0.00  0.00    +0.046 A 
ENDBRANCH   1   2
BRANCH   1   9
ATOM      9  C   UNL     1       8.156  -2.607  22.986  0.00  0.00    +0.235 C 
BRANCH   9  10
ATOM     10  C   UNL     1       8.018  -4.055  23.411  0.00  0.00    +0.092 C 
BRANCH  10  12
ATOM     11  H   UNL     1       8.760  -3.001  25.622  0.00  0.00    +0.083 HD
ATOM     12  P   UNL     1       8.737  -4.304  25.082  0.00  0.00    +0.006 P 
ATOM     13  O   UNL     1       7.742  -5.181  25.818  0.00  0.00    -0.804 OA
ATOM     14  O   UNL     1      10.140  -4.825  24.835  0.00  0.00    -0.340 OA
ENDBRANCH  10  12
ENDBRANCH   9  10
ENDBRANCH   1   9
TORSDOF 4
ENDMDL
MODEL 5
REMARK VINA RESULT:      -4.9      1.819      2.542
REMARK  Name = 
REMARK  5 active torsions:
REMARK  status: ('A' for Active; 'I' for Inactive)
REMARK    1  A    between atoms: P_2  and  C_5
REMARK    2  A    between atoms: C_5  and  C_6
REMARK    3  A    between atoms: C_6  and  O_7
REMARK    4  A    between atoms: O_7  and  C_8
REMARK    5  A    between atoms: C_11  and  C_12
REMARK                            x       y       z     vdW  Elec       q    Type
REMARK                         _______ _______ _______ _____ _____    ______ ____
ROOT
ATOM      1  O   UNL     1       9.839  -3.276  24.127  0.00  0.00    -0.492 OA
ENDROOT
BRANCH   1   2
ATOM      2  C   UNL     1       9.898  -1.976  23.706  0.00  0.00    +0.121 A 
ATOM      3  C   UNL     1       9.790  -1.786  22.325  0.00  0.00    +0.046 A 
ATOM      4  C   UNL     1       9.815  -0.499  21.776  0.00  0.00    +0.007 A 
ATOM      5  C   UNL     1       9.940   0.619  22.608  0.00  0.00    -0.050 A 
ATOM      6  C   UNL     1       9.939   2.005  22.036  0.00  0.00    +0.044 C 
ATOM      7  C   UNL     1      10.070   0.424  23.987  0.00  0.00    +0.007 A 
ATOM      8  C   UNL     1      10.048  -0.861  24.531  0.00  0.00    +0.046 A 
ENDBRANCH   1   2
BRANCH   1   9
ATOM      9  C   UNL     1       8.551  -3.905  24.061  0.00  0.00    +0.235 C 
BRANCH   9  10
ATOM     10  C   UNL     1       8.523  -5.092  25.002  0.00  0.00    +0.092 C 
BRANCH  10  12
ATOM     11  H   UNL     1       7.330  -3.469  26.581  0.00  0.00    +0.083 HD
ATOM     12  P   UNL     1       7.250  -4.850  26.303  0.00  0.00    +0.006 P 
ATOM     13  O   UNL     1       5.930  -5.197  25.642  0.00  0.00    -0.804 OA
ATOM     14  O   UNL     1       7.726  -5.679  27.481  0.00  0.00    -0.340 OA
ENDBRANCH  10  12
ENDBRANCH   9  10
ENDBRANCH   1   9
TORSDOF 4
ENDMDL
MODEL 6
REMARK VINA RESULT:      -4.7      2.198      2.233
REMARK  Name = 
REMARK  5 active torsions:
REMARK  status: ('A' for Active; 'I' for Inactive)
REMARK    1  A    between atoms: P_2  and  C_5
REMARK    2  A    between atoms: C_5  and  C_6
REMARK    3  A    between atoms: C_6  and  O_7
REMARK    4  A    between atoms: O_7  and  C_8
REMARK    5  A    between atoms: C_11  and  C_12
REMARK                            x       y       z     vdW  Elec       q    Type
REMARK                         _______ _______ _______ _____ _____    ______ ____
ROOT
ATOM      1  O   UNL     1       7.819  -1.160  22.571  0.00  0.00    -0.492 OA
ENDROOT
BRANCH   1   2
ATOM      2  C   UNL     1       8.593  -0.038  22.695  0.00  0.00    +0.121 A 
ATOM      3  C   UNL     1       8.744   0.447  23.997  0.00  0.00    +0.046 A 
ATOM      4  C   UNL     1       9.531   1.577  24.252  0.00  0.00    +0.007 A 
ATOM      5  C   UNL     1      10.184   2.231  23.202  0.00  0.00    -0.050 A 
ATOM      6  C   UNL     1      11.053   3.424  23.465  0.00  0.00    +0.044 C 
ATOM      7  C   UNL     1      10.013   1.755  21.898  0.00  0.00    +0.007 A 
ATOM      8  C   UNL     1       9.225   0.630  21.647  0.00  0.00    +0.046 A 
ENDBRANCH   1   2
BRANCH   1   9
ATOM      9  C   UNL     1       8.524  -2.405  22.457  0.00  0.00    +0.235 C 
BRANCH   9  10
ATOM     10  C   UNL     1       7.588  -3.546  22.804  0.00  0.00    +0.092 C 
BRANCH  10  12
ATOM     11  H   UNL     1       6.007  -1.895  21.651  0.00  0.00    +0.083 HD
ATOM     12  P   UNL     1       5.891  -3.190  22.201  0.00  0.00    +0.006 P 
ATOM     13  O   UNL     1       5.627  -4.219  21.118  0.00  0.00    -0.804 OA
ATOM     14  O   UNL     1       5.023  -3.186  23.444  0.00  0.00    -0.340 OA
ENDBRANCH  10  12
ENDBRANCH   9  10
ENDBRANCH   1   9
TORSDOF 4
ENDMDL
MODEL 7
REMARK VINA RESULT:      -4.5      2.028      2.870
REMARK  Name = 
REMARK  5 active torsions:
REMARK  status: ('A' for Active; 'I' for Inactive)
REMARK    1  A    between atoms: P_2  and  C_5
REMARK    2  A    between atoms: C_5  and  C_6
REMARK    3  A    between atoms: C_6  and  O_7
REMARK    4  A    between atoms: O_7  and  C_8
REMARK    5  A    between atoms: C_11  and  C_12
REMARK                            x       y       z     vdW  Elec       q    Type
REMARK                         _______ _______ _______ _____ _____    ______ ____
ROOT
ATOM      1  O   UNL     1       9.248  -3.236  24.063  0.00  0.00    -0.492 OA
ENDROOT
BRANCH   1   2
ATOM      2  C   UNL     1       9.510  -1.951  23.677  0.00  0.00    +0.121 A 
ATOM      3  C   UNL     1       9.525  -1.729  22.296  0.00  0.00    +0.046 A 
ATOM      4  C   UNL     1       9.761  -0.450  21.780  0.00  0.00    +0.007 A 
ATOM      5  C   UNL     1       9.979   0.628  22.644  0.00  0.00    -0.050 A 
ATOM      6  C   UNL     1      10.204   2.009  22.104  0.00  0.00    +0.044 C 
ATOM      7  C   UNL     1       9.986   0.399  24.023  0.00  0.00    +0.007 A 
ATOM      8  C   UNL     1       9.753  -0.879  24.535  0.00  0.00    +0.046 A 
ENDBRANCH   1   2
BRANCH   1   9
ATOM      9  C   UNL     1       8.213  -3.917  23.337  0.00  0.00    +0.235 C 
BRANCH   9  10
ATOM     10  C   UNL     1       6.938  -3.911  24.154  0.00  0.00    +0.092 C 
BRANCH  10  12
ATOM     11  H   UNL     1       6.458  -1.686  22.984  0.00  0.00    +0.083 HD
ATOM     12  P   UNL     1       5.693  -2.798  23.391  0.00  0.00    +0.006 P 
ATOM     13  O   UNL     1       5.158  -3.559  22.193  0.00  0.00    -0.804 OA
ATOM     14  O   UNL     1       4.745  -2.434  24.517  0.00  0.00    -0.340 OA
ENDBRANCH  10  12
ENDBRANCH   9  10
ENDBRANCH   1   9
TORSDOF 4
ENDMDL
MODEL 8
REMARK VINA RESULT:      -4.5      2.007      2.532
REMARK  Name = 
REMARK  5 active torsions:
REMARK  status: ('A' for Active; 'I' for Inactive)
REMARK    1  A    between atoms: P_2  and  C_5
REMARK    2  A    between atoms: C_5  and  C_6
REMARK    3  A    between atoms: C_6  and  O_7
REMARK    4  A    between atoms: O_7  and  C_8
REMARK    5  A    between atoms: C_11  and  C_12
REMARK                            x       y       z     vdW  Elec       q    Type
REMARK                         _______ _______ _______ _____ _____    ______ ____
ROOT
ATOM      1  O   UNL     1       8.805  -2.474  22.806  0.00  0.00    -0.492 OA
ENDROOT
BRANCH   1   2
ATOM      2  C   UNL     1       8.432  -1.169  22.635  0.00  0.00    +0.121 A 
ATOM      3  C   UNL     1       9.313  -0.385  21.883  0.00  0.00    +0.046 A 
ATOM      4  C   UNL     1       9.028   0.960  21.622  0.00  0.00    +0.007 A 
ATOM      5  C   UNL     1       7.850   1.537  22.106  0.00  0.00    -0.050 A 
ATOM      6  C   UNL     1       7.519   2.969  21.808  0.00  0.00    +0.044 C 
ATOM      7  C   UNL     1       6.982   0.757  22.875  0.00  0.00    +0.007 A 
ATOM      8  C   UNL     1       7.270  -0.584  23.137  0.00  0.00    +0.046 A 
ENDBRANCH   1   2
BRANCH   1   9
ATOM      9  C   UNL     1       9.654  -2.746  23.931  0.00  0.00    +0.235 C 
BRANCH   9  10
ATOM     10  C   UNL     1       8.800  -3.082  25.136  0.00  0.00    +0.092 C 
BRANCH  10  12
ATOM     11  H   UNL     1      10.600  -4.442  26.345  0.00  0.00    +0.083 HD
ATOM     12  P   UNL     1       9.304  -4.697  25.849  0.00  0.00    +0.006 P 
ATOM     13  O   UNL     1       8.329  -4.956  26.982  0.00  0.00    -0.804 OA
ATOM     14  O   UNL     1       9.341  -5.655  24.674  0.00  0.00    -0.340 OA
ENDBRANCH  10  12
ENDBRANCH   9  10
ENDBRANCH   1   9
TORSDOF 4
ENDMDL
MODEL 9
REMARK VINA RESULT:      -4.5      4.987      6.480
REMARK  Name = 
REMARK  5 active torsions:
REMARK  status: ('A' for Active; 'I' for Inactive)
REMARK    1  A    between atoms: P_2  and  C_5
REMARK    2  A    between atoms: C_5  and  C_6
REMARK    3  A    between atoms: C_6  and  O_7
REMARK    4  A    between atoms: O_7  and  C_8
REMARK    5  A    between atoms: C_11  and  C_12
REMARK                            x       y       z     vdW  Elec       q    Type
REMARK                         _______ _______ _______ _____ _____    ______ ____
ROOT
ATOM      1  O   UNL     1      10.338   3.732  23.494  0.00  0.00    -0.492 OA
ENDROOT
BRANCH   1   2
ATOM      2  C   UNL     1      10.277   2.389  23.239  0.00  0.00    +0.121 A 
ATOM      3  C   UNL     1      10.588   1.557  24.318  0.00  0.00    +0.046 A 
ATOM      4  C   UNL     1      10.539   0.164  24.184  0.00  0.00    +0.007 A 
ATOM      5  C   UNL     1      10.168  -0.413  22.964  0.00  0.00    -0.050 A 
ATOM      6  C   UNL     1      10.083  -1.903  22.816  0.00  0.00    +0.044 C 
ATOM      7  C   UNL     1       9.878   0.422  21.881  0.00  0.00    +0.007 A 
ATOM      8  C   UNL     1       9.931   1.811  22.017  0.00  0.00    +0.046 A 
ENDBRANCH   1   2
BRANCH   1   9
ATOM      9  C   UNL     1       9.201   4.302  24.159  0.00  0.00    +0.235 C 
BRANCH   9  10
ATOM     10  C   UNL     1       8.837   5.615  23.497  0.00  0.00    +0.092 C 
BRANCH  10  12
ATOM     11  H   UNL     1       7.272   6.499  21.675  0.00  0.00    +0.083 HD
ATOM     12  P   UNL     1       7.216   5.477  22.646  0.00  0.00    +0.006 P 
ATOM     13  O   UNL     1       7.221   4.107  21.996  0.00  0.00    -0.804 OA
ATOM     14  O   UNL     1       6.183   5.785  23.713  0.00  0.00    -0.340 OA
ENDBRANCH  10  12
ENDBRANCH   9  10
ENDBRANCH   1   9
TORSDOF 4
ENDMDL
