MODEL 1
REMARK VINA RESULT:      -5.2      0.000      0.000
REMARK  Name = 
REMARK  6 active torsions:
REMARK  status: ('A' for Active; 'I' for Inactive)
REMARK    1  A    between atoms: C_1  and  C_2
REMARK    2  A    between atoms: C_2  and  N_3
REMARK    3  A    between atoms: C_2  and  C_4
REMARK    4  A    between atoms: N_6  and  C_7
REMARK    5  A    between atoms: C_8  and  C_9
REMARK    6  A    between atoms: C_13  and  C_14
REMARK                            x       y       z     vdW  Elec       q    Type
REMARK                         _______ _______ _______ _____ _____    ______ ____
ROOT
ATOM      1  C   UNL     1       9.089  -2.855  23.779  0.00  0.00    +0.234 C 
ATOM      2  N   UNL     1       8.388  -1.667  23.615  0.00  0.00    -0.284 N 
ATOM      3  H   UNL     1       7.526  -1.695  24.154  0.00  0.00    +0.155 HD
ATOM      4  O   UNL     1      10.310  -2.967  23.791  0.00  0.00    -0.274 OA
ENDROOT
BRANCH   2   5
ATOM      5  C   UNL     1       9.068  -0.432  23.541  0.00  0.00    +0.039 A 
ATOM      6  C   UNL     1       9.267   0.311  24.724  0.00  0.00    -0.029 A 
ATOM      7  C   UNL     1       9.013  -0.290  26.078  0.00  0.00    +0.045 C 
ATOM      8  C   UNL     1       9.828   1.590  24.634  0.00  0.00    +0.005 A 
ATOM      9  C   UNL     1      10.190   2.127  23.403  0.00  0.00    +0.001 A 
ATOM     10  C   UNL     1      10.025   1.375  22.243  0.00  0.00    +0.005 A 
ATOM     11  C   UNL     1       9.471   0.083  22.294  0.00  0.00    -0.029 A 
ATOM     12  C   UNL     1       9.315  -0.652  20.991  0.00  0.00    +0.045 C 
ENDBRANCH   2   5
BRANCH   1  14
ATOM     13  C   UNL     1       7.336  -4.281  22.624  0.00  0.00    +0.033 C 
ATOM     14  C   UNL     1       8.125  -4.056  23.905  0.00  0.00    +0.135 C 
BRANCH  14  15
ATOM     15  N   UNL     1       8.881  -5.274  24.286  0.00  0.00    -0.320 NA
ATOM     16  H   UNL     1       8.481  -5.637  25.158  0.00  0.00    +0.119 HD
ATOM     17  H   UNL     1       8.690  -5.997  23.593  0.00  0.00    +0.119 HD
ENDBRANCH  14  15
ENDBRANCH   1  14
TORSDOF 3
ENDMDL
MODEL 2
REMARK VINA RESULT:      -5.1      3.654      5.470
REMARK  Name = 
REMARK  6 active torsions:
REMARK  status: ('A' for Active; 'I' for Inactive)
REMARK    1  A    between atoms: C_1  and  C_2
REMARK    2  A    between atoms: C_2  and  N_3
REMARK    3  A    between atoms: C_2  and  C_4
REMARK    4  A    between atoms: N_6  and  C_7
REMARK    5  A    between atoms: C_8  and  C_9
REMARK    6  A    between atoms: C_13  and  C_14
REMARK                            x       y       z     vdW  Elec       q    Type
REMARK                         _______ _______ _______ _____ _____    ______ ____
ROOT
ATOM      1  C   UNL     1      10.259   2.196  23.115  0.00  0.00    +0.234 C 
ATOM      2  N   UNL     1       9.873   3.497  22.818  0.00  0.00    -0.284 N 
ATOM      3  H   UNL     1       9.039   3.486  22.235  0.00  0.00    +0.155 HD
ATOM      4  O   UNL     1      10.784   1.828  24.161  0.00  0.00    -0.274 OA
ENDROOT
BRANCH   2   5
ATOM      5  C   UNL     1       9.975   4.519  23.787  0.00  0.00    +0.039 A 
ATOM      6  C   UNL     1       8.887   4.752  24.653  0.00  0.00    -0.029 A 
ATOM      7  C   UNL     1       7.740   3.785  24.748  0.00  0.00    +0.045 C 
ATOM      8  C   UNL     1       8.938   5.844  25.527  0.00  0.00    +0.005 A 
ATOM      9  C   UNL     1      10.044   6.689  25.551  0.00  0.00    +0.001 A 
ATOM     10  C   UNL     1      11.131   6.432  24.720  0.00  0.00    +0.005 A 
ATOM     11  C   UNL     1      11.118   5.340  23.832  0.00  0.00    -0.029 A 
ATOM     12  C   UNL     1      12.328   5.146  22.961  0.00  0.00    +0.045 C 
ENDBRANCH   2   5
BRANCH   1  14
ATOM     13  C   UNL     1       9.927  -0.206  22.365  0.00  0.00    +0.033 C 
ATOM     14  C   UNL     1       9.984   1.250  21.925  0.00  0.00    +0.135 C 
BRANCH  14  15
ATOM     15  N   UNL     1       8.728   1.649  21.242  0.00  0.00    -0.320 NA
ATOM     16  H   UNL     1       8.634   1.081  20.393  0.00  0.00    +0.119 HD
ATOM     17  H   UNL     1       7.943   1.368  21.829  0.00  0.00    +0.119 HD
ENDBRANCH  14  15
ENDBRANCH   1  14
TORSDOF 3
ENDMDL
MODEL 3
REMARK VINA RESULT:      -5.1      0.206      2.333
REMARK  Name = 
REMARK  6 active torsions:
REMARK  status: ('A' for Active; 'I' for Inactive)
REMARK    1  A    between atoms: C_1  and  C_2
REMARK    2  A    between atoms: C_2  and  N_3
REMARK    3  A    between atoms: C_2  and  C_4
REMARK    4  A    between atoms: N_6  and  C_7
REMARK    5  A    between atoms: C_8  and  C_9
REMARK    6  A    between atoms: C_13  and  C_14
REMARK                            x       y       z     vdW  Elec       q    Type
REMARK                         _______ _______ _______ _____ _____    ______ ____
ROOT
ATOM      1  C   UNL     1       9.032  -2.874  23.798  0.00  0.00    +0.234 C 
ATOM      2  N   UNL     1       8.282  -1.722  23.599  0.00  0.00    -0.284 N 
ATOM      3  H   UNL     1       7.396  -1.796  24.094  0.00  0.00    +0.155 HD
ATOM      4  O   UNL     1      10.255  -2.925  23.872  0.00  0.00    -0.274 OA
ENDROOT
BRANCH   2   5
ATOM      5  C   UNL     1       8.901  -0.454  23.561  0.00  0.00    +0.039 A 
ATOM      6  C   UNL     1       9.428   0.013  22.339  0.00  0.00    -0.029 A 
ATOM      7  C   UNL     1       9.121  -0.676  21.039  0.00  0.00    +0.045 C 
ATOM      8  C   UNL     1      10.152   1.210  22.327  0.00  0.00    +0.005 A 
ATOM      9  C   UNL     1      10.349   1.938  23.496  0.00  0.00    +0.001 A 
ATOM     10  C   UNL     1       9.794   1.492  24.692  0.00  0.00    +0.005 A 
ATOM     11  C   UNL     1       9.056   0.295  24.742  0.00  0.00    -0.029 A 
ATOM     12  C   UNL     1       8.506  -0.120  26.079  0.00  0.00    +0.045 C 
ENDBRANCH   2   5
BRANCH   1  14
ATOM     13  C   UNL     1       7.389  -4.364  22.565  0.00  0.00    +0.033 C 
ATOM     14  C   UNL     1       8.125  -4.122  23.875  0.00  0.00    +0.135 C 
BRANCH  14  15
ATOM     15  N   UNL     1       8.928  -5.308  24.261  0.00  0.00    -0.320 NA
ATOM     16  H   UNL     1       9.412  -5.092  25.139  0.00  0.00    +0.119 HD
ATOM     17  H   UNL     1       8.285  -6.064  24.500  0.00  0.00    +0.119 HD
ENDBRANCH  14  15
ENDBRANCH   1  14
TORSDOF 3
ENDMDL
MODEL 4
REMARK VINA RESULT:      -5.1      2.420      5.300
REMARK  Name = 
REMARK  6 active torsions:
REMARK  status: ('A' for Active; 'I' for Inactive)
REMARK    1  A    between atoms: C_1  and  C_2
REMARK    2  A    between atoms: C_2  and  N_3
REMARK    3  A    between atoms: C_2  and  C_4
REMARK    4  A    between atoms: N_6  and  C_7
REMARK    5  A    between atoms: C_8  and  C_9
REMARK    6  A    between atoms: C_13  and  C_14
REMARK                            x       y       z     vdW  Elec       q    Type
REMARK                         _______ _______ _______ _____ _____    ______ ____
ROOT
ATOM      1  C   UNL     1      10.189   1.252  23.957  0.00  0.00    +0.234 C 
ATOM      2  N   UNL     1       9.073   0.432  23.855  0.00  0.00    -0.284 N 
ATOM      3  H   UNL     1       8.669   0.509  22.924  0.00  0.00    +0.155 HD
ATOM      4  O   UNL     1      11.191   1.015  24.624  0.00  0.00    -0.274 OA
ENDROOT
BRANCH   2   5
ATOM      5  C   UNL     1       9.053  -0.839  24.468  0.00  0.00    +0.039 A 
ATOM      6  C   UNL     1       9.565  -1.948  23.762  0.00  0.00    -0.029 A 
ATOM      7  C   UNL     1      10.361  -1.772  22.499  0.00  0.00    +0.045 C 
ATOM      8  C   UNL     1       9.431  -3.225  24.317  0.00  0.00    +0.005 A 
ATOM      9  C   UNL     1       8.808  -3.409  25.547  0.00  0.00    +0.001 A 
ATOM     10  C   UNL     1       8.338  -2.307  26.257  0.00  0.00    +0.005 A 
ATOM     11  C   UNL     1       8.460  -1.007  25.734  0.00  0.00    -0.029 A 
ATOM     12  C   UNL     1       7.910   0.123  26.561  0.00  0.00    +0.045 C 
ENDBRANCH   2   5
BRANCH   1  14
ATOM     13  C   UNL     1      11.107   3.558  23.423  0.00  0.00    +0.033 C 
ATOM     14  C   UNL     1       9.999   2.553  23.144  0.00  0.00    +0.135 C 
BRANCH  14  15
ATOM     15  N   UNL     1       9.919   2.237  21.697  0.00  0.00    -0.320 NA
ATOM     16  H   UNL     1       9.730   1.233  21.600  0.00  0.00    +0.119 HD
ATOM     17  H   UNL     1       9.090   2.693  21.316  0.00  0.00    +0.119 HD
ENDBRANCH  14  15
ENDBRANCH   1  14
TORSDOF 3
ENDMDL
MODEL 5
REMARK VINA RESULT:      -5.0      2.227      3.625
REMARK  Name = 
REMARK  6 active torsions:
REMARK  status: ('A' for Active; 'I' for Inactive)
REMARK    1  A    between atoms: C_1  and  C_2
REMARK    2  A    between atoms: C_2  and  N_3
REMARK    3  A    between atoms: C_2  and  C_4
REMARK    4  A    between atoms: N_6  and  C_7
REMARK    5  A    between atoms: C_8  and  C_9
REMARK    6  A    between atoms: C_13  and  C_14
REMARK                            x       y       z     vdW  Elec       q    Type
REMARK                         _______ _______ _______ _____ _____    ______ ____
ROOT
ATOM      1  C   UNL     1       8.047  -4.191  26.220  0.00  0.00    +0.234 C 
ATOM      2  N   UNL     1       7.510  -3.139  25.488  0.00  0.00    -0.284 N 
ATOM      3  H   UNL     1       6.722  -2.735  25.989  0.00  0.00    +0.155 HD
ATOM      4  O   UNL     1       9.232  -4.504  26.254  0.00  0.00    -0.274 OA
ENDROOT
BRANCH   2   5
ATOM      5  C   UNL     1       8.347  -2.256  24.772  0.00  0.00    +0.039 A 
ATOM      6  C   UNL     1       8.605  -2.514  23.409  0.00  0.00    -0.029 A 
ATOM      7  C   UNL     1       7.816  -3.537  22.641  0.00  0.00    +0.045 C 
ATOM      8  C   UNL     1       9.532  -1.713  22.732  0.00  0.00    +0.005 A 
ATOM      9  C   UNL     1      10.190  -0.675  23.384  0.00  0.00    +0.001 A 
ATOM     10  C   UNL     1       9.903  -0.402  24.719  0.00  0.00    +0.005 A 
ATOM     11  C   UNL     1       8.973  -1.182  25.430  0.00  0.00    -0.029 A 
ATOM     12  C   UNL     1       8.736  -0.826  26.872  0.00  0.00    +0.045 C 
ENDBRANCH   2   5
BRANCH   1  14
ATOM     13  C   UNL     1       5.901  -5.531  26.016  0.00  0.00    +0.033 C 
ATOM     14  C   UNL     1       6.942  -4.966  26.972  0.00  0.00    +0.135 C 
BRANCH  14  15
ATOM     15  N   UNL     1       7.548  -6.041  27.795  0.00  0.00    -0.320 NA
ATOM     16  H   UNL     1       6.824  -6.412  28.418  0.00  0.00    +0.119 HD
ATOM     17  H   UNL     1       7.783  -6.820  27.179  0.00  0.00    +0.119 HD
ENDBRANCH  14  15
ENDBRANCH   1  14
TORSDOF 3
ENDMDL
MODEL 6
REMARK VINA RESULT:      -5.0      1.926      3.093
REMARK  Name = 
REMARK  6 active torsions:
REMARK  status: ('A' for Active; 'I' for Inactive)
REMARK    1  A    between atoms: C_1  and  C_2
REMARK    2  A    between atoms: C_2  and  N_3
REMARK    3  A    between atoms: C_2  and  C_4
REMARK    4  A    between atoms: N_6  and  C_7
REMARK    5  A    between atoms: C_8  and  C_9
REMARK    6  A    between atoms: C_13  and  C_14
REMARK                            x       y       z     vdW  Elec       q    Type
REMARK                         _______ _______ _______ _____ _____    ______ ____
ROOT
ATOM      1  C   UNL     1       7.298  -2.766  22.674  0.00  0.00    +0.234 C 
ATOM      2  N   UNL     1       8.636  -2.631  23.026  0.00  0.00    -0.284 N 
ATOM      3  H   UNL     1       9.224  -3.088  22.333  0.00  0.00    +0.155 HD
ATOM      4  O   UNL     1       6.418  -1.939  22.887  0.00  0.00    -0.274 OA
ENDROOT
BRANCH   2   5
ATOM      5  C   UNL     1       9.115  -1.433  23.598  0.00  0.00    +0.039 A 
ATOM      6  C   UNL     1       9.664  -0.445  22.755  0.00  0.00    -0.029 A 
ATOM      7  C   UNL     1       9.516  -0.518  21.261  0.00  0.00    +0.045 C 
ATOM      8  C   UNL     1      10.253   0.687  23.331  0.00  0.00    +0.005 A 
ATOM      9  C   UNL     1      10.296   0.845  24.713  0.00  0.00    +0.001 A 
ATOM     10  C   UNL     1       9.719  -0.116  25.538  0.00  0.00    +0.005 A 
ATOM     11  C   UNL     1       9.113  -1.264  24.995  0.00  0.00    -0.029 A 
ATOM     12  C   UNL     1       8.529  -2.257  25.962  0.00  0.00    +0.045 C 
ENDBRANCH   2   5
BRANCH   1  14
ATOM     13  C   UNL     1       7.253  -5.286  22.971  0.00  0.00    +0.033 C 
ATOM     14  C   UNL     1       7.035  -4.132  22.003  0.00  0.00    +0.135 C 
BRANCH  14  15
ATOM     15  N   UNL     1       5.663  -4.162  21.439  0.00  0.00    -0.320 NA
ATOM     16  H   UNL     1       5.266  -3.220  21.519  0.00  0.00    +0.119 HD
ATOM     17  H   UNL     1       5.735  -4.327  20.435  0.00  0.00    +0.119 HD
ENDBRANCH  14  15
ENDBRANCH   1  14
TORSDOF 3
ENDMDL
MODEL 7
REMARK VINA RESULT:      -5.0      2.029      2.357
REMARK  Name = 
REMARK  6 active torsions:
REMARK  status: ('A' for Active; 'I' for Inactive)
REMARK    1  A    between atoms: C_1  and  C_2
REMARK    2  A    between atoms: C_2  and  N_3
REMARK    3  A    between atoms: C_2  and  C_4
REMARK    4  A    between atoms: N_6  and  C_7
REMARK    5  A    between atoms: C_8  and  C_9
REMARK    6  A    between atoms: C_13  and  C_14
REMARK                            x       y       z     vdW  Elec       q    Type
REMARK                         _______ _______ _______ _____ _____    ______ ____
ROOT
ATOM      1  C   UNL     1       6.947  -2.650  22.698  0.00  0.00    +0.234 C 
ATOM      2  N   UNL     1       8.308  -2.698  22.976  0.00  0.00    -0.284 N 
ATOM      3  H   UNL     1       8.800  -3.169  22.220  0.00  0.00    +0.155 HD
ATOM      4  O   UNL     1       6.186  -1.744  23.018  0.00  0.00    -0.274 OA
ENDROOT
BRANCH   2   5
ATOM      5  C   UNL     1       8.958  -1.608  23.594  0.00  0.00    +0.039 A 
ATOM      6  C   UNL     1       8.980  -1.534  25.002  0.00  0.00    -0.029 A 
ATOM      7  C   UNL     1       8.566  -2.700  25.855  0.00  0.00    +0.045 C 
ATOM      8  C   UNL     1       9.512  -0.392  25.612  0.00  0.00    +0.005 A 
ATOM      9  C   UNL     1      10.019   0.655  24.850  0.00  0.00    +0.001 A 
ATOM     10  C   UNL     1      10.028   0.560  23.461  0.00  0.00    +0.005 A 
ATOM     11  C   UNL     1       9.507  -0.574  22.812  0.00  0.00    -0.029 A 
ATOM     12  C   UNL     1       9.544  -0.586  21.309  0.00  0.00    +0.045 C 
ENDBRANCH   2   5
BRANCH   1  14
ATOM     13  C   UNL     1       7.257  -5.154  22.418  0.00  0.00    +0.033 C 
ATOM     14  C   UNL     1       6.486  -3.925  21.958  0.00  0.00    +0.135 C 
BRANCH  14  15
ATOM     15  N   UNL     1       5.026  -4.114  22.138  0.00  0.00    -0.320 NA
ATOM     16  H   UNL     1       4.825  -4.095  23.144  0.00  0.00    +0.119 HD
ATOM     17  H   UNL     1       4.550  -3.293  21.764  0.00  0.00    +0.119 HD
ENDBRANCH  14  15
ENDBRANCH   1  14
TORSDOF 3
ENDMDL
MODEL 8
REMARK VINA RESULT:      -4.9      2.513      6.242
REMARK  Name = 
REMARK  6 active torsions:
REMARK  status: ('A' for Active; 'I' for Inactive)
REMARK    1  A    between atoms: C_1  and  C_2
REMARK    2  A    between atoms: C_2  and  N_3
REMARK    3  A    between atoms: C_2  and  C_4
REMARK    4  A    between atoms: N_6  and  C_7
REMARK    5  A    between atoms: C_8  and  C_9
REMARK    6  A    between atoms: C_13  and  C_14
REMARK                            x       y       z     vdW  Elec       q    Type
REMARK                         _______ _______ _______ _____ _____    ______ ____
ROOT
ATOM      1  C   UNL     1       8.132  -2.846  23.598  0.00  0.00    +0.234 C 
ATOM      2  N   UNL     1       8.279  -4.217  23.776  0.00  0.00    -0.284 N 
ATOM      3  H   UNL     1       9.167  -4.414  24.233  0.00  0.00    +0.155 HD
ATOM      4  O   UNL     1       7.072  -2.231  23.639  0.00  0.00    -0.274 OA
ENDROOT
BRANCH   2   5
ATOM      5  C   UNL     1       7.174  -5.022  24.127  0.00  0.00    +0.039 A 
ATOM      6  C   UNL     1       6.373  -5.568  23.103  0.00  0.00    -0.029 A 
ATOM      7  C   UNL     1       6.809  -5.535  21.665  0.00  0.00    +0.045 C 
ATOM      8  C   UNL     1       5.207  -6.260  23.451  0.00  0.00    +0.005 A 
ATOM      9  C   UNL     1       4.840  -6.416  24.784  0.00  0.00    +0.001 A 
ATOM     10  C   UNL     1       5.654  -5.907  25.791  0.00  0.00    +0.005 A 
ATOM     11  C   UNL     1       6.836  -5.211  25.480  0.00  0.00    -0.029 A 
ATOM     12  C   UNL     1       7.648  -4.682  26.631  0.00  0.00    +0.045 C 
ENDBRANCH   2   5
BRANCH   1  14
ATOM     13  C   UNL     1       9.482  -1.477  21.941  0.00  0.00    +0.033 C 
ATOM     14  C   UNL     1       9.491  -2.177  23.292  0.00  0.00    +0.135 C 
BRANCH  14  15
ATOM     15  N   UNL     1       9.845  -1.232  24.380  0.00  0.00    -0.320 NA
ATOM     16  H   UNL     1      10.827  -1.387  24.628  0.00  0.00    +0.119 HD
ATOM     17  H   UNL     1       9.821  -0.286  23.999  0.00  0.00    +0.119 HD
ENDBRANCH  14  15
ENDBRANCH   1  14
TORSDOF 3
ENDMDL
MODEL 9
REMARK VINA RESULT:      -4.9      2.030      4.871
REMARK  Name = 
REMARK  6 active torsions:
REMARK  status: ('A' for Active; 'I' for Inactive)
REMARK    1  A    between atoms: C_1  and  C_2
REMARK    2  A    between atoms: C_2  and  N_3
REMARK    3  A    between atoms: C_2  and  C_4
REMARK    4  A    between atoms: N_6  and  C_7
REMARK    5  A    between atoms: C_8  and  C_9
REMARK    6  A    between atoms: C_13  and  C_14
REMARK                            x       y       z     vdW  Elec       q    Type
REMARK                         _______ _______ _______ _____ _____    ______ ____
ROOT
ATOM      1  C   UNL     1       8.208  -1.637  22.616  0.00  0.00    +0.234 C 
ATOM      2  N   UNL     1       8.785  -2.682  23.328  0.00  0.00    -0.284 N 
ATOM      3  H   UNL     1       9.764  -2.477  23.512  0.00  0.00    +0.155 HD
ATOM      4  O   UNL     1       7.045  -1.261  22.717  0.00  0.00    -0.274 OA
ENDROOT
BRANCH   2   5
ATOM      5  C   UNL     1       8.061  -3.354  24.336  0.00  0.00    +0.039 A 
ATOM      6  C   UNL     1       8.098  -2.853  25.654  0.00  0.00    -0.029 A 
ATOM      7  C   UNL     1       8.662  -1.494  25.960  0.00  0.00    +0.045 C 
ATOM      8  C   UNL     1       7.485  -3.588  26.675  0.00  0.00    +0.005 A 
ATOM      9  C   UNL     1       6.844  -4.793  26.403  0.00  0.00    +0.001 A 
ATOM     10  C   UNL     1       6.780  -5.263  25.095  0.00  0.00    +0.005 A 
ATOM     11  C   UNL     1       7.378  -4.549  24.041  0.00  0.00    -0.029 A 
ATOM     12  C   UNL     1       7.273  -5.139  22.662  0.00  0.00    +0.045 C 
ENDBRANCH   2   5
BRANCH   1  14
ATOM     13  C   UNL     1       9.228   0.504  21.710  0.00  0.00    +0.033 C 
ATOM     14  C   UNL     1       9.218  -1.016  21.625  0.00  0.00    +0.135 C 
BRANCH  14  15
ATOM     15  N   UNL     1      10.571  -1.572  21.867  0.00  0.00    -0.320 NA
ATOM     16  H   UNL     1      11.132  -0.852  22.335  0.00  0.00    +0.119 HD
ATOM     17  H   UNL     1      10.489  -2.321  22.555  0.00  0.00    +0.119 HD
ENDBRANCH  14  15
ENDBRANCH   1  14
TORSDOF 3
ENDMDL
