MODEL 1
REMARK VINA RESULT:      -7.4      0.000      0.000
REMARK  Name = 
REMARK  6 active torsions:
REMARK  status: ('A' for Active; 'I' for Inactive)
REMARK    1  A    between atoms: C_1  and  C_2
REMARK    2  A    between atoms: C_9  and  C_10
REMARK    3  A    between atoms: C_13  and  N_14
REMARK    4  A    between atoms: N_14  and  C_15
REMARK    5  A    between atoms: C_16  and  C_17
REMARK    6  A    between atoms: C_17  and  C_18
REMARK                            x       y       z     vdW  Elec       q    Type
REMARK                         _______ _______ _______ _____ _____    ______ ____
ROOT
ATOM      1  N   UNL     1       4.952  -6.397  23.144  0.00  0.00    -0.317 N 
ATOM      2  H   UNL     1       4.809  -6.820  22.225  0.00  0.00    +0.152 HD
ENDROOT
BRANCH   1   3
ATOM      3  C   UNL     1       3.750  -6.475  23.873  0.00  0.00    +0.015 C 
ATOM      4  C   UNL     1       2.511  -6.466  22.998  0.00  0.00    +0.051 C 
ATOM      5  C   UNL     1       1.140  -6.454  23.653  0.00  0.00    +0.014 C 
ATOM      6  C   UNL     1       1.083  -6.459  25.162  0.00  0.00    +0.080 C 
ATOM      7  C   UNL     1       2.367  -6.681  25.911  0.00  0.00    +0.161 C 
ATOM      8  O   UNL     1       2.316  -6.796  27.138  0.00  0.00    -0.292 OA
ATOM      9  C   UNL     1       3.687  -6.675  25.209  0.00  0.00    +0.016 C 
BRANCH   9  10
ATOM     10  C   UNL     1       4.881  -6.783  26.132  0.00  0.00    +0.075 C 
BRANCH  10  11
ATOM     11  C   UNL     1       5.621  -5.500  26.477  0.00  0.00    -0.042 A 
ATOM     12  C   UNL     1       4.948  -4.287  26.706  0.00  0.00    +0.018 A 
ATOM     13  C   UNL     1       5.665  -3.088  26.807  0.00  0.00    +0.014 A 
ATOM     14  I   UNL     1       4.669  -1.289  27.140  0.00  0.00    -0.044 I 
ATOM     15  C   UNL     1       7.052  -3.077  26.661  0.00  0.00    +0.014 A 
ATOM     16  C   UNL     1       7.731  -4.281  26.485  0.00  0.00    +0.001 A 
ATOM     17  C   UNL     1       7.024  -5.484  26.424  0.00  0.00    +0.004 A 
ENDBRANCH  10  11
ENDBRANCH   9  10
ENDBRANCH   1   3
BRANCH   1  21
ATOM     18  C   UNL     1       7.178  -2.772  22.627  0.00  0.00    -0.002 A 
ATOM     19  C   UNL     1       7.811  -4.017  22.639  0.00  0.00    +0.011 A 
ATOM     20  C   UNL     1       7.059  -5.195  22.791  0.00  0.00    +0.024 A 
ATOM     21  C   UNL     1       5.657  -5.169  22.916  0.00  0.00    +0.031 A 
ATOM     22  C   UNL     1       5.037  -3.915  22.945  0.00  0.00    +0.024 A 
ATOM     23  C   UNL     1       5.789  -2.732  22.806  0.00  0.00    +0.011 A 
BRANCH  18  26
ATOM     24  C   UNL     1       7.442  -0.283  24.479  0.00  0.00    +0.014 C 
ATOM     25  C   UNL     1       7.387  -0.187  22.951  0.00  0.00    +0.046 C 
ATOM     26  C   UNL     1       7.924  -1.486  22.353  0.00  0.00    +0.070 C 
ATOM     27  N   UNL     1       9.042  -1.554  21.695  0.00  0.00    -0.184 NA
ATOM     28  N   UNL     1       9.786  -0.435  21.516  0.00  0.00    -0.207 N 
ATOM     29  H   UNL     1      10.694  -0.568  21.078  0.00  0.00    +0.177 HD
ATOM     30  C   UNL     1       9.500   0.831  21.926  0.00  0.00    +0.233 C 
ATOM     31  O   UNL     1      10.304   1.751  21.792  0.00  0.00    -0.274 OA
ATOM     32  C   UNL     1       8.118   1.063  22.474  0.00  0.00    +0.107 C 
ENDBRANCH  18  26
ENDBRANCH   1  21
TORSDOF 5
ENDMDL
MODEL 2
REMARK VINA RESULT:      -7.4      2.185      3.180
REMARK  Name = 
REMARK  6 active torsions:
REMARK  status: ('A' for Active; 'I' for Inactive)
REMARK    1  A    between atoms: C_1  and  C_2
REMARK    2  A    between atoms: C_9  and  C_10
REMARK    3  A    between atoms: C_13  and  N_14
REMARK    4  A    between atoms: N_14  and  C_15
REMARK    5  A    between atoms: C_16  and  C_17
REMARK    6  A    between atoms: C_17  and  C_18
REMARK                            x       y       z     vdW  Elec       q    Type
REMARK                         _______ _______ _______ _____ _____    ______ ____
ROOT
ATOM      1  N   UNL     1       7.282  -4.217  22.489  0.00  0.00    -0.317 N 
ATOM      2  H   UNL     1       7.038  -4.370  21.508  0.00  0.00    +0.152 HD
ENDROOT
BRANCH   1   3
ATOM      3  C   UNL     1       6.424  -4.989  23.297  0.00  0.00    +0.015 C 
ATOM      4  C   UNL     1       5.271  -5.610  22.531  0.00  0.00    +0.051 C 
ATOM      5  C   UNL     1       4.214  -6.395  23.290  0.00  0.00    +0.014 C 
ATOM      6  C   UNL     1       4.374  -6.523  24.786  0.00  0.00    +0.080 C 
ATOM      7  C   UNL     1       5.663  -6.047  25.396  0.00  0.00    +0.161 C 
ATOM      8  O   UNL     1       5.849  -6.246  26.599  0.00  0.00    -0.292 OA
ATOM      9  C   UNL     1       6.661  -5.272  24.598  0.00  0.00    +0.016 C 
BRANCH   9  10
ATOM     10  C   UNL     1       7.837  -4.762  25.401  0.00  0.00    +0.075 C 
BRANCH  10  11
ATOM     11  C   UNL     1       7.696  -3.401  26.066  0.00  0.00    -0.042 A 
ATOM     12  C   UNL     1       6.444  -2.870  26.425  0.00  0.00    +0.018 A 
ATOM     13  C   UNL     1       6.333  -1.535  26.833  0.00  0.00    +0.014 A 
ATOM     14  I   UNL     1       4.479  -0.745  27.360  0.00  0.00    -0.044 I 
ATOM     15  C   UNL     1       7.456  -0.708  26.870  0.00  0.00    +0.014 A 
ATOM     16  C   UNL     1       8.707  -1.240  26.564  0.00  0.00    +0.001 A 
ATOM     17  C   UNL     1       8.829  -2.582  26.195  0.00  0.00    +0.004 A 
ENDBRANCH  10  11
ENDBRANCH   9  10
ENDBRANCH   1   3
BRANCH   1  21
ATOM     18  C   UNL     1       7.925  -0.026  23.108  0.00  0.00    -0.002 A 
ATOM     19  C   UNL     1       8.981  -0.882  22.785  0.00  0.00    +0.011 A 
ATOM     20  C   UNL     1       8.743  -2.251  22.568  0.00  0.00    +0.024 A 
ATOM     21  C   UNL     1       7.450  -2.802  22.646  0.00  0.00    +0.031 A 
ATOM     22  C   UNL     1       6.407  -1.944  23.011  0.00  0.00    +0.024 A 
ATOM     23  C   UNL     1       6.643  -0.574  23.242  0.00  0.00    +0.011 A 
BRANCH  18  26
ATOM     24  C   UNL     1      10.244   1.502  24.515  0.00  0.00    +0.014 C 
ATOM     25  C   UNL     1       8.801   2.015  24.485  0.00  0.00    +0.046 C 
ATOM     26  C   UNL     1       8.106   1.469  23.239  0.00  0.00    +0.070 C 
ATOM     27  N   UNL     1       7.745   2.220  22.243  0.00  0.00    -0.184 NA
ATOM     28  N   UNL     1       7.982   3.554  22.287  0.00  0.00    -0.207 N 
ATOM     29  H   UNL     1       7.764   4.075  21.441  0.00  0.00    +0.177 HD
ATOM     30  C   UNL     1       8.554   4.267  23.296  0.00  0.00    +0.233 C 
ATOM     31  O   UNL     1       8.809   5.464  23.178  0.00  0.00    -0.274 OA
ATOM     32  C   UNL     1       8.779   3.535  24.591  0.00  0.00    +0.107 C 
ENDBRANCH  18  26
ENDBRANCH   1  21
TORSDOF 5
ENDMDL
MODEL 3
REMARK VINA RESULT:      -7.2      4.198      9.351
REMARK  Name = 
REMARK  6 active torsions:
REMARK  status: ('A' for Active; 'I' for Inactive)
REMARK    1  A    between atoms: C_1  and  C_2
REMARK    2  A    between atoms: C_9  and  C_10
REMARK    3  A    between atoms: C_13  and  N_14
REMARK    4  A    between atoms: N_14  and  C_15
REMARK    5  A    between atoms: C_16  and  C_17
REMARK    6  A    between atoms: C_17  and  C_18
REMARK                            x       y       z     vdW  Elec       q    Type
REMARK                         _______ _______ _______ _____ _____    ______ ____
ROOT
ATOM      1  N   UNL     1      10.442   2.933  22.394  0.00  0.00    -0.317 N 
ATOM      2  H   UNL     1      11.287   2.803  21.834  0.00  0.00    +0.152 HD
ENDROOT
BRANCH   1   3
ATOM      3  C   UNL     1      10.555   4.137  23.117  0.00  0.00    +0.015 C 
ATOM      4  C   UNL     1      11.989   4.518  23.432  0.00  0.00    +0.051 C 
ATOM      5  C   UNL     1      12.259   5.747  24.286  0.00  0.00    +0.014 C 
ATOM      6  C   UNL     1      11.069   6.537  24.775  0.00  0.00    +0.080 C 
ATOM      7  C   UNL     1       9.717   6.182  24.222  0.00  0.00    +0.161 C 
ATOM      8  O   UNL     1       8.755   6.889  24.530  0.00  0.00    -0.292 OA
ATOM      9  C   UNL     1       9.514   4.954  23.393  0.00  0.00    +0.016 C 
BRANCH   9  10
ATOM     10  C   UNL     1       8.071   4.682  23.031  0.00  0.00    +0.075 C 
BRANCH  10  11
ATOM     11  C   UNL     1       7.313   3.669  23.877  0.00  0.00    -0.042 A 
ATOM     12  C   UNL     1       7.271   3.749  25.280  0.00  0.00    +0.018 A 
ATOM     13  C   UNL     1       6.752   2.689  26.034  0.00  0.00    +0.014 A 
ATOM     14  I   UNL     1       6.694   2.803  28.113  0.00  0.00    -0.044 I 
ATOM     15  C   UNL     1       6.288   1.533  25.407  0.00  0.00    +0.014 A 
ATOM     16  C   UNL     1       6.279   1.467  24.014  0.00  0.00    +0.001 A 
ATOM     17  C   UNL     1       6.759   2.538  23.257  0.00  0.00    +0.004 A 
ENDBRANCH  10  11
ENDBRANCH   9  10
ENDBRANCH   1   3
BRANCH   1  21
ATOM     18  C   UNL     1       9.436  -0.848  24.143  0.00  0.00    -0.002 A 
ATOM     19  C   UNL     1       9.401  -0.656  22.759  0.00  0.00    +0.011 A 
ATOM     20  C   UNL     1       9.754   0.588  22.206  0.00  0.00    +0.024 A 
ATOM     21  C   UNL     1      10.168   1.667  23.010  0.00  0.00    +0.031 A 
ATOM     22  C   UNL     1      10.158   1.477  24.395  0.00  0.00    +0.024 A 
ATOM     23  C   UNL     1       9.794   0.237  24.955  0.00  0.00    +0.011 A 
BRANCH  18  26
ATOM     24  C   UNL     1       6.757  -1.933  25.299  0.00  0.00    +0.014 C 
ATOM     25  C   UNL     1       8.127  -2.291  25.884  0.00  0.00    +0.046 C 
ATOM     26  C   UNL     1       9.178  -2.194  24.780  0.00  0.00    +0.070 C 
ATOM     27  N   UNL     1       9.797  -3.229  24.298  0.00  0.00    -0.184 NA
ATOM     28  N   UNL     1       9.517  -4.465  24.781  0.00  0.00    -0.207 N 
ATOM     29  H   UNL     1       9.961  -5.243  24.300  0.00  0.00    +0.177 HD
ATOM     30  C   UNL     1       8.648  -4.794  25.776  0.00  0.00    +0.233 C 
ATOM     31  O   UNL     1       8.404  -5.965  26.059  0.00  0.00    -0.274 OA
ATOM     32  C   UNL     1       8.070  -3.652  26.567  0.00  0.00    +0.107 C 
ENDBRANCH  18  26
ENDBRANCH   1  21
TORSDOF 5
ENDMDL
MODEL 4
REMARK VINA RESULT:      -7.2      2.594      4.067
REMARK  Name = 
REMARK  6 active torsions:
REMARK  status: ('A' for Active; 'I' for Inactive)
REMARK    1  A    between atoms: C_1  and  C_2
REMARK    2  A    between atoms: C_9  and  C_10
REMARK    3  A    between atoms: C_13  and  N_14
REMARK    4  A    between atoms: N_14  and  C_15
REMARK    5  A    between atoms: C_16  and  C_17
REMARK    6  A    between atoms: C_17  and  C_18
REMARK                            x       y       z     vdW  Elec       q    Type
REMARK                         _______ _______ _______ _____ _____    ______ ____
ROOT
ATOM      1  N   UNL     1       6.706  -6.284  27.401  0.00  0.00    -0.317 N 
ATOM      2  H   UNL     1       6.598  -6.975  26.656  0.00  0.00    +0.152 HD
ENDROOT
BRANCH   1   3
ATOM      3  C   UNL     1       5.503  -6.211  28.132  0.00  0.00    +0.015 C 
ATOM      4  C   UNL     1       5.689  -5.707  29.550  0.00  0.00    +0.051 C 
ATOM      5  C   UNL     1       4.490  -5.663  30.485  0.00  0.00    +0.014 C 
ATOM      6  C   UNL     1       3.159  -6.122  29.940  0.00  0.00    +0.080 C 
ATOM      7  C   UNL     1       3.062  -6.397  28.466  0.00  0.00    +0.161 C 
ATOM      8  O   UNL     1       1.955  -6.667  27.993  0.00  0.00    -0.292 OA
ATOM      9  C   UNL     1       4.280  -6.434  27.600  0.00  0.00    +0.016 C 
BRANCH   9  10
ATOM     10  C   UNL     1       4.013  -6.852  26.171  0.00  0.00    +0.075 C 
BRANCH  10  11
ATOM     11  C   UNL     1       4.292  -5.833  25.077  0.00  0.00    -0.042 A 
ATOM     12  C   UNL     1       5.141  -6.114  23.992  0.00  0.00    +0.018 A 
ATOM     13  C   UNL     1       5.544  -5.090  23.125  0.00  0.00    +0.014 A 
ATOM     14  I   UNL     1       6.807  -5.504  21.521  0.00  0.00    -0.044 I 
ATOM     15  C   UNL     1       5.127  -3.777  23.337  0.00  0.00    +0.014 A 
ATOM     16  C   UNL     1       4.245  -3.498  24.379  0.00  0.00    +0.001 A 
ATOM     17  C   UNL     1       3.808  -4.523  25.222  0.00  0.00    +0.004 A 
ENDBRANCH  10  11
ENDBRANCH   9  10
ENDBRANCH   1   3
BRANCH   1  21
ATOM     18  C   UNL     1       8.397  -2.814  25.542  0.00  0.00    -0.002 A 
ATOM     19  C   UNL     1       7.346  -2.708  26.456  0.00  0.00    +0.011 A 
ATOM     20  C   UNL     1       6.818  -3.859  27.068  0.00  0.00    +0.024 A 
ATOM     21  C   UNL     1       7.334  -5.142  26.804  0.00  0.00    +0.031 A 
ATOM     22  C   UNL     1       8.358  -5.241  25.856  0.00  0.00    +0.024 A 
ATOM     23  C   UNL     1       8.881  -4.091  25.231  0.00  0.00    +0.011 A 
BRANCH  18  26
ATOM     24  C   UNL     1       8.014  -1.624  22.691  0.00  0.00    +0.014 C 
ATOM     25  C   UNL     1       9.350  -1.586  23.441  0.00  0.00    +0.046 C 
ATOM     26  C   UNL     1       9.075  -1.602  24.944  0.00  0.00    +0.070 C 
ATOM     27  N   UNL     1       9.312  -0.587  25.718  0.00  0.00    -0.184 NA
ATOM     28  N   UNL     1       9.829   0.552  25.195  0.00  0.00    -0.207 N 
ATOM     29  H   UNL     1       9.904   1.342  25.830  0.00  0.00    +0.177 HD
ATOM     30  C   UNL     1      10.182   0.790  23.901  0.00  0.00    +0.233 C 
ATOM     31  O   UNL     1      10.549   1.902  23.526  0.00  0.00    -0.274 OA
ATOM     32  C   UNL     1      10.182  -0.397  22.977  0.00  0.00    +0.107 C 
ENDBRANCH  18  26
ENDBRANCH   1  21
TORSDOF 5
ENDMDL
MODEL 5
REMARK VINA RESULT:      -7.0      3.149      8.078
REMARK  Name = 
REMARK  6 active torsions:
REMARK  status: ('A' for Active; 'I' for Inactive)
REMARK    1  A    between atoms: C_1  and  C_2
REMARK    2  A    between atoms: C_9  and  C_10
REMARK    3  A    between atoms: C_13  and  N_14
REMARK    4  A    between atoms: N_14  and  C_15
REMARK    5  A    between atoms: C_16  and  C_17
REMARK    6  A    between atoms: C_17  and  C_18
REMARK                            x       y       z     vdW  Elec       q    Type
REMARK                         _______ _______ _______ _____ _____    ______ ____
ROOT
ATOM      1  N   UNL     1       6.158   0.666  24.038  0.00  0.00    -0.317 N 
ATOM      2  H   UNL     1       5.834   0.367  23.116  0.00  0.00    +0.152 HD
ENDROOT
BRANCH   1   3
ATOM      3  C   UNL     1       7.275   1.509  23.875  0.00  0.00    +0.015 C 
ATOM      4  C   UNL     1       7.327   2.642  24.882  0.00  0.00    +0.051 C 
ATOM      5  C   UNL     1       8.428   3.684  24.770  0.00  0.00    +0.014 C 
ATOM      6  C   UNL     1       9.430   3.528  23.651  0.00  0.00    +0.080 C 
ATOM      7  C   UNL     1       9.398   2.255  22.853  0.00  0.00    +0.161 C 
ATOM      8  O   UNL     1      10.279   2.070  22.011  0.00  0.00    -0.292 OA
ATOM      9  C   UNL     1       8.282   1.271  23.004  0.00  0.00    +0.016 C 
BRANCH   9  10
ATOM     10  C   UNL     1       8.341   0.113  22.034  0.00  0.00    +0.075 C 
BRANCH  10  11
ATOM     11  C   UNL     1       8.655  -1.263  22.600  0.00  0.00    -0.042 A 
ATOM     12  C   UNL     1       7.920  -2.406  22.239  0.00  0.00    +0.018 A 
ATOM     13  C   UNL     1       8.094  -3.608  22.937  0.00  0.00    +0.014 A 
ATOM     14  I   UNL     1       7.001  -5.301  22.407  0.00  0.00    -0.044 I 
ATOM     15  C   UNL     1       8.981  -3.684  24.009  0.00  0.00    +0.014 A 
ATOM     16  C   UNL     1       9.751  -2.570  24.341  0.00  0.00    +0.001 A 
ATOM     17  C   UNL     1       9.610  -1.380  23.622  0.00  0.00    +0.004 A 
ENDBRANCH  10  11
ENDBRANCH   9  10
ENDBRANCH   1   3
BRANCH   1  21
ATOM     18  C   UNL     1       6.404  -2.850  26.475  0.00  0.00    -0.002 A 
ATOM     19  C   UNL     1       7.131  -1.698  26.787  0.00  0.00    +0.011 A 
ATOM     20  C   UNL     1       7.021  -0.549  25.983  0.00  0.00    +0.024 A 
ATOM     21  C   UNL     1       6.171  -0.508  24.861  0.00  0.00    +0.031 A 
ATOM     22  C   UNL     1       5.481  -1.679  24.534  0.00  0.00    +0.024 A 
ATOM     23  C   UNL     1       5.599  -2.836  25.329  0.00  0.00    +0.011 A 
BRANCH  18  26
ATOM     24  C   UNL     1       3.941  -4.362  27.631  0.00  0.00    +0.014 C 
ATOM     25  C   UNL     1       5.269  -4.229  28.383  0.00  0.00    +0.046 C 
ATOM     26  C   UNL     1       6.399  -4.070  27.367  0.00  0.00    +0.070 C 
ATOM     27  N   UNL     1       7.307  -4.978  27.170  0.00  0.00    -0.184 NA
ATOM     28  N   UNL     1       7.274  -6.128  27.886  0.00  0.00    -0.207 N 
ATOM     29  H   UNL     1       7.951  -6.839  27.622  0.00  0.00    +0.177 HD
ATOM     30  C   UNL     1       6.389  -6.480  28.860  0.00  0.00    +0.233 C 
ATOM     31  O   UNL     1       6.400  -7.598  29.370  0.00  0.00    -0.274 OA
ATOM     32  C   UNL     1       5.454  -5.402  29.338  0.00  0.00    +0.107 C 
ENDBRANCH  18  26
ENDBRANCH   1  21
TORSDOF 5
ENDMDL
MODEL 6
REMARK VINA RESULT:      -6.8      1.811      7.292
REMARK  Name = 
REMARK  6 active torsions:
REMARK  status: ('A' for Active; 'I' for Inactive)
REMARK    1  A    between atoms: C_1  and  C_2
REMARK    2  A    between atoms: C_9  and  C_10
REMARK    3  A    between atoms: C_13  and  N_14
REMARK    4  A    between atoms: N_14  and  C_15
REMARK    5  A    between atoms: C_16  and  C_17
REMARK    6  A    between atoms: C_17  and  C_18
REMARK                            x       y       z     vdW  Elec       q    Type
REMARK                         _______ _______ _______ _____ _____    ______ ____
ROOT
ATOM      1  N   UNL     1       8.990  -2.433  22.509  0.00  0.00    -0.317 N 
ATOM      2  H   UNL     1       9.707  -2.879  23.084  0.00  0.00    +0.152 HD
ENDROOT
BRANCH   1   3
ATOM      3  C   UNL     1       9.131  -1.034  22.610  0.00  0.00    +0.015 C 
ATOM      4  C   UNL     1       8.918  -0.310  21.295  0.00  0.00    +0.051 C 
ATOM      5  C   UNL     1       9.128   1.195  21.235  0.00  0.00    +0.014 C 
ATOM      6  C   UNL     1       9.535   1.898  22.508  0.00  0.00    +0.080 C 
ATOM      7  C   UNL     1       9.506   1.107  23.786  0.00  0.00    +0.161 C 
ATOM      8  O   UNL     1       9.731   1.698  24.845  0.00  0.00    -0.292 OA
ATOM      9  C   UNL     1       9.303  -0.375  23.778  0.00  0.00    +0.016 C 
BRANCH   9  10
ATOM     10  C   UNL     1       9.433  -1.025  25.137  0.00  0.00    +0.075 C 
BRANCH  10  11
ATOM     11  C   UNL     1       8.157  -1.505  25.812  0.00  0.00    -0.042 A 
ATOM     12  C   UNL     1       8.016  -2.817  26.299  0.00  0.00    +0.018 A 
ATOM     13  C   UNL     1       6.765  -3.286  26.715  0.00  0.00    +0.014 A 
ATOM     14  I   UNL     1       6.554  -5.231  27.433  0.00  0.00    -0.044 I 
ATOM     15  C   UNL     1       5.637  -2.470  26.634  0.00  0.00    +0.014 A 
ATOM     16  C   UNL     1       5.777  -1.153  26.200  0.00  0.00    +0.001 A 
ATOM     17  C   UNL     1       7.031  -0.667  25.821  0.00  0.00    +0.004 A 
ENDBRANCH  10  11
ENDBRANCH   9  10
ENDBRANCH   1   3
BRANCH   1  21
ATOM     18  C   UNL     1       5.385  -4.643  23.201  0.00  0.00    -0.002 A 
ATOM     19  C   UNL     1       6.641  -5.223  23.396  0.00  0.00    +0.011 A 
ATOM     20  C   UNL     1       7.811  -4.473  23.181  0.00  0.00    +0.024 A 
ATOM     21  C   UNL     1       7.764  -3.123  22.785  0.00  0.00    +0.031 A 
ATOM     22  C   UNL     1       6.503  -2.565  22.552  0.00  0.00    +0.024 A 
ATOM     23  C   UNL     1       5.329  -3.316  22.754  0.00  0.00    +0.011 A 
BRANCH  18  26
ATOM     24  C   UNL     1       3.024  -3.645  24.967  0.00  0.00    +0.014 C 
ATOM     25  C   UNL     1       3.442  -5.116  24.883  0.00  0.00    +0.046 C 
ATOM     26  C   UNL     1       4.100  -5.368  23.527  0.00  0.00    +0.070 C 
ATOM     27  N   UNL     1       3.560  -6.105  22.604  0.00  0.00    -0.184 NA
ATOM     28  N   UNL     1       2.358  -6.691  22.828  0.00  0.00    -0.207 N 
ATOM     29  H   UNL     1       1.943  -7.176  22.037  0.00  0.00    +0.177 HD
ATOM     30  C   UNL     1       1.602  -6.638  23.960  0.00  0.00    +0.233 C 
ATOM     31  O   UNL     1       0.477  -7.130  24.009  0.00  0.00    -0.274 OA
ATOM     32  C   UNL     1       2.249  -6.021  25.170  0.00  0.00    +0.107 C 
ENDBRANCH  18  26
ENDBRANCH   1  21
TORSDOF 5
ENDMDL
MODEL 7
REMARK VINA RESULT:      -6.8      1.707      7.179
REMARK  Name = 
REMARK  6 active torsions:
REMARK  status: ('A' for Active; 'I' for Inactive)
REMARK    1  A    between atoms: C_1  and  C_2
REMARK    2  A    between atoms: C_9  and  C_10
REMARK    3  A    between atoms: C_13  and  N_14
REMARK    4  A    between atoms: N_14  and  C_15
REMARK    5  A    between atoms: C_16  and  C_17
REMARK    6  A    between atoms: C_17  and  C_18
REMARK                            x       y       z     vdW  Elec       q    Type
REMARK                         _______ _______ _______ _____ _____    ______ ____
ROOT
ATOM      1  N   UNL     1       8.692  -2.545  21.906  0.00  0.00    -0.317 N 
ATOM      2  H   UNL     1       9.489  -3.176  22.001  0.00  0.00    +0.152 HD
ENDROOT
BRANCH   1   3
ATOM      3  C   UNL     1       9.011  -1.315  22.515  0.00  0.00    +0.015 C 
ATOM      4  C   UNL     1       8.694  -0.112  21.647  0.00  0.00    +0.051 C 
ATOM      5  C   UNL     1       9.070   1.277  22.138  0.00  0.00    +0.014 C 
ATOM      6  C   UNL     1       9.740   1.386  23.486  0.00  0.00    +0.080 C 
ATOM      7  C   UNL     1       9.808   0.150  24.338  0.00  0.00    +0.161 C 
ATOM      8  O   UNL     1      10.254   0.252  25.483  0.00  0.00    -0.292 OA
ATOM      9  C   UNL     1       9.430  -1.191  23.794  0.00  0.00    +0.016 C 
BRANCH   9  10
ATOM     10  C   UNL     1       9.682  -2.339  24.746  0.00  0.00    +0.075 C 
BRANCH  10  11
ATOM     11  C   UNL     1       8.482  -2.923  25.475  0.00  0.00    -0.042 A 
ATOM     12  C   UNL     1       7.393  -2.130  25.879  0.00  0.00    +0.018 A 
ATOM     13  C   UNL     1       6.414  -2.654  26.732  0.00  0.00    +0.014 A 
ATOM     14  I   UNL     1       4.804  -1.478  27.336  0.00  0.00    -0.044 I 
ATOM     15  C   UNL     1       6.513  -3.961  27.207  0.00  0.00    +0.014 A 
ATOM     16  C   UNL     1       7.561  -4.770  26.771  0.00  0.00    +0.001 A 
ATOM     17  C   UNL     1       8.518  -4.264  25.889  0.00  0.00    +0.004 A 
ENDBRANCH  10  11
ENDBRANCH   9  10
ENDBRANCH   1   3
BRANCH   1  21
ATOM     18  C   UNL     1       5.202  -4.730  23.093  0.00  0.00    -0.002 A 
ATOM     19  C   UNL     1       5.195  -3.335  23.020  0.00  0.00    +0.011 A 
ATOM     20  C   UNL     1       6.346  -2.639  22.609  0.00  0.00    +0.024 A 
ATOM     21  C   UNL     1       7.528  -3.311  22.243  0.00  0.00    +0.031 A 
ATOM     22  C   UNL     1       7.537  -4.705  22.361  0.00  0.00    +0.024 A 
ATOM     23  C   UNL     1       6.390  -5.405  22.783  0.00  0.00    +0.011 A 
BRANCH  18  26
ATOM     24  C   UNL     1       4.666  -6.492  25.603  0.00  0.00    +0.014 C 
ATOM     25  C   UNL     1       4.113  -6.825  24.213  0.00  0.00    +0.046 C 
ATOM     26  C   UNL     1       3.961  -5.530  23.417  0.00  0.00    +0.070 C 
ATOM     27  N   UNL     1       2.808  -5.036  23.083  0.00  0.00    -0.184 NA
ATOM     28  N   UNL     1       1.670  -5.679  23.444  0.00  0.00    -0.207 N 
ATOM     29  H   UNL     1       0.800  -5.196  23.238  0.00  0.00    +0.177 HD
ATOM     30  C   UNL     1       1.556  -6.854  24.123  0.00  0.00    +0.233 C 
ATOM     31  O   UNL     1       0.463  -7.289  24.482  0.00  0.00    -0.274 OA
ATOM     32  C   UNL     1       2.826  -7.631  24.336  0.00  0.00    +0.107 C 
ENDBRANCH  18  26
ENDBRANCH   1  21
TORSDOF 5
ENDMDL
MODEL 8
REMARK VINA RESULT:      -6.8      1.995      7.548
REMARK  Name = 
REMARK  6 active torsions:
REMARK  status: ('A' for Active; 'I' for Inactive)
REMARK    1  A    between atoms: C_1  and  C_2
REMARK    2  A    between atoms: C_9  and  C_10
REMARK    3  A    between atoms: C_13  and  N_14
REMARK    4  A    between atoms: N_14  and  C_15
REMARK    5  A    between atoms: C_16  and  C_17
REMARK    6  A    between atoms: C_17  and  C_18
REMARK                            x       y       z     vdW  Elec       q    Type
REMARK                         _______ _______ _______ _____ _____    ______ ____
ROOT
ATOM      1  N   UNL     1      10.016  -1.737  23.692  0.00  0.00    -0.317 N 
ATOM      2  H   UNL     1      10.619  -1.901  24.500  0.00  0.00    +0.152 HD
ENDROOT
BRANCH   1   3
ATOM      3  C   UNL     1       9.829  -0.348  23.540  0.00  0.00    +0.015 C 
ATOM      4  C   UNL     1      10.117   0.148  22.136  0.00  0.00    +0.051 C 
ATOM      5  C   UNL     1      10.045   1.640  21.848  0.00  0.00    +0.014 C 
ATOM      6  C   UNL     1       9.677   2.558  22.988  0.00  0.00    +0.080 C 
ATOM      7  C   UNL     1       9.210   1.929  24.271  0.00  0.00    +0.161 C 
ATOM      8  O   UNL     1       8.804   2.669  25.171  0.00  0.00    -0.292 OA
ATOM      9  C   UNL     1       9.314   0.455  24.498  0.00  0.00    +0.016 C 
BRANCH   9  10
ATOM     10  C   UNL     1       8.920   0.012  25.889  0.00  0.00    +0.075 C 
BRANCH  10  11
ATOM     11  C   UNL     1       7.478  -0.419  26.108  0.00  0.00    -0.042 A 
ATOM     12  C   UNL     1       7.145  -1.570  26.845  0.00  0.00    +0.018 A 
ATOM     13  C   UNL     1       5.831  -2.054  26.844  0.00  0.00    +0.014 A 
ATOM     14  I   UNL     1       5.337  -3.762  27.930  0.00  0.00    -0.044 I 
ATOM     15  C   UNL     1       4.840  -1.417  26.098  0.00  0.00    +0.014 A 
ATOM     16  C   UNL     1       5.151  -0.247  25.406  0.00  0.00    +0.001 A 
ATOM     17  C   UNL     1       6.451   0.263  25.437  0.00  0.00    +0.004 A 
ENDBRANCH  10  11
ENDBRANCH   9  10
ENDBRANCH   1   3
BRANCH   1  21
ATOM     18  C   UNL     1       6.658  -4.370  24.084  0.00  0.00    -0.002 A 
ATOM     19  C   UNL     1       6.586  -3.212  23.305  0.00  0.00    +0.011 A 
ATOM     20  C   UNL     1       7.707  -2.372  23.175  0.00  0.00    +0.024 A 
ATOM     21  C   UNL     1       8.932  -2.670  23.800  0.00  0.00    +0.031 A 
ATOM     22  C   UNL     1       8.981  -3.807  24.612  0.00  0.00    +0.024 A 
ATOM     23  C   UNL     1       7.857  -4.645  24.754  0.00  0.00    +0.011 A 
BRANCH  18  26
ATOM     24  C   UNL     1       5.466  -6.100  21.787  0.00  0.00    +0.014 C 
ATOM     25  C   UNL     1       4.625  -5.549  22.942  0.00  0.00    +0.046 C 
ATOM     26  C   UNL     1       5.522  -5.364  24.164  0.00  0.00    +0.070 C 
ATOM     27  N   UNL     1       5.413  -6.084  25.240  0.00  0.00    -0.184 NA
ATOM     28  N   UNL     1       4.466  -7.052  25.307  0.00  0.00    -0.207 N 
ATOM     29  H   UNL     1       4.491  -7.645  26.132  0.00  0.00    +0.177 HD
ATOM     30  C   UNL     1       3.539  -7.380  24.364  0.00  0.00    +0.233 C 
ATOM     31  O   UNL     1       2.795  -8.348  24.499  0.00  0.00    -0.274 OA
ATOM     32  C   UNL     1       3.418  -6.446  23.191  0.00  0.00    +0.107 C 
ENDBRANCH  18  26
ENDBRANCH   1  21
TORSDOF 5
ENDMDL
MODEL 9
REMARK VINA RESULT:      -6.7      2.050      7.541
REMARK  Name = 
REMARK  6 active torsions:
REMARK  status: ('A' for Active; 'I' for Inactive)
REMARK    1  A    between atoms: C_1  and  C_2
REMARK    2  A    between atoms: C_9  and  C_10
REMARK    3  A    between atoms: C_13  and  N_14
REMARK    4  A    between atoms: N_14  and  C_15
REMARK    5  A    between atoms: C_16  and  C_17
REMARK    6  A    between atoms: C_17  and  C_18
REMARK                            x       y       z     vdW  Elec       q    Type
REMARK                         _______ _______ _______ _____ _____    ______ ____
ROOT
ATOM      1  N   UNL     1      10.078  -1.794  23.642  0.00  0.00    -0.317 N 
ATOM      2  H   UNL     1      10.759  -1.928  24.392  0.00  0.00    +0.152 HD
ENDROOT
BRANCH   1   3
ATOM      3  C   UNL     1       9.817  -0.416  23.506  0.00  0.00    +0.015 C 
ATOM      4  C   UNL     1      10.039   0.104  22.099  0.00  0.00    +0.051 C 
ATOM      5  C   UNL     1       9.884   1.592  21.825  0.00  0.00    +0.014 C 
ATOM      6  C   UNL     1       9.504   2.483  22.983  0.00  0.00    +0.080 C 
ATOM      7  C   UNL     1       9.107   1.823  24.274  0.00  0.00    +0.161 C 
ATOM      8  O   UNL     1       8.690   2.535  25.191  0.00  0.00    -0.292 OA
ATOM      9  C   UNL     1       9.291   0.354  24.486  0.00  0.00    +0.016 C 
BRANCH   9  10
ATOM     10  C   UNL     1       8.961  -0.117  25.884  0.00  0.00    +0.075 C 
BRANCH  10  11
ATOM     11  C   UNL     1       7.500  -0.096  26.306  0.00  0.00    -0.042 A 
ATOM     12  C   UNL     1       7.083   0.453  27.532  0.00  0.00    +0.018 A 
ATOM     13  C   UNL     1       5.771   0.264  27.983  0.00  0.00    +0.014 A 
ATOM     14  I   UNL     1       5.155   1.072  29.801  0.00  0.00    -0.044 I 
ATOM     15  C   UNL     1       4.866  -0.487  27.235  0.00  0.00    +0.014 A 
ATOM     16  C   UNL     1       5.255  -0.992  25.995  0.00  0.00    +0.001 A 
ATOM     17  C   UNL     1       6.551  -0.771  25.522  0.00  0.00    +0.004 A 
ENDBRANCH  10  11
ENDBRANCH   9  10
ENDBRANCH   1   3
BRANCH   1  21
ATOM     18  C   UNL     1       6.869  -4.565  24.258  0.00  0.00    -0.002 A 
ATOM     19  C   UNL     1       6.878  -3.697  23.163  0.00  0.00    +0.011 A 
ATOM     20  C   UNL     1       7.952  -2.809  22.970  0.00  0.00    +0.024 A 
ATOM     21  C   UNL     1       9.051  -2.773  23.849  0.00  0.00    +0.031 A 
ATOM     22  C   UNL     1       9.011  -3.615  24.964  0.00  0.00    +0.024 A 
ATOM     23  C   UNL     1       7.932  -4.498  25.168  0.00  0.00    +0.011 A 
BRANCH  18  26
ATOM     24  C   UNL     1       4.532  -4.562  26.315  0.00  0.00    +0.014 C 
ATOM     25  C   UNL     1       5.237  -5.841  25.851  0.00  0.00    +0.046 C 
ATOM     26  C   UNL     1       5.799  -5.616  24.449  0.00  0.00    +0.070 C 
ATOM     27  N   UNL     1       5.338  -6.220  23.395  0.00  0.00    -0.184 NA
ATOM     28  N   UNL     1       4.311  -7.097  23.519  0.00  0.00    -0.207 N 
ATOM     29  H   UNL     1       3.931  -7.465  22.650  0.00  0.00    +0.177 HD
ATOM     30  C   UNL     1       3.673  -7.479  24.660  0.00  0.00    +0.233 C 
ATOM     31  O   UNL     1       2.685  -8.209  24.633  0.00  0.00    -0.274 OA
ATOM     32  C   UNL     1       4.291  -7.032  25.956  0.00  0.00    +0.107 C 
ENDBRANCH  18  26
ENDBRANCH   1  21
TORSDOF 5
ENDMDL
