MODEL 1
REMARK VINA RESULT:      -7.1      0.000      0.000
REMARK  Name = 
REMARK  4 active torsions:
REMARK  status: ('A' for Active; 'I' for Inactive)
REMARK    1  A    between atoms: C_1  and  C_2
REMARK    2  A    between atoms: C_3  and  C_8
REMARK    3  A    between atoms: N_11  and  C_12
REMARK    4  A    between atoms: C_16  and  N_18
REMARK                            x       y       z     vdW  Elec       q    Type
REMARK                         _______ _______ _______ _____ _____    ______ ____
ROOT
ATOM      1  C   UNL     1       7.195  -4.689  24.748  0.00  0.00    +0.084 A 
ATOM      2  C   UNL     1       8.486  -5.115  24.984  0.00  0.00    +0.049 A 
ATOM      3  C   UNL     1       9.449  -4.144  24.943  0.00  0.00    +0.116 A 
ATOM      4  N   UNL     1       9.177  -2.860  24.674  0.00  0.00    -0.223 NA
ATOM      5  C   UNL     1       7.903  -2.523  24.430  0.00  0.00    +0.220 A 
ATOM      6  N   UNL     1       7.576  -1.207  24.093  0.00  0.00    -0.283 N 
ATOM      7  H   UNL     1       6.574  -1.120  24.010  0.00  0.00    +0.155 HD
ATOM      8  N   UNL     1       6.888  -3.400  24.481  0.00  0.00    -0.214 NA
ENDROOT
BRANCH   1  17
ATOM      9  C   UNL     1       5.531  -6.026  22.243  0.00  0.00    +0.067 C 
ATOM     10  C   UNL     1       5.330  -6.183  23.709  0.00  0.00    +0.057 A 
ATOM     11  N   UNL     1       4.294  -7.023  24.102  0.00  0.00    -0.230 NA
ATOM     12  C   UNL     1       4.211  -7.072  25.405  0.00  0.00    +0.156 A 
ATOM     13  N   UNL     1       3.288  -7.798  26.053  0.00  0.00    -0.338 N 
ATOM     14  H   UNL     1       2.800  -8.490  25.497  0.00  0.00    +0.144 HD
ATOM     15  H   UNL     1       3.473  -8.074  27.009  0.00  0.00    +0.144 HD
ATOM     16  S   UNL     1       5.382  -6.157  26.247  0.00  0.00    -0.051 S 
ATOM     17  C   UNL     1       6.054  -5.613  24.751  0.00  0.00    +0.062 A 
ENDBRANCH   1  17
BRANCH   6  18
ATOM     18  C   UNL     1       8.342  -0.218  23.450  0.00  0.00    +0.040 A 
ATOM     19  C   UNL     1       8.612   1.032  24.021  0.00  0.00    +0.107 A 
ATOM     20  C   UNL     1       9.361   1.995  23.331  0.00  0.00    +0.275 A 
ATOM     21  C   UNL     1       9.835   1.738  22.041  0.00  0.00    +0.084 A 
ATOM     22  C   UNL     1       9.547   0.511  21.448  0.00  0.00    +0.008 A 
ATOM     23  C   UNL     1       8.804  -0.452  22.143  0.00  0.00    +0.024 A 
BRANCH  20  24
ATOM     24  N   UNL     1       9.654   3.278  23.978  0.00  0.00    +0.080 N 
ATOM     25  O   UNL     1      10.657   3.903  23.609  0.00  0.00    +0.041 OA
ATOM     26  O   UNL     1       8.871   3.668  24.859  0.00  0.00    -0.576 OA
ENDBRANCH  20  24
ENDBRANCH   6  18
TORSDOF 3
ENDMDL
MODEL 2
REMARK VINA RESULT:      -7.1      2.683      3.922
REMARK  Name = 
REMARK  4 active torsions:
REMARK  status: ('A' for Active; 'I' for Inactive)
REMARK    1  A    between atoms: C_1  and  C_2
REMARK    2  A    between atoms: C_3  and  C_8
REMARK    3  A    between atoms: N_11  and  C_12
REMARK    4  A    between atoms: C_16  and  N_18
REMARK                            x       y       z     vdW  Elec       q    Type
REMARK                         _______ _______ _______ _____ _____    ______ ____
ROOT
ATOM      1  C   UNL     1       8.954  -2.030  23.249  0.00  0.00    +0.084 A 
ATOM      2  C   UNL     1       8.896  -1.926  21.873  0.00  0.00    +0.049 A 
ATOM      3  C   UNL     1       9.338  -0.743  21.348  0.00  0.00    +0.116 A 
ATOM      4  N   UNL     1       9.784   0.268  22.104  0.00  0.00    -0.223 NA
ATOM      5  C   UNL     1       9.789   0.106  23.435  0.00  0.00    +0.220 A 
ATOM      6  N   UNL     1      10.196   1.151  24.268  0.00  0.00    -0.283 N 
ATOM      7  H   UNL     1      10.200   0.834  25.227  0.00  0.00    +0.155 HD
ATOM      8  N   UNL     1       9.407  -1.030  24.038  0.00  0.00    -0.214 NA
ENDROOT
BRANCH   1  17
ATOM      9  C   UNL     1       7.140  -4.572  22.209  0.00  0.00    +0.067 C 
ATOM     10  C   UNL     1       7.737  -4.314  23.548  0.00  0.00    +0.057 A 
ATOM     11  N   UNL     1       7.514  -5.285  24.519  0.00  0.00    -0.230 NA
ATOM     12  C   UNL     1       8.076  -4.942  25.648  0.00  0.00    +0.156 A 
ATOM     13  N   UNL     1       8.005  -5.693  26.758  0.00  0.00    -0.338 N 
ATOM     14  H   UNL     1       7.692  -6.648  26.625  0.00  0.00    +0.144 HD
ATOM     15  H   UNL     1       8.713  -5.572  27.470  0.00  0.00    +0.144 HD
ATOM     16  S   UNL     1       8.938  -3.469  25.619  0.00  0.00    -0.051 S 
ATOM     17  C   UNL     1       8.509  -3.234  23.961  0.00  0.00    +0.062 A 
ENDBRANCH   1  17
BRANCH   6  18
ATOM     18  C   UNL     1      10.139   2.542  24.073  0.00  0.00    +0.040 A 
ATOM     19  C   UNL     1      11.264   3.318  23.766  0.00  0.00    +0.107 A 
ATOM     20  C   UNL     1      11.163   4.707  23.604  0.00  0.00    +0.275 A 
ATOM     21  C   UNL     1       9.935   5.354  23.772  0.00  0.00    +0.084 A 
ATOM     22  C   UNL     1       8.814   4.599  24.108  0.00  0.00    +0.008 A 
ATOM     23  C   UNL     1       8.918   3.211  24.263  0.00  0.00    +0.024 A 
BRANCH  20  24
ATOM     24  N   UNL     1      12.356   5.479  23.245  0.00  0.00    +0.080 N 
ATOM     25  O   UNL     1      12.756   5.427  22.074  0.00  0.00    +0.041 OA
ATOM     26  O   UNL     1      12.895   6.150  24.139  0.00  0.00    -0.576 OA
ENDBRANCH  20  24
ENDBRANCH   6  18
TORSDOF 3
ENDMDL
MODEL 3
REMARK VINA RESULT:      -6.9      4.023      8.248
REMARK  Name = 
REMARK  4 active torsions:
REMARK  status: ('A' for Active; 'I' for Inactive)
REMARK    1  A    between atoms: C_1  and  C_2
REMARK    2  A    between atoms: C_3  and  C_8
REMARK    3  A    between atoms: N_11  and  C_12
REMARK    4  A    between atoms: C_16  and  N_18
REMARK                            x       y       z     vdW  Elec       q    Type
REMARK                         _______ _______ _______ _____ _____    ______ ____
ROOT
ATOM      1  C   UNL     1       8.104   0.617  22.449  0.00  0.00    +0.084 A 
ATOM      2  C   UNL     1       9.157  -0.052  21.857  0.00  0.00    +0.049 A 
ATOM      3  C   UNL     1       9.079  -1.417  21.873  0.00  0.00    +0.116 A 
ATOM      4  N   UNL     1       8.062  -2.081  22.439  0.00  0.00    -0.223 NA
ATOM      5  C   UNL     1       7.086  -1.368  23.017  0.00  0.00    +0.220 A 
ATOM      6  N   UNL     1       6.032  -2.016  23.665  0.00  0.00    -0.283 N 
ATOM      7  H   UNL     1       5.360  -1.332  23.981  0.00  0.00    +0.155 HD
ATOM      8  N   UNL     1       7.060  -0.026  23.021  0.00  0.00    -0.214 NA
ENDROOT
BRANCH   1  17
ATOM      9  C   UNL     1      10.258   2.775  23.687  0.00  0.00    +0.067 C 
ATOM     10  C   UNL     1       8.938   3.012  23.044  0.00  0.00    +0.057 A 
ATOM     11  N   UNL     1       8.538   4.339  22.930  0.00  0.00    -0.230 NA
ATOM     12  C   UNL     1       7.364   4.418  22.360  0.00  0.00    +0.156 A 
ATOM     13  N   UNL     1       6.735   5.582  22.140  0.00  0.00    -0.338 N 
ATOM     14  H   UNL     1       7.306   6.415  22.223  0.00  0.00    +0.144 HD
ATOM     15  H   UNL     1       6.029   5.621  21.415  0.00  0.00    +0.144 HD
ATOM     16  S   UNL     1       6.680   2.928  21.886  0.00  0.00    -0.051 S 
ATOM     17  C   UNL     1       8.047   2.082  22.518  0.00  0.00    +0.062 A 
ENDBRANCH   1  17
BRANCH   6  18
ATOM     18  C   UNL     1       5.991  -3.268  24.303  0.00  0.00    +0.040 A 
ATOM     19  C   UNL     1       6.868  -3.632  25.332  0.00  0.00    +0.107 A 
ATOM     20  C   UNL     1       6.805  -4.902  25.921  0.00  0.00    +0.275 A 
ATOM     21  C   UNL     1       5.878  -5.848  25.474  0.00  0.00    +0.084 A 
ATOM     22  C   UNL     1       5.020  -5.511  24.429  0.00  0.00    +0.008 A 
ATOM     23  C   UNL     1       5.082  -4.239  23.847  0.00  0.00    +0.024 A 
BRANCH  20  24
ATOM     24  N   UNL     1       7.715  -5.231  27.023  0.00  0.00    +0.080 N 
ATOM     25  O   UNL     1       7.297  -5.966  27.927  0.00  0.00    +0.041 OA
ATOM     26  O   UNL     1       8.861  -4.756  26.980  0.00  0.00    -0.576 OA
ENDBRANCH  20  24
ENDBRANCH   6  18
TORSDOF 3
ENDMDL
MODEL 4
REMARK VINA RESULT:      -6.9      4.047      8.339
REMARK  Name = 
REMARK  4 active torsions:
REMARK  status: ('A' for Active; 'I' for Inactive)
REMARK    1  A    between atoms: C_1  and  C_2
REMARK    2  A    between atoms: C_3  and  C_8
REMARK    3  A    between atoms: N_11  and  C_12
REMARK    4  A    between atoms: C_16  and  N_18
REMARK                            x       y       z     vdW  Elec       q    Type
REMARK                         _______ _______ _______ _____ _____    ______ ____
ROOT
ATOM      1  C   UNL     1       8.564   0.692  22.611  0.00  0.00    +0.084 A 
ATOM      2  C   UNL     1       9.559  -0.009  21.959  0.00  0.00    +0.049 A 
ATOM      3  C   UNL     1       9.302  -1.332  21.730  0.00  0.00    +0.116 A 
ATOM      4  N   UNL     1       8.170  -1.933  22.123  0.00  0.00    -0.223 NA
ATOM      5  C   UNL     1       7.258  -1.196  22.773  0.00  0.00    +0.220 A 
ATOM      6  N   UNL     1       6.086  -1.789  23.249  0.00  0.00    -0.283 N 
ATOM      7  H   UNL     1       5.490  -1.080  23.650  0.00  0.00    +0.155 HD
ATOM      8  N   UNL     1       7.409   0.116  23.012  0.00  0.00    -0.214 NA
ENDROOT
BRANCH   1  17
ATOM      9  C   UNL     1       6.474   3.186  22.123  0.00  0.00    +0.067 C 
ATOM     10  C   UNL     1       7.832   3.189  22.730  0.00  0.00    +0.057 A 
ATOM     11  N   UNL     1       8.307   4.420  23.172  0.00  0.00    -0.230 NA
ATOM     12  C   UNL     1       9.507   4.296  23.673  0.00  0.00    +0.156 A 
ATOM     13  N   UNL     1      10.206   5.332  24.161  0.00  0.00    -0.338 N 
ATOM     14  H   UNL     1       9.677   6.178  24.337  0.00  0.00    +0.144 HD
ATOM     15  H   UNL     1      10.945   5.146  24.828  0.00  0.00    +0.144 HD
ATOM     16  S   UNL     1      10.133   2.708  23.690  0.00  0.00    -0.051 S 
ATOM     17  C   UNL     1       8.695   2.118  22.934  0.00  0.00    +0.062 A 
ENDBRANCH   1  17
BRANCH   6  18
ATOM     18  C   UNL     1       5.838  -3.113  23.653  0.00  0.00    +0.040 A 
ATOM     19  C   UNL     1       6.480  -3.713  24.743  0.00  0.00    +0.107 A 
ATOM     20  C   UNL     1       6.217  -5.044  25.094  0.00  0.00    +0.275 A 
ATOM     21  C   UNL     1       5.325  -5.814  24.344  0.00  0.00    +0.084 A 
ATOM     22  C   UNL     1       4.702  -5.240  23.237  0.00  0.00    +0.008 A 
ATOM     23  C   UNL     1       4.963  -3.908  22.893  0.00  0.00    +0.024 A 
BRANCH  20  24
ATOM     24  N   UNL     1       6.881  -5.624  26.266  0.00  0.00    +0.080 N 
ATOM     25  O   UNL     1       6.226  -6.383  26.993  0.00  0.00    +0.041 OA
ATOM     26  O   UNL     1       8.070  -5.325  26.458  0.00  0.00    -0.576 OA
ENDBRANCH  20  24
ENDBRANCH   6  18
TORSDOF 3
ENDMDL
MODEL 5
REMARK VINA RESULT:      -6.8      4.319      8.302
REMARK  Name = 
REMARK  4 active torsions:
REMARK  status: ('A' for Active; 'I' for Inactive)
REMARK    1  A    between atoms: C_1  and  C_2
REMARK    2  A    between atoms: C_3  and  C_8
REMARK    3  A    between atoms: N_11  and  C_12
REMARK    4  A    between atoms: C_16  and  N_18
REMARK                            x       y       z     vdW  Elec       q    Type
REMARK                         _______ _______ _______ _____ _____    ______ ____
ROOT
ATOM      1  C   UNL     1       8.804  -2.249  23.887  0.00  0.00    +0.084 A 
ATOM      2  C   UNL     1       9.782  -3.054  24.438  0.00  0.00    +0.049 A 
ATOM      3  C   UNL     1       9.407  -4.339  24.715  0.00  0.00    +0.116 A 
ATOM      4  N   UNL     1       8.170  -4.801  24.492  0.00  0.00    -0.223 NA
ATOM      5  C   UNL     1       7.264  -3.957  23.978  0.00  0.00    +0.220 A 
ATOM      6  N   UNL     1       5.947  -4.377  23.776  0.00  0.00    -0.283 N 
ATOM      7  H   UNL     1       5.425  -3.640  23.325  0.00  0.00    +0.155 HD
ATOM      8  N   UNL     1       7.549  -2.689  23.643  0.00  0.00    -0.214 NA
ENDROOT
BRANCH   1  17
ATOM      9  C   UNL     1       8.336   0.491  25.649  0.00  0.00    +0.067 C 
ATOM     10  C   UNL     1       8.853   0.328  24.263  0.00  0.00    +0.057 A 
ATOM     11  N   UNL     1       9.205   1.497  23.595  0.00  0.00    -0.230 NA
ATOM     12  C   UNL     1       9.633   1.226  22.391  0.00  0.00    +0.156 A 
ATOM     13  N   UNL     1      10.025   2.173  21.524  0.00  0.00    -0.338 N 
ATOM     14  H   UNL     1      10.194   3.090  21.919  0.00  0.00    +0.144 HD
ATOM     15  H   UNL     1      10.650   1.912  20.772  0.00  0.00    +0.144 HD
ATOM     16  S   UNL     1       9.683  -0.431  21.987  0.00  0.00    -0.051 S 
ATOM     17  C   UNL     1       9.051  -0.844  23.541  0.00  0.00    +0.062 A 
ENDBRANCH   1  17
BRANCH   6  18
ATOM     18  C   UNL     1       5.192  -5.351  24.452  0.00  0.00    +0.040 A 
ATOM     19  C   UNL     1       5.303  -5.587  25.828  0.00  0.00    +0.107 A 
ATOM     20  C   UNL     1       4.546  -6.587  26.454  0.00  0.00    +0.275 A 
ATOM     21  C   UNL     1       3.677  -7.391  25.711  0.00  0.00    +0.084 A 
ATOM     22  C   UNL     1       3.579  -7.188  24.336  0.00  0.00    +0.008 A 
ATOM     23  C   UNL     1       4.334  -6.185  23.715  0.00  0.00    +0.024 A 
BRANCH  20  24
ATOM     24  N   UNL     1       4.663  -6.777  27.903  0.00  0.00    +0.080 N 
ATOM     25  O   UNL     1       3.788  -6.287  28.630  0.00  0.00    +0.041 OA
ATOM     26  O   UNL     1       5.633  -7.430  28.319  0.00  0.00    -0.576 OA
ENDBRANCH  20  24
ENDBRANCH   6  18
TORSDOF 3
ENDMDL
MODEL 6
REMARK VINA RESULT:      -6.7      2.750      4.186
REMARK  Name = 
REMARK  4 active torsions:
REMARK  status: ('A' for Active; 'I' for Inactive)
REMARK    1  A    between atoms: C_1  and  C_2
REMARK    2  A    between atoms: C_3  and  C_8
REMARK    3  A    between atoms: N_11  and  C_12
REMARK    4  A    between atoms: C_16  and  N_18
REMARK                            x       y       z     vdW  Elec       q    Type
REMARK                         _______ _______ _______ _____ _____    ______ ____
ROOT
ATOM      1  C   UNL     1       8.911  -1.516  23.249  0.00  0.00    +0.084 A 
ATOM      2  C   UNL     1       8.877  -1.444  21.870  0.00  0.00    +0.049 A 
ATOM      3  C   UNL     1       9.391  -0.301  21.322  0.00  0.00    +0.116 A 
ATOM      4  N   UNL     1       9.883   0.703  22.060  0.00  0.00    -0.223 NA
ATOM      5  C   UNL     1       9.861   0.575  23.394  0.00  0.00    +0.220 A 
ATOM      6  N   UNL     1      10.314   1.616  24.207  0.00  0.00    -0.283 N 
ATOM      7  H   UNL     1      10.289   1.324  25.173  0.00  0.00    +0.155 HD
ATOM      8  N   UNL     1       9.409  -0.523  24.020  0.00  0.00    -0.214 NA
ENDROOT
BRANCH   1  17
ATOM      9  C   UNL     1       5.819  -2.567  23.655  0.00  0.00    +0.067 C 
ATOM     10  C   UNL     1       7.092  -3.133  24.178  0.00  0.00    +0.057 A 
ATOM     11  N   UNL     1       6.983  -4.285  24.950  0.00  0.00    -0.230 NA
ATOM     12  C   UNL     1       8.161  -4.678  25.356  0.00  0.00    +0.156 A 
ATOM     13  N   UNL     1       8.344  -5.758  26.131  0.00  0.00    -0.338 N 
ATOM     14  H   UNL     1       7.555  -6.391  26.200  0.00  0.00    +0.144 HD
ATOM     15  H   UNL     1       9.251  -6.208  26.128  0.00  0.00    +0.144 HD
ATOM     16  S   UNL     1       9.475  -3.733  24.816  0.00  0.00    -0.051 S 
ATOM     17  C   UNL     1       8.391  -2.675  23.984  0.00  0.00    +0.062 A 
ENDBRANCH   1  17
BRANCH   6  18
ATOM     18  C   UNL     1      10.338   3.003  23.977  0.00  0.00    +0.040 A 
ATOM     19  C   UNL     1       9.205   3.818  24.094  0.00  0.00    +0.107 A 
ATOM     20  C   UNL     1       9.272   5.193  23.831  0.00  0.00    +0.275 A 
ATOM     21  C   UNL     1      10.471   5.780  23.418  0.00  0.00    +0.084 A 
ATOM     22  C   UNL     1      11.600   4.977  23.267  0.00  0.00    +0.008 A 
ATOM     23  C   UNL     1      11.530   3.604  23.537  0.00  0.00    +0.024 A 
BRANCH  20  24
ATOM     24  N   UNL     1       8.072   6.018  24.002  0.00  0.00    +0.080 N 
ATOM     25  O   UNL     1       7.839   6.893  23.157  0.00  0.00    +0.041 OA
ATOM     26  O   UNL     1       7.351   5.785  24.985  0.00  0.00    -0.576 OA
ENDBRANCH  20  24
ENDBRANCH   6  18
TORSDOF 3
ENDMDL
MODEL 7
REMARK VINA RESULT:      -6.6      3.997      8.164
REMARK  Name = 
REMARK  4 active torsions:
REMARK  status: ('A' for Active; 'I' for Inactive)
REMARK    1  A    between atoms: C_1  and  C_2
REMARK    2  A    between atoms: C_3  and  C_8
REMARK    3  A    between atoms: N_11  and  C_12
REMARK    4  A    between atoms: C_16  and  N_18
REMARK                            x       y       z     vdW  Elec       q    Type
REMARK                         _______ _______ _______ _____ _____    ______ ____
ROOT
ATOM      1  C   UNL     1       8.640  -0.961  24.020  0.00  0.00    +0.084 A 
ATOM      2  C   UNL     1       9.788  -1.727  24.029  0.00  0.00    +0.049 A 
ATOM      3  C   UNL     1       9.599  -3.079  24.112  0.00  0.00    +0.116 A 
ATOM      4  N   UNL     1       8.386  -3.641  24.200  0.00  0.00    -0.223 NA
ATOM      5  C   UNL     1       7.316  -2.834  24.210  0.00  0.00    +0.220 A 
ATOM      6  N   UNL     1       6.034  -3.369  24.353  0.00  0.00    -0.283 N 
ATOM      7  H   UNL     1       5.350  -2.630  24.273  0.00  0.00    +0.155 HD
ATOM      8  N   UNL     1       7.402  -1.499  24.098  0.00  0.00    -0.214 NA
ENDROOT
BRANCH   1  17
ATOM      9  C   UNL     1       9.380   1.018  21.497  0.00  0.00    +0.067 C 
ATOM     10  C   UNL     1       8.997   1.360  22.893  0.00  0.00    +0.057 A 
ATOM     11  N   UNL     1       8.926   2.716  23.197  0.00  0.00    -0.230 NA
ATOM     12  C   UNL     1       8.591   2.889  24.448  0.00  0.00    +0.156 A 
ATOM     13  N   UNL     1       8.465   4.100  25.011  0.00  0.00    -0.338 N 
ATOM     14  H   UNL     1       8.414   4.882  24.368  0.00  0.00    +0.144 HD
ATOM     15  H   UNL     1       7.889   4.192  25.838  0.00  0.00    +0.144 HD
ATOM     16  S   UNL     1       8.299   1.458  25.332  0.00  0.00    -0.051 S 
ATOM     17  C   UNL     1       8.678   0.504  23.942  0.00  0.00    +0.062 A 
ENDBRANCH   1  17
BRANCH   6  18
ATOM     18  C   UNL     1       5.607  -4.544  24.996  0.00  0.00    +0.040 A 
ATOM     19  C   UNL     1       5.945  -4.859  26.317  0.00  0.00    +0.107 A 
ATOM     20  C   UNL     1       5.516  -6.056  26.908  0.00  0.00    +0.275 A 
ATOM     21  C   UNL     1       4.758  -6.977  26.180  0.00  0.00    +0.084 A 
ATOM     22  C   UNL     1       4.440  -6.691  24.853  0.00  0.00    +0.008 A 
ATOM     23  C   UNL     1       4.867  -5.492  24.268  0.00  0.00    +0.024 A 
BRANCH  20  24
ATOM     24  N   UNL     1       5.859  -6.331  28.307  0.00  0.00    +0.080 N 
ATOM     25  O   UNL     1       5.789  -7.501  28.706  0.00  0.00    +0.041 OA
ATOM     26  O   UNL     1       6.209  -5.371  29.011  0.00  0.00    -0.576 OA
ENDBRANCH  20  24
ENDBRANCH   6  18
TORSDOF 3
ENDMDL
MODEL 8
REMARK VINA RESULT:      -6.6      4.337      8.671
REMARK  Name = 
REMARK  4 active torsions:
REMARK  status: ('A' for Active; 'I' for Inactive)
REMARK    1  A    between atoms: C_1  and  C_2
REMARK    2  A    between atoms: C_3  and  C_8
REMARK    3  A    between atoms: N_11  and  C_12
REMARK    4  A    between atoms: C_16  and  N_18
REMARK                            x       y       z     vdW  Elec       q    Type
REMARK                         _______ _______ _______ _____ _____    ______ ____
ROOT
ATOM      1  C   UNL     1       8.751   1.026  22.683  0.00  0.00    +0.084 A 
ATOM      2  C   UNL     1       9.633   0.374  21.845  0.00  0.00    +0.049 A 
ATOM      3  C   UNL     1       9.414  -0.966  21.678  0.00  0.00    +0.116 A 
ATOM      4  N   UNL     1       8.424  -1.624  22.295  0.00  0.00    -0.223 NA
ATOM      5  C   UNL     1       7.621  -0.931  23.115  0.00  0.00    +0.220 A 
ATOM      6  N   UNL     1       6.607  -1.583  23.821  0.00  0.00    -0.283 N 
ATOM      7  H   UNL     1       6.063  -0.904  24.332  0.00  0.00    +0.155 HD
ATOM      8  N   UNL     1       7.738   0.391  23.314  0.00  0.00    -0.214 NA
ENDROOT
BRANCH   1  17
ATOM      9  C   UNL     1       6.593   3.462  22.197  0.00  0.00    +0.067 C 
ATOM     10  C   UNL     1       7.968   3.509  22.763  0.00  0.00    +0.057 A 
ATOM     11  N   UNL     1       8.428   4.760  23.162  0.00  0.00    -0.230 NA
ATOM     12  C   UNL     1       9.644   4.674  23.630  0.00  0.00    +0.156 A 
ATOM     13  N   UNL     1      10.335   5.737  24.072  0.00  0.00    -0.338 N 
ATOM     14  H   UNL     1       9.792   6.576  24.243  0.00  0.00    +0.144 HD
ATOM     15  H   UNL     1      11.096   5.584  24.721  0.00  0.00    +0.144 HD
ATOM     16  S   UNL     1      10.305   3.101  23.667  0.00  0.00    -0.051 S 
ATOM     17  C   UNL     1       8.860   2.462  22.968  0.00  0.00    +0.062 A 
ENDBRANCH   1  17
BRANCH   6  18
ATOM     18  C   UNL     1       6.525  -2.913  24.272  0.00  0.00    +0.040 A 
ATOM     19  C   UNL     1       5.641  -3.852  23.729  0.00  0.00    +0.107 A 
ATOM     20  C   UNL     1       5.578  -5.160  24.228  0.00  0.00    +0.275 A 
ATOM     21  C   UNL     1       6.383  -5.550  25.302  0.00  0.00    +0.084 A 
ATOM     22  C   UNL     1       7.245  -4.617  25.874  0.00  0.00    +0.008 A 
ATOM     23  C   UNL     1       7.309  -3.312  25.368  0.00  0.00    +0.024 A 
BRANCH  20  24
ATOM     24  N   UNL     1       4.666  -6.125  23.607  0.00  0.00    +0.080 N 
ATOM     25  O   UNL     1       4.048  -5.776  22.592  0.00  0.00    +0.041 OA
ATOM     26  O   UNL     1       4.571  -7.245  24.133  0.00  0.00    -0.576 OA
ENDBRANCH  20  24
ENDBRANCH   6  18
TORSDOF 3
ENDMDL
MODEL 9
REMARK VINA RESULT:      -6.5      1.743      2.284
REMARK  Name = 
REMARK  4 active torsions:
REMARK  status: ('A' for Active; 'I' for Inactive)
REMARK    1  A    between atoms: C_1  and  C_2
REMARK    2  A    between atoms: C_3  and  C_8
REMARK    3  A    between atoms: N_11  and  C_12
REMARK    4  A    between atoms: C_16  and  N_18
REMARK                            x       y       z     vdW  Elec       q    Type
REMARK                         _______ _______ _______ _____ _____    ______ ____
ROOT
ATOM      1  C   UNL     1       6.421  -3.871  24.516  0.00  0.00    +0.084 A 
ATOM      2  C   UNL     1       5.561  -3.686  23.452  0.00  0.00    +0.049 A 
ATOM      3  C   UNL     1       5.913  -2.705  22.567  0.00  0.00    +0.116 A 
ATOM      4  N   UNL     1       7.009  -1.950  22.715  0.00  0.00    -0.223 NA
ATOM      5  C   UNL     1       7.786  -2.168  23.785  0.00  0.00    +0.220 A 
ATOM      6  N   UNL     1       8.911  -1.372  24.011  0.00  0.00    -0.283 N 
ATOM      7  H   UNL     1       9.411  -1.717  24.818  0.00  0.00    +0.155 HD
ATOM      8  N   UNL     1       7.539  -3.130  24.688  0.00  0.00    -0.214 NA
ENDROOT
BRANCH   1  17
ATOM      9  C   UNL     1       4.688  -6.666  24.401  0.00  0.00    +0.067 C 
ATOM     10  C   UNL     1       5.441  -6.060  25.533  0.00  0.00    +0.057 A 
ATOM     11  N   UNL     1       5.431  -6.769  26.729  0.00  0.00    -0.230 NA
ATOM     12  C   UNL     1       6.115  -6.135  27.644  0.00  0.00    +0.156 A 
ATOM     13  N   UNL     1       6.257  -6.590  28.899  0.00  0.00    -0.338 N 
ATOM     14  H   UNL     1       6.006  -7.561  29.047  0.00  0.00    +0.144 HD
ATOM     15  H   UNL     1       7.046  -6.268  29.444  0.00  0.00    +0.144 HD
ATOM     16  S   UNL     1       6.846  -4.679  27.134  0.00  0.00    -0.051 S 
ATOM     17  C   UNL     1       6.175  -4.879  25.554  0.00  0.00    +0.062 A 
ENDBRANCH   1  17
BRANCH   6  18
ATOM     18  C   UNL     1       9.168  -0.039  23.643  0.00  0.00    +0.040 A 
ATOM     19  C   UNL     1       8.807   1.057  24.436  0.00  0.00    +0.107 A 
ATOM     20  C   UNL     1       9.063   2.369  24.015  0.00  0.00    +0.275 A 
ATOM     21  C   UNL     1       9.664   2.615  22.777  0.00  0.00    +0.084 A 
ATOM     22  C   UNL     1      10.000   1.535  21.964  0.00  0.00    +0.008 A 
ATOM     23  C   UNL     1       9.748   0.225  22.390  0.00  0.00    +0.024 A 
BRANCH  20  24
ATOM     24  N   UNL     1       8.705   3.489  24.892  0.00  0.00    +0.080 N 
ATOM     25  O   UNL     1       7.883   3.285  25.795  0.00  0.00    +0.041 OA
ATOM     26  O   UNL     1       9.255   4.581  24.680  0.00  0.00    -0.576 OA
ENDBRANCH  20  24
ENDBRANCH   6  18
TORSDOF 3
ENDMDL
