MODEL 1
REMARK VINA RESULT:      -7.2      0.000      0.000
REMARK  Name = 
REMARK  16 active torsions:
REMARK  status: ('A' for Active; 'I' for Inactive)
REMARK    1  A    between atoms: C_2  and  C_4
REMARK    2  A    between atoms: C_9  and  C_11
REMARK    3  A    between atoms: C_14  and  C_16
REMARK    4  A    between atoms: C_16  and  O_17
REMARK    5  A    between atoms: O_17  and  P_18
REMARK    6  A    between atoms: P_18  and  O_21
REMARK    7  A    between atoms: O_21  and  P_22
REMARK    8  A    between atoms: P_22  and  O_23
REMARK    9  A    between atoms: P_22  and  O_25
REMARK   10  A    between atoms: O_25  and  C_26
REMARK   11  A    between atoms: C_26  and  C_27
REMARK   12  A    between atoms: C_30  and  N_38
REMARK   13  A    between atoms: C_32  and  O_34
REMARK   14  A    between atoms: C_35  and  O_37
REMARK   15  A    between atoms: C_48  and  O_50
REMARK   16  A    between atoms: C_51  and  O_53
REMARK                            x       y       z     vdW  Elec       q    Type
REMARK                         _______ _______ _______ _____ _____    ______ ____
ROOT
ATOM      1  O   UNL     1       5.396  -6.740  26.428  0.00  0.00    -0.229 OA
ENDROOT
BRANCH   1   2
ATOM      2  P   UNL     1       4.423  -6.572  25.193  0.00  0.00    +0.222 P 
ATOM      3  O   UNL     1       5.168  -5.736  24.179  0.00  0.00    -0.437 OA
ATOM      4  O   UNL     1       3.818  -7.892  24.794  0.00  0.00    -0.517 OA
BRANCH   2   5
ATOM      5  O   UNL     1       3.158  -5.620  25.685  0.00  0.00    -0.324 OA
BRANCH   5   6
ATOM      6  C   UNL     1       3.263  -4.364  24.996  0.00  0.00    +0.202 C 
BRANCH   6  10
ATOM      7  C   UNL     1       3.951  -2.128  27.782  0.00  0.00    +0.185 C 
ATOM      8  C   UNL     1       2.431  -2.277  27.961  0.00  0.00    +0.179 C 
ATOM      9  C   UNL     1       1.913  -2.796  26.610  0.00  0.00    +0.177 C 
ATOM     10  C   UNL     1       3.173  -3.067  25.792  0.00  0.00    +0.176 C 
ATOM     11  O   UNL     1       4.263  -3.089  26.760  0.00  0.00    -0.361 OA
BRANCH   7  14
ATOM     12  C   UNL     1       6.355   0.597  26.592  0.00  0.00    +0.100 A 
ATOM     13  C   UNL     1       5.856  -0.677  26.862  0.00  0.00    +0.031 A 
ATOM     14  C   UNL     1       4.528  -0.824  27.269  0.00  0.00    +0.048 A 
ATOM     15  C   UNL     1       3.714   0.317  27.269  0.00  0.00    +0.313 A 
ATOM     16  N   UNL     1       4.215   1.522  26.975  0.00  0.00    -0.216 N 
ATOM     17  H   UNL     1       3.594   2.328  27.024  0.00  0.00    +0.452 HD
ATOM     18  C   UNL     1       5.505   1.695  26.638  0.00  0.00    +0.320 A 
BRANCH  12  22
ATOM     19  N   UNL     1       8.693  -0.017  26.781  0.00  0.00    -0.325 N 
ATOM     20  H   UNL     1       8.498  -0.722  27.482  0.00  0.00    +0.145 HD
ATOM     21  H   UNL     1       9.669   0.212  26.636  0.00  0.00    +0.145 HD
ATOM     22  C   UNL     1       7.771   0.852  26.277  0.00  0.00    +0.247 C 
ATOM     23  O   UNL     1       8.078   1.843  25.636  0.00  0.00    -0.270 OA
ENDBRANCH  12  22
ENDBRANCH   7  14
BRANCH   9  24
ATOM     24  O   UNL     1       1.153  -1.754  25.985  0.00  0.00    -0.386 OA
ATOM     25  H   UNL     1       0.901  -1.146  26.709  0.00  0.00    +0.210 HD
ENDBRANCH   9  24
BRANCH   8  26
ATOM     26  O   UNL     1       2.169  -3.225  29.007  0.00  0.00    -0.386 OA
ATOM     27  H   UNL     1       1.436  -2.885  29.553  0.00  0.00    +0.210 HD
ENDBRANCH   8  26
ENDBRANCH   6  10
ENDBRANCH   5   6
ENDBRANCH   2   5
ENDBRANCH   1   2
BRANCH   1  28
ATOM     28  P   UNL     1       5.592  -6.423  27.942  0.00  0.00    +0.480 P 
ATOM     29  O   UNL     1       5.575  -7.517  28.963  0.00  0.00    -0.227 OA
BRANCH  28  30
ATOM     30  O   UNL     1       4.392  -5.399  28.265  0.00  0.00    -0.302 OA
ATOM     31  H   UNL     1       3.854  -5.790  28.975  0.00  0.00    +0.222 HD
ENDBRANCH  28  30
BRANCH  28  32
ATOM     32  O   UNL     1       6.902  -5.454  28.070  0.00  0.00    -0.284 OA
BRANCH  32  33
ATOM     33  C   UNL     1       7.005  -4.427  27.089  0.00  0.00    +0.206 C 
BRANCH  33  34
ATOM     34  C   UNL     1       8.356  -4.254  26.373  0.00  0.00    +0.178 C 
ATOM     35  C   UNL     1       8.627  -5.192  25.200  0.00  0.00    +0.178 C 
ATOM     36  C   UNL     1       8.538  -4.322  23.949  0.00  0.00    +0.195 C 
ATOM     37  C   UNL     1       8.168  -2.935  24.487  0.00  0.00    +0.253 C 
ATOM     38  O   UNL     1       8.538  -2.916  25.876  0.00  0.00    -0.346 OA
BRANCH  37  39
ATOM     39  N   UNL     1       8.858  -1.866  23.783  0.00  0.00    -0.286 N 
ATOM     40  C   UNL     1       8.241  -0.778  23.226  0.00  0.00    +0.167 A 
ATOM     41  N   UNL     1       6.925  -0.505  23.209  0.00  0.00    -0.216 NA
ATOM     42  C   UNL     1       6.697   0.684  22.610  0.00  0.00    +0.225 A 
ATOM     43  N   UNL     1       7.591   1.530  22.049  0.00  0.00    -0.219 NA
ATOM     44  C   UNL     1       8.900   1.185  22.061  0.00  0.00    +0.147 A 
ATOM     45  N   UNL     1       9.818   2.057  21.485  0.00  0.00    -0.341 N 
ATOM     46  H   UNL     1      10.758   1.928  21.846  0.00  0.00    +0.144 HD
ATOM     47  H   UNL     1       9.461   3.003  21.453  0.00  0.00    +0.144 HD
ATOM     48  C   UNL     1       9.267  -0.019  22.687  0.00  0.00    +0.147 A 
ATOM     49  N   UNL     1      10.487  -0.626  22.903  0.00  0.00    -0.231 NA
ATOM     50  C   UNL     1      10.204  -1.726  23.570  0.00  0.00    +0.203 A 
ENDBRANCH  37  39
BRANCH  36  51
ATOM     51  O   UNL     1       7.568  -4.839  23.038  0.00  0.00    -0.385 OA
ATOM     52  H   UNL     1       8.052  -5.135  22.239  0.00  0.00    +0.210 HD
ENDBRANCH  36  51
BRANCH  35  53
ATOM     53  O   UNL     1       9.974  -5.700  25.318  0.00  0.00    -0.386 OA
ATOM     54  H   UNL     1      10.349  -5.399  26.167  0.00  0.00    +0.210 HD
ENDBRANCH  35  53
ENDBRANCH  33  34
ENDBRANCH  32  33
ENDBRANCH  28  32
ENDBRANCH   1  28
TORSDOF 16
ENDMDL
MODEL 2
REMARK VINA RESULT:      -7.1      2.503      5.634
REMARK  Name = 
REMARK  16 active torsions:
REMARK  status: ('A' for Active; 'I' for Inactive)
REMARK    1  A    between atoms: C_2  and  C_4
REMARK    2  A    between atoms: C_9  and  C_11
REMARK    3  A    between atoms: C_14  and  C_16
REMARK    4  A    between atoms: C_16  and  O_17
REMARK    5  A    between atoms: O_17  and  P_18
REMARK    6  A    between atoms: P_18  and  O_21
REMARK    7  A    between atoms: O_21  and  P_22
REMARK    8  A    between atoms: P_22  and  O_23
REMARK    9  A    between atoms: P_22  and  O_25
REMARK   10  A    between atoms: O_25  and  C_26
REMARK   11  A    between atoms: C_26  and  C_27
REMARK   12  A    between atoms: C_30  and  N_38
REMARK   13  A    between atoms: C_32  and  O_34
REMARK   14  A    between atoms: C_35  and  O_37
REMARK   15  A    between atoms: C_48  and  O_50
REMARK   16  A    between atoms: C_51  and  O_53
REMARK                            x       y       z     vdW  Elec       q    Type
REMARK                         _______ _______ _______ _____ _____    ______ ____
ROOT
ATOM      1  O   UNL     1       4.299  -4.403  24.935  0.00  0.00    -0.229 OA
ENDROOT
BRANCH   1   2
ATOM      2  P   UNL     1       4.234  -5.076  23.505  0.00  0.00    +0.222 P 
ATOM      3  O   UNL     1       5.014  -6.366  23.610  0.00  0.00    -0.437 OA
ATOM      4  O   UNL     1       2.827  -5.080  22.969  0.00  0.00    -0.517 OA
BRANCH   2   5
ATOM      5  O   UNL     1       5.115  -4.127  22.470  0.00  0.00    -0.324 OA
BRANCH   5   6
ATOM      6  C   UNL     1       6.496  -4.496  22.607  0.00  0.00    +0.202 C 
BRANCH   6  10
ATOM      7  C   UNL     1       9.631  -3.122  23.840  0.00  0.00    +0.185 C 
ATOM      8  C   UNL     1       9.289  -4.043  25.022  0.00  0.00    +0.179 C 
ATOM      9  C   UNL     1       7.785  -4.335  24.886  0.00  0.00    +0.177 C 
ATOM     10  C   UNL     1       7.389  -3.704  23.554  0.00  0.00    +0.176 C 
ATOM     11  O   UNL     1       8.644  -3.465  22.853  0.00  0.00    -0.361 OA
BRANCH   7  14
ATOM     12  C   UNL     1       9.392   0.625  23.118  0.00  0.00    +0.100 A 
ATOM     13  C   UNL     1       9.292  -0.751  22.920  0.00  0.00    +0.031 A 
ATOM     14  C   UNL     1       9.513  -1.619  23.992  0.00  0.00    +0.048 A 
ATOM     15  C   UNL     1       9.708  -1.055  25.260  0.00  0.00    +0.313 A 
ATOM     16  N   UNL     1       9.769   0.272  25.423  0.00  0.00    -0.216 N 
ATOM     17  H   UNL     1       9.951   0.635  26.358  0.00  0.00    +0.452 HD
ATOM     18  C   UNL     1       9.618   1.124  24.395  0.00  0.00    +0.320 A 
BRANCH  12  22
ATOM     19  N   UNL     1      10.325   2.482  21.869  0.00  0.00    -0.325 N 
ATOM     20  H   UNL     1      11.066   2.623  22.545  0.00  0.00    +0.145 HD
ATOM     21  H   UNL     1      10.213   3.206  21.170  0.00  0.00    +0.145 HD
ATOM     22  C   UNL     1       9.295   1.601  22.019  0.00  0.00    +0.247 C 
ATOM     23  O   UNL     1       8.293   1.632  21.325  0.00  0.00    -0.270 OA
ENDBRANCH  12  22
ENDBRANCH   7  14
BRANCH   9  24
ATOM     24  O   UNL     1       7.096  -3.672  25.954  0.00  0.00    -0.386 OA
ATOM     25  H   UNL     1       7.317  -2.724  25.856  0.00  0.00    +0.210 HD
ENDBRANCH   9  24
BRANCH   8  26
ATOM     26  O   UNL     1      10.055  -5.252  24.918  0.00  0.00    -0.386 OA
ATOM     27  H   UNL     1      10.865  -5.149  25.451  0.00  0.00    +0.210 HD
ENDBRANCH   8  26
ENDBRANCH   6  10
ENDBRANCH   5   6
ENDBRANCH   2   5
ENDBRANCH   1   2
BRANCH   1  28
ATOM     28  P   UNL     1       3.743  -3.247  25.819  0.00  0.00    +0.480 P 
ATOM     29  O   UNL     1       3.604  -3.412  27.300  0.00  0.00    -0.227 OA
BRANCH  28  30
ATOM     30  O   UNL     1       2.285  -2.970  25.194  0.00  0.00    -0.302 OA
ATOM     31  H   UNL     1       2.261  -3.376  24.310  0.00  0.00    +0.222 HD
ENDBRANCH  28  30
BRANCH  28  32
ATOM     32  O   UNL     1       4.548  -1.886  25.404  0.00  0.00    -0.284 OA
BRANCH  32  33
ATOM     33  C   UNL     1       4.914  -1.035  26.486  0.00  0.00    +0.206 C 
BRANCH  33  34
ATOM     34  C   UNL     1       4.543   0.455  26.382  0.00  0.00    +0.178 C 
ATOM     35  C   UNL     1       5.248   1.399  27.352  0.00  0.00    +0.178 C 
ATOM     36  C   UNL     1       6.227   2.205  26.503  0.00  0.00    +0.195 C 
ATOM     37  C   UNL     1       6.054   1.630  25.091  0.00  0.00    +0.253 C 
ATOM     38  O   UNL     1       4.772   0.979  25.062  0.00  0.00    -0.346 OA
BRANCH  37  39
ATOM     39  N   UNL     1       6.103   2.659  24.065  0.00  0.00    -0.286 N 
ATOM     40  C   UNL     1       7.055   3.640  23.992  0.00  0.00    +0.167 A 
ATOM     41  N   UNL     1       8.083   3.845  24.834  0.00  0.00    -0.216 NA
ATOM     42  C   UNL     1       8.840   4.881  24.412  0.00  0.00    +0.225 A 
ATOM     43  N   UNL     1       8.653   5.677  23.335  0.00  0.00    -0.219 NA
ATOM     44  C   UNL     1       7.579   5.448  22.544  0.00  0.00    +0.147 A 
ATOM     45  N   UNL     1       7.389   6.268  21.436  0.00  0.00    -0.341 N 
ATOM     46  H   UNL     1       6.820   5.829  20.720  0.00  0.00    +0.144 HD
ATOM     47  H   UNL     1       8.256   6.696  21.139  0.00  0.00    +0.144 HD
ATOM     48  C   UNL     1       6.731   4.374  22.863  0.00  0.00    +0.147 A 
ATOM     49  N   UNL     1       5.604   3.860  22.255  0.00  0.00    -0.231 NA
ATOM     50  C   UNL     1       5.260   2.828  22.998  0.00  0.00    +0.203 A 
ENDBRANCH  37  39
BRANCH  36  51
ATOM     51  O   UNL     1       7.560   2.069  26.995  0.00  0.00    -0.385 OA
ATOM     52  H   UNL     1       8.164   2.235  26.241  0.00  0.00    +0.210 HD
ENDBRANCH  36  51
BRANCH  35  53
ATOM     53  O   UNL     1       4.268   2.299  27.913  0.00  0.00    -0.386 OA
ATOM     54  H   UNL     1       4.682   3.174  28.036  0.00  0.00    +0.210 HD
ENDBRANCH  35  53
ENDBRANCH  33  34
ENDBRANCH  32  33
ENDBRANCH  28  32
ENDBRANCH   1  28
TORSDOF 16
ENDMDL
MODEL 3
REMARK VINA RESULT:      -7.1      2.892      5.275
REMARK  Name = 
REMARK  16 active torsions:
REMARK  status: ('A' for Active; 'I' for Inactive)
REMARK    1  A    between atoms: C_2  and  C_4
REMARK    2  A    between atoms: C_9  and  C_11
REMARK    3  A    between atoms: C_14  and  C_16
REMARK    4  A    between atoms: C_16  and  O_17
REMARK    5  A    between atoms: O_17  and  P_18
REMARK    6  A    between atoms: P_18  and  O_21
REMARK    7  A    between atoms: O_21  and  P_22
REMARK    8  A    between atoms: P_22  and  O_23
REMARK    9  A    between atoms: P_22  and  O_25
REMARK   10  A    between atoms: O_25  and  C_26
REMARK   11  A    between atoms: C_26  and  C_27
REMARK   12  A    between atoms: C_30  and  N_38
REMARK   13  A    between atoms: C_32  and  O_34
REMARK   14  A    between atoms: C_35  and  O_37
REMARK   15  A    between atoms: C_48  and  O_50
REMARK   16  A    between atoms: C_51  and  O_53
REMARK                            x       y       z     vdW  Elec       q    Type
REMARK                         _______ _______ _______ _____ _____    ______ ____
ROOT
ATOM      1  O   UNL     1       7.304  -5.113  24.949  0.00  0.00    -0.229 OA
ENDROOT
BRANCH   1   2
ATOM      2  P   UNL     1       7.516  -4.855  23.404  0.00  0.00    +0.222 P 
ATOM      3  O   UNL     1       8.363  -3.609  23.296  0.00  0.00    -0.437 OA
ATOM      4  O   UNL     1       7.926  -6.117  22.693  0.00  0.00    -0.517 OA
BRANCH   2   5
ATOM      5  O   UNL     1       6.046  -4.429  22.766  0.00  0.00    -0.324 OA
BRANCH   5   6
ATOM      6  C   UNL     1       5.278  -5.630  22.594  0.00  0.00    +0.202 C 
BRANCH   6  10
ATOM      7  C   UNL     1       3.223  -7.741  24.728  0.00  0.00    +0.185 C 
ATOM      8  C   UNL     1       2.152  -7.306  23.715  0.00  0.00    +0.179 C 
ATOM      9  C   UNL     1       2.726  -6.055  23.031  0.00  0.00    +0.177 C 
ATOM     10  C   UNL     1       4.149  -5.939  23.570  0.00  0.00    +0.176 C 
ATOM     11  O   UNL     1       4.444  -7.239  24.161  0.00  0.00    -0.361 OA
BRANCH   7  14
ATOM     12  C   UNL     1       4.225  -6.667  28.259  0.00  0.00    +0.100 A 
ATOM     13  C   UNL     1       4.349  -6.995  26.910  0.00  0.00    +0.031 A 
ATOM     14  C   UNL     1       3.200  -7.185  26.138  0.00  0.00    +0.048 A 
ATOM     15  C   UNL     1       1.960  -6.915  26.735  0.00  0.00    +0.313 A 
ATOM     16  N   UNL     1       1.875  -6.573  28.025  0.00  0.00    -0.216 N 
ATOM     17  H   UNL     1       0.950  -6.423  28.424  0.00  0.00    +0.452 HD
ATOM     18  C   UNL     1       2.965  -6.441  28.801  0.00  0.00    +0.320 A 
BRANCH  12  22
ATOM     19  N   UNL     1       5.480  -5.445  29.935  0.00  0.00    -0.325 N 
ATOM     20  H   UNL     1       4.920  -4.610  29.811  0.00  0.00    +0.145 HD
ATOM     21  H   UNL     1       6.319  -5.344  30.493  0.00  0.00    +0.145 HD
ATOM     22  C   UNL     1       5.378  -6.569  29.169  0.00  0.00    +0.247 C 
ATOM     23  O   UNL     1       6.222  -7.449  29.172  0.00  0.00    -0.270 OA
ENDBRANCH  12  22
ENDBRANCH   7  14
BRANCH   9  24
ATOM     24  O   UNL     1       1.962  -4.917  23.451  0.00  0.00    -0.386 OA
ATOM     25  H   UNL     1       2.542  -4.145  23.302  0.00  0.00    +0.210 HD
ENDBRANCH   9  24
BRANCH   8  26
ATOM     26  O   UNL     1       1.946  -8.360  22.763  0.00  0.00    -0.386 OA
ATOM     27  H   UNL     1       1.595  -9.137  23.235  0.00  0.00    +0.210 HD
ENDBRANCH   8  26
ENDBRANCH   6  10
ENDBRANCH   5   6
ENDBRANCH   2   5
ENDBRANCH   1   2
BRANCH   1  28
ATOM     28  P   UNL     1       7.664  -4.612  26.380  0.00  0.00    +0.480 P 
ATOM     29  O   UNL     1       8.814  -3.680  26.600  0.00  0.00    -0.227 OA
BRANCH  28  30
ATOM     30  O   UNL     1       7.944  -5.974  27.192  0.00  0.00    -0.302 OA
ATOM     31  H   UNL     1       8.035  -6.691  26.541  0.00  0.00    +0.222 HD
ENDBRANCH  28  30
BRANCH  28  32
ATOM     32  O   UNL     1       6.280  -4.087  27.075  0.00  0.00    -0.284 OA
BRANCH  32  33
ATOM     33  C   UNL     1       5.249  -3.699  26.172  0.00  0.00    +0.206 C 
BRANCH  33  34
ATOM     34  C   UNL     1       5.090  -2.198  25.869  0.00  0.00    +0.178 C 
ATOM     35  C   UNL     1       5.504  -1.236  26.978  0.00  0.00    +0.178 C 
ATOM     36  C   UNL     1       6.794  -0.580  26.494  0.00  0.00    +0.195 C 
ATOM     37  C   UNL     1       7.068  -1.253  25.143  0.00  0.00    +0.253 C 
ATOM     38  O   UNL     1       5.818  -1.804  24.693  0.00  0.00    -0.346 OA
BRANCH  37  39
ATOM     39  N   UNL     1       7.576  -0.319  24.151  0.00  0.00    -0.286 N 
ATOM     40  C   UNL     1       8.833   0.223  24.167  0.00  0.00    +0.167 A 
ATOM     41  N   UNL     1       9.800   0.018  25.077  0.00  0.00    -0.216 NA
ATOM     42  C   UNL     1      10.922   0.686  24.733  0.00  0.00    +0.225 A 
ATOM     43  N   UNL     1      11.128   1.496  23.670  0.00  0.00    -0.219 NA
ATOM     44  C   UNL     1      10.105   1.697  22.807  0.00  0.00    +0.147 A 
ATOM     45  N   UNL     1      10.319   2.529  21.712  0.00  0.00    -0.341 N 
ATOM     46  H   UNL     1       9.676   2.344  20.949  0.00  0.00    +0.144 HD
ATOM     47  H   UNL     1      11.302   2.594  21.483  0.00  0.00    +0.144 HD
ATOM     48  C   UNL     1       8.892   1.028  23.040  0.00  0.00    +0.147 A 
ATOM     49  N   UNL     1       7.699   0.985  22.349  0.00  0.00    -0.231 NA
ATOM     50  C   UNL     1       6.937   0.162  23.039  0.00  0.00    +0.203 A 
ENDBRANCH  37  39
BRANCH  36  51
ATOM     51  O   UNL     1       7.850  -0.777  27.434  0.00  0.00    -0.385 OA
ATOM     52  H   UNL     1       7.964   0.065  27.920  0.00  0.00    +0.210 HD
ENDBRANCH  36  51
BRANCH  35  53
ATOM     53  O   UNL     1       4.486  -0.219  27.109  0.00  0.00    -0.386 OA
ATOM     54  H   UNL     1       4.427   0.274  26.269  0.00  0.00    +0.210 HD
ENDBRANCH  35  53
ENDBRANCH  33  34
ENDBRANCH  32  33
ENDBRANCH  28  32
ENDBRANCH   1  28
TORSDOF 16
ENDMDL
MODEL 4
REMARK VINA RESULT:      -7.0      1.972      5.109
REMARK  Name = 
REMARK  16 active torsions:
REMARK  status: ('A' for Active; 'I' for Inactive)
REMARK    1  A    between atoms: C_2  and  C_4
REMARK    2  A    between atoms: C_9  and  C_11
REMARK    3  A    between atoms: C_14  and  C_16
REMARK    4  A    between atoms: C_16  and  O_17
REMARK    5  A    between atoms: O_17  and  P_18
REMARK    6  A    between atoms: P_18  and  O_21
REMARK    7  A    between atoms: O_21  and  P_22
REMARK    8  A    between atoms: P_22  and  O_23
REMARK    9  A    between atoms: P_22  and  O_25
REMARK   10  A    between atoms: O_25  and  C_26
REMARK   11  A    between atoms: C_26  and  C_27
REMARK   12  A    between atoms: C_30  and  N_38
REMARK   13  A    between atoms: C_32  and  O_34
REMARK   14  A    between atoms: C_35  and  O_37
REMARK   15  A    between atoms: C_48  and  O_50
REMARK   16  A    between atoms: C_51  and  O_53
REMARK                            x       y       z     vdW  Elec       q    Type
REMARK                         _______ _______ _______ _____ _____    ______ ____
ROOT
ATOM      1  O   UNL     1       5.062  -4.706  27.426  0.00  0.00    -0.229 OA
ENDROOT
BRANCH   1   2
ATOM      2  P   UNL     1       5.965  -5.782  28.152  0.00  0.00    +0.222 P 
ATOM      3  O   UNL     1       6.099  -5.324  29.585  0.00  0.00    -0.437 OA
ATOM      4  O   UNL     1       5.502  -7.180  27.841  0.00  0.00    -0.517 OA
BRANCH   2   5
ATOM      5  O   UNL     1       7.492  -5.655  27.519  0.00  0.00    -0.324 OA
BRANCH   5   6
ATOM      6  C   UNL     1       7.646  -4.320  27.012  0.00  0.00    +0.202 C 
BRANCH   6  10
ATOM      7  C   UNL     1       7.317  -3.379  23.513  0.00  0.00    +0.185 C 
ATOM      8  C   UNL     1       7.598  -4.880  23.335  0.00  0.00    +0.179 C 
ATOM      9  C   UNL     1       8.225  -5.336  24.663  0.00  0.00    +0.177 C 
ATOM     10  C   UNL     1       8.118  -4.118  25.577  0.00  0.00    +0.176 C 
ATOM     11  O   UNL     1       7.152  -3.237  24.934  0.00  0.00    -0.361 OA
BRANCH   7  14
ATOM     12  C   UNL     1       9.794  -0.468  23.628  0.00  0.00    +0.100 A 
ATOM     13  C   UNL     1       8.973  -1.502  24.076  0.00  0.00    +0.031 A 
ATOM     14  C   UNL     1       8.380  -2.362  23.148  0.00  0.00    +0.048 A 
ATOM     15  C   UNL     1       8.739  -2.218  21.801  0.00  0.00    +0.313 A 
ATOM     16  N   UNL     1       9.554  -1.234  21.405  0.00  0.00    -0.216 N 
ATOM     17  H   UNL     1       9.756  -1.146  20.411  0.00  0.00    +0.452 HD
ATOM     18  C   UNL     1      10.089  -0.359  22.274  0.00  0.00    +0.320 A 
BRANCH  12  22
ATOM     19  N   UNL     1      10.234   0.347  25.869  0.00  0.00    -0.325 N 
ATOM     20  H   UNL     1       9.648  -0.363  26.291  0.00  0.00    +0.145 HD
ATOM     21  H   UNL     1      10.545   1.093  26.479  0.00  0.00    +0.145 HD
ATOM     22  C   UNL     1      10.358   0.554  24.526  0.00  0.00    +0.247 C 
ATOM     23  O   UNL     1      10.860   1.561  24.056  0.00  0.00    -0.270 OA
ENDBRANCH  12  22
ENDBRANCH   7  14
BRANCH   9  24
ATOM     24  O   UNL     1       9.606  -5.641  24.432  0.00  0.00    -0.386 OA
ATOM     25  H   UNL     1       9.801  -6.410  25.003  0.00  0.00    +0.210 HD
ENDBRANCH   9  24
BRANCH   8  26
ATOM     26  O   UNL     1       6.362  -5.567  23.091  0.00  0.00    -0.386 OA
ATOM     27  H   UNL     1       5.643  -4.910  23.075  0.00  0.00    +0.210 HD
ENDBRANCH   8  26
ENDBRANCH   6  10
ENDBRANCH   5   6
ENDBRANCH   2   5
ENDBRANCH   1   2
BRANCH   1  28
ATOM     28  P   UNL     1       3.795  -4.502  26.541  0.00  0.00    +0.480 P 
ATOM     29  O   UNL     1       2.647  -5.459  26.613  0.00  0.00    -0.227 OA
BRANCH  28  30
ATOM     30  O   UNL     1       4.383  -4.516  25.042  0.00  0.00    -0.302 OA
ATOM     31  H   UNL     1       5.111  -3.872  25.005  0.00  0.00    +0.222 HD
ENDBRANCH  28  30
BRANCH  28  32
ATOM     32  O   UNL     1       3.333  -2.942  26.705  0.00  0.00    -0.284 OA
BRANCH  32  33
ATOM     33  C   UNL     1       4.098  -1.995  25.965  0.00  0.00    +0.206 C 
BRANCH  33  34
ATOM     34  C   UNL     1       4.469  -0.674  26.662  0.00  0.00    +0.178 C 
ATOM     35  C   UNL     1       5.530  -0.760  27.755  0.00  0.00    +0.178 C 
ATOM     36  C   UNL     1       6.776  -0.100  27.171  0.00  0.00    +0.195 C 
ATOM     37  C   UNL     1       6.361   0.281  25.745  0.00  0.00    +0.253 C 
ATOM     38  O   UNL     1       4.923   0.321  25.728  0.00  0.00    -0.346 OA
BRANCH  37  39
ATOM     39  N   UNL     1       6.890   1.573  25.340  0.00  0.00    -0.286 N 
ATOM     40  C   UNL     1       7.083   1.962  24.041  0.00  0.00    +0.167 A 
ATOM     41  N   UNL     1       6.843   1.245  22.930  0.00  0.00    -0.216 NA
ATOM     42  C   UNL     1       7.109   1.979  21.828  0.00  0.00    +0.225 A 
ATOM     43  N   UNL     1       7.583   3.243  21.752  0.00  0.00    -0.219 NA
ATOM     44  C   UNL     1       7.844   3.903  22.904  0.00  0.00    +0.147 A 
ATOM     45  N   UNL     1       8.331   5.204  22.824  0.00  0.00    -0.341 N 
ATOM     46  H   UNL     1       8.152   5.740  23.667  0.00  0.00    +0.144 HD
ATOM     47  H   UNL     1       8.089   5.636  21.942  0.00  0.00    +0.144 HD
ATOM     48  C   UNL     1       7.576   3.254  24.122  0.00  0.00    +0.147 A 
ATOM     49  N   UNL     1       7.689   3.651  25.438  0.00  0.00    -0.231 NA
ATOM     50  C   UNL     1       7.261   2.622  26.139  0.00  0.00    +0.203 A 
ENDBRANCH  37  39
BRANCH  36  51
ATOM     51  O   UNL     1       7.888  -0.996  27.201  0.00  0.00    -0.385 OA
ATOM     52  H   UNL     1       8.585  -0.609  26.631  0.00  0.00    +0.210 HD
ENDBRANCH  36  51
BRANCH  35  53
ATOM     53  O   UNL     1       5.085   0.013  28.891  0.00  0.00    -0.386 OA
ATOM     54  H   UNL     1       4.351  -0.461  29.324  0.00  0.00    +0.210 HD
ENDBRANCH  35  53
ENDBRANCH  33  34
ENDBRANCH  32  33
ENDBRANCH  28  32
ENDBRANCH   1  28
TORSDOF 16
ENDMDL
MODEL 5
REMARK VINA RESULT:      -7.0      3.290      5.522
REMARK  Name = 
REMARK  16 active torsions:
REMARK  status: ('A' for Active; 'I' for Inactive)
REMARK    1  A    between atoms: C_2  and  C_4
REMARK    2  A    between atoms: C_9  and  C_11
REMARK    3  A    between atoms: C_14  and  C_16
REMARK    4  A    between atoms: C_16  and  O_17
REMARK    5  A    between atoms: O_17  and  P_18
REMARK    6  A    between atoms: P_18  and  O_21
REMARK    7  A    between atoms: O_21  and  P_22
REMARK    8  A    between atoms: P_22  and  O_23
REMARK    9  A    between atoms: P_22  and  O_25
REMARK   10  A    between atoms: O_25  and  C_26
REMARK   11  A    between atoms: C_26  and  C_27
REMARK   12  A    between atoms: C_30  and  N_38
REMARK   13  A    between atoms: C_32  and  O_34
REMARK   14  A    between atoms: C_35  and  O_37
REMARK   15  A    between atoms: C_48  and  O_50
REMARK   16  A    between atoms: C_51  and  O_53
REMARK                            x       y       z     vdW  Elec       q    Type
REMARK                         _______ _______ _______ _____ _____    ______ ____
ROOT
ATOM      1  O   UNL     1       7.839  -4.956  23.826  0.00  0.00    -0.229 OA
ENDROOT
BRANCH   1   2
ATOM      2  P   UNL     1       7.233  -4.569  22.417  0.00  0.00    +0.222 P 
ATOM      3  O   UNL     1       7.938  -3.303  21.988  0.00  0.00    -0.437 OA
ATOM      4  O   UNL     1       7.186  -5.761  21.499  0.00  0.00    -0.517 OA
BRANCH   2   5
ATOM      5  O   UNL     1       5.657  -4.117  22.663  0.00  0.00    -0.324 OA
BRANCH   5   6
ATOM      6  C   UNL     1       4.833  -5.276  22.458  0.00  0.00    +0.202 C 
BRANCH   6  10
ATOM      7  C   UNL     1       3.418  -7.722  24.749  0.00  0.00    +0.185 C 
ATOM      8  C   UNL     1       2.143  -7.346  23.978  0.00  0.00    +0.179 C 
ATOM      9  C   UNL     1       2.458  -6.001  23.304  0.00  0.00    +0.177 C 
ATOM     10  C   UNL     1       3.938  -5.764  23.591  0.00  0.00    +0.176 C 
ATOM     11  O   UNL     1       4.460  -7.057  24.016  0.00  0.00    -0.361 OA
BRANCH   7  14
ATOM     12  C   UNL     1       4.952  -6.619  28.074  0.00  0.00    +0.100 A 
ATOM     13  C   UNL     1       4.829  -6.842  26.703  0.00  0.00    +0.031 A 
ATOM     14  C   UNL     1       3.602  -7.257  26.180  0.00  0.00    +0.048 A 
ATOM     15  C   UNL     1       2.506  -7.315  27.052  0.00  0.00    +0.313 A 
ATOM     16  N   UNL     1       2.649  -7.066  28.358  0.00  0.00    -0.216 N 
ATOM     17  H   UNL     1       1.831  -7.156  28.959  0.00  0.00    +0.452 HD
ATOM     18  C   UNL     1       3.833  -6.722  28.893  0.00  0.00    +0.320 A 
BRANCH  12  22
ATOM     19  N   UNL     1       7.334  -6.192  27.921  0.00  0.00    -0.325 N 
ATOM     20  H   UNL     1       7.368  -6.472  26.948  0.00  0.00    +0.145 HD
ATOM     21  H   UNL     1       8.226  -6.059  28.380  0.00  0.00    +0.145 HD
ATOM     22  C   UNL     1       6.235  -6.299  28.722  0.00  0.00    +0.247 C 
ATOM     23  O   UNL     1       6.290  -6.197  29.936  0.00  0.00    -0.270 OA
ENDBRANCH  12  22
ENDBRANCH   7  14
BRANCH   9  24
ATOM     24  O   UNL     1       1.678  -4.981  23.941  0.00  0.00    -0.386 OA
ATOM     25  H   UNL     1       0.751  -5.286  23.880  0.00  0.00    +0.210 HD
ENDBRANCH   9  24
BRANCH   8  26
ATOM     26  O   UNL     1       1.867  -8.357  22.998  0.00  0.00    -0.386 OA
ATOM     27  H   UNL     1       0.973  -8.205  22.642  0.00  0.00    +0.210 HD
ENDBRANCH   8  26
ENDBRANCH   6  10
ENDBRANCH   5   6
ENDBRANCH   2   5
ENDBRANCH   1   2
BRANCH   1  28
ATOM     28  P   UNL     1       8.926  -4.593  24.882  0.00  0.00    +0.480 P 
ATOM     29  O   UNL     1      10.177  -3.877  24.481  0.00  0.00    -0.227 OA
BRANCH  28  30
ATOM     30  O   UNL     1       9.328  -6.021  25.507  0.00  0.00    -0.302 OA
ATOM     31  H   UNL     1      10.297  -6.102  25.460  0.00  0.00    +0.222 HD
ENDBRANCH  28  30
BRANCH  28  32
ATOM     32  O   UNL     1       8.162  -3.881  26.141  0.00  0.00    -0.284 OA
BRANCH  32  33
ATOM     33  C   UNL     1       8.261  -2.461  26.195  0.00  0.00    +0.206 C 
BRANCH  33  34
ATOM     34  C   UNL     1       7.994  -1.676  24.898  0.00  0.00    +0.178 C 
ATOM     35  C   UNL     1       6.627  -1.010  24.777  0.00  0.00    +0.178 C 
ATOM     36  C   UNL     1       6.885   0.488  24.917  0.00  0.00    +0.195 C 
ATOM     37  C   UNL     1       8.396   0.583  25.161  0.00  0.00    +0.253 C 
ATOM     38  O   UNL     1       8.972  -0.644  24.680  0.00  0.00    -0.346 OA
BRANCH  37  39
ATOM     39  N   UNL     1       9.000   1.710  24.470  0.00  0.00    -0.286 N 
ATOM     40  C   UNL     1       8.766   3.024  24.776  0.00  0.00    +0.167 A 
ATOM     41  N   UNL     1       7.951   3.509  25.729  0.00  0.00    -0.216 NA
ATOM     42  C   UNL     1       8.017   4.857  25.765  0.00  0.00    +0.225 A 
ATOM     43  N   UNL     1       8.739   5.688  24.978  0.00  0.00    -0.219 NA
ATOM     44  C   UNL     1       9.512   5.145  24.009  0.00  0.00    +0.147 A 
ATOM     45  N   UNL     1      10.255   6.000  23.201  0.00  0.00    -0.341 N 
ATOM     46  H   UNL     1      11.054   5.540  22.777  0.00  0.00    +0.144 HD
ATOM     47  H   UNL     1      10.421   6.888  23.656  0.00  0.00    +0.144 HD
ATOM     48  C   UNL     1       9.553   3.745  23.892  0.00  0.00    +0.147 A 
ATOM     49  N   UNL     1      10.252   2.896  23.059  0.00  0.00    -0.231 NA
ATOM     50  C   UNL     1       9.902   1.685  23.440  0.00  0.00    +0.203 A 
ENDBRANCH  37  39
BRANCH  36  51
ATOM     51  O   UNL     1       6.117   1.040  25.986  0.00  0.00    -0.385 OA
ATOM     52  H   UNL     1       6.296   0.495  26.781  0.00  0.00    +0.210 HD
ENDBRANCH  36  51
BRANCH  35  53
ATOM     53  O   UNL     1       6.103  -1.270  23.457  0.00  0.00    -0.386 OA
ATOM     54  H   UNL     1       6.840  -1.527  22.872  0.00  0.00    +0.210 HD
ENDBRANCH  35  53
ENDBRANCH  33  34
ENDBRANCH  32  33
ENDBRANCH  28  32
ENDBRANCH   1  28
TORSDOF 16
ENDMDL
MODEL 6
REMARK VINA RESULT:      -6.9      2.533      6.003
REMARK  Name = 
REMARK  16 active torsions:
REMARK  status: ('A' for Active; 'I' for Inactive)
REMARK    1  A    between atoms: C_2  and  C_4
REMARK    2  A    between atoms: C_9  and  C_11
REMARK    3  A    between atoms: C_14  and  C_16
REMARK    4  A    between atoms: C_16  and  O_17
REMARK    5  A    between atoms: O_17  and  P_18
REMARK    6  A    between atoms: P_18  and  O_21
REMARK    7  A    between atoms: O_21  and  P_22
REMARK    8  A    between atoms: P_22  and  O_23
REMARK    9  A    between atoms: P_22  and  O_25
REMARK   10  A    between atoms: O_25  and  C_26
REMARK   11  A    between atoms: C_26  and  C_27
REMARK   12  A    between atoms: C_30  and  N_38
REMARK   13  A    between atoms: C_32  and  O_34
REMARK   14  A    between atoms: C_35  and  O_37
REMARK   15  A    between atoms: C_48  and  O_50
REMARK   16  A    between atoms: C_51  and  O_53
REMARK                            x       y       z     vdW  Elec       q    Type
REMARK                         _______ _______ _______ _____ _____    ______ ____
ROOT
ATOM      1  O   UNL     1       4.949  -5.345  22.544  0.00  0.00    -0.229 OA
ENDROOT
BRANCH   1   2
ATOM      2  P   UNL     1       6.099  -4.419  21.978  0.00  0.00    +0.222 P 
ATOM      3  O   UNL     1       7.249  -5.335  21.634  0.00  0.00    -0.437 OA
ATOM      4  O   UNL     1       5.564  -3.453  20.954  0.00  0.00    -0.517 OA
BRANCH   2   5
ATOM      5  O   UNL     1       6.653  -3.491  23.235  0.00  0.00    -0.324 OA
BRANCH   5   6
ATOM      6  C   UNL     1       6.425  -2.114  22.896  0.00  0.00    +0.202 C 
BRANCH   6  10
ATOM      7  C   UNL     1       8.941   0.326  21.921  0.00  0.00    +0.185 C 
ATOM      8  C   UNL     1       9.863  -0.737  22.542  0.00  0.00    +0.179 C 
ATOM      9  C   UNL     1       8.946  -1.605  23.418  0.00  0.00    +0.177 C 
ATOM     10  C   UNL     1       7.537  -1.097  23.125  0.00  0.00    +0.176 C 
ATOM     11  O   UNL     1       7.656  -0.317  21.900  0.00  0.00    -0.361 OA
BRANCH   7  14
ATOM     12  C   UNL     1       7.799   3.866  22.807  0.00  0.00    +0.100 A 
ATOM     13  C   UNL     1       7.815   2.616  22.192  0.00  0.00    +0.031 A 
ATOM     14  C   UNL     1       8.701   1.636  22.646  0.00  0.00    +0.048 A 
ATOM     15  C   UNL     1       9.457   1.918  23.792  0.00  0.00    +0.313 A 
ATOM     16  N   UNL     1       9.398   3.119  24.379  0.00  0.00    -0.216 N 
ATOM     17  H   UNL     1       9.993   3.291  25.187  0.00  0.00    +0.452 HD
ATOM     18  C   UNL     1       8.596   4.096  23.923  0.00  0.00    +0.320 A 
BRANCH  12  22
ATOM     19  N   UNL     1       7.618   5.943  21.568  0.00  0.00    -0.325 N 
ATOM     20  H   UNL     1       8.622   6.021  21.464  0.00  0.00    +0.145 HD
ATOM     21  H   UNL     1       7.075   6.757  21.307  0.00  0.00    +0.145 HD
ATOM     22  C   UNL     1       6.987   4.991  22.315  0.00  0.00    +0.247 C 
ATOM     23  O   UNL     1       5.811   5.070  22.628  0.00  0.00    -0.270 OA
ENDBRANCH  12  22
ENDBRANCH   7  14
BRANCH   9  24
ATOM     24  O   UNL     1       9.266  -1.359  24.794  0.00  0.00    -0.386 OA
ATOM     25  H   UNL     1      10.163  -0.969  24.786  0.00  0.00    +0.210 HD
ENDBRANCH   9  24
BRANCH   8  26
ATOM     26  O   UNL     1      10.458  -1.517  21.495  0.00  0.00    -0.386 OA
ATOM     27  H   UNL     1      10.560  -0.950  20.708  0.00  0.00    +0.210 HD
ENDBRANCH   8  26
ENDBRANCH   6  10
ENDBRANCH   5   6
ENDBRANCH   2   5
ENDBRANCH   1   2
BRANCH   1  28
ATOM     28  P   UNL     1       3.636  -5.368  23.384  0.00  0.00    +0.480 P 
ATOM     29  O   UNL     1       2.310  -5.597  22.729  0.00  0.00    -0.227 OA
BRANCH  28  30
ATOM     30  O   UNL     1       3.620  -3.920  24.087  0.00  0.00    -0.302 OA
ATOM     31  H   UNL     1       4.172  -3.973  24.886  0.00  0.00    +0.222 HD
ENDBRANCH  28  30
BRANCH  28  32
ATOM     32  O   UNL     1       3.893  -6.356  24.661  0.00  0.00    -0.284 OA
BRANCH  32  33
ATOM     33  C   UNL     1       5.237  -6.418  25.129  0.00  0.00    +0.206 C 
BRANCH  33  34
ATOM     34  C   UNL     1       5.526  -5.890  26.546  0.00  0.00    +0.178 C 
ATOM     35  C   UNL     1       6.984  -5.572  26.866  0.00  0.00    +0.178 C 
ATOM     36  C   UNL     1       7.066  -4.050  26.935  0.00  0.00    +0.195 C 
ATOM     37  C   UNL     1       5.644  -3.585  26.597  0.00  0.00    +0.253 C 
ATOM     38  O   UNL     1       4.773  -4.702  26.845  0.00  0.00    -0.346 OA
BRANCH  37  39
ATOM     39  N   UNL     1       5.226  -2.450  27.404  0.00  0.00    -0.286 N 
ATOM     40  C   UNL     1       5.722  -1.181  27.278  0.00  0.00    +0.167 A 
ATOM     41  N   UNL     1       6.670  -0.756  26.424  0.00  0.00    -0.216 NA
ATOM     42  C   UNL     1       6.863   0.574  26.557  0.00  0.00    +0.225 A 
ATOM     43  N   UNL     1       6.267   1.431  27.417  0.00  0.00    -0.219 NA
ATOM     44  C   UNL     1       5.348   0.939  28.281  0.00  0.00    +0.147 A 
ATOM     45  N   UNL     1       4.734   1.822  29.164  0.00  0.00    -0.341 N 
ATOM     46  H   UNL     1       3.839   1.480  29.498  0.00  0.00    +0.144 HD
ATOM     47  H   UNL     1       4.768   2.773  28.821  0.00  0.00    +0.144 HD
ATOM     48  C   UNL     1       5.036  -0.430  28.217  0.00  0.00    +0.147 A 
ATOM     49  N   UNL     1       4.140  -1.218  28.910  0.00  0.00    -0.231 NA
ATOM     50  C   UNL     1       4.276  -2.420  28.390  0.00  0.00    +0.203 A 
ENDBRANCH  37  39
BRANCH  36  51
ATOM     51  O   UNL     1       8.043  -3.550  26.021  0.00  0.00    -0.385 OA
ATOM     52  H   UNL     1       8.560  -4.319  25.703  0.00  0.00    +0.210 HD
ENDBRANCH  36  51
BRANCH  35  53
ATOM     53  O   UNL     1       7.299  -6.114  28.167  0.00  0.00    -0.386 OA
ATOM     54  H   UNL     1       6.515  -6.027  28.741  0.00  0.00    +0.210 HD
ENDBRANCH  35  53
ENDBRANCH  33  34
ENDBRANCH  32  33
ENDBRANCH  28  32
ENDBRANCH   1  28
TORSDOF 16
ENDMDL
MODEL 7
REMARK VINA RESULT:      -6.9      4.549      8.142
REMARK  Name = 
REMARK  16 active torsions:
REMARK  status: ('A' for Active; 'I' for Inactive)
REMARK    1  A    between atoms: C_2  and  C_4
REMARK    2  A    between atoms: C_9  and  C_11
REMARK    3  A    between atoms: C_14  and  C_16
REMARK    4  A    between atoms: C_16  and  O_17
REMARK    5  A    between atoms: O_17  and  P_18
REMARK    6  A    between atoms: P_18  and  O_21
REMARK    7  A    between atoms: O_21  and  P_22
REMARK    8  A    between atoms: P_22  and  O_23
REMARK    9  A    between atoms: P_22  and  O_25
REMARK   10  A    between atoms: O_25  and  C_26
REMARK   11  A    between atoms: C_26  and  C_27
REMARK   12  A    between atoms: C_30  and  N_38
REMARK   13  A    between atoms: C_32  and  O_34
REMARK   14  A    between atoms: C_35  and  O_37
REMARK   15  A    between atoms: C_48  and  O_50
REMARK   16  A    between atoms: C_51  and  O_53
REMARK                            x       y       z     vdW  Elec       q    Type
REMARK                         _______ _______ _______ _____ _____    ______ ____
ROOT
ATOM      1  O   UNL     1       8.666  -1.056  24.494  0.00  0.00    -0.229 OA
ENDROOT
BRANCH   1   2
ATOM      2  P   UNL     1       8.548   0.342  25.223  0.00  0.00    +0.222 P 
ATOM      3  O   UNL     1       8.310   0.038  26.684  0.00  0.00    -0.437 OA
ATOM      4  O   UNL     1       9.663   1.266  24.811  0.00  0.00    -0.517 OA
BRANCH   2   5
ATOM      5  O   UNL     1       7.146   1.057  24.702  0.00  0.00    -0.324 OA
BRANCH   5   6
ATOM      6  C   UNL     1       7.181   2.435  25.105  0.00  0.00    +0.202 C 
BRANCH   6  10
ATOM      7  C   UNL     1       7.972   5.713  23.738  0.00  0.00    +0.185 C 
ATOM      8  C   UNL     1       7.596   4.991  22.434  0.00  0.00    +0.179 C 
ATOM      9  C   UNL     1       7.694   3.491  22.759  0.00  0.00    +0.177 C 
ATOM     10  C   UNL     1       7.959   3.438  24.261  0.00  0.00    +0.176 C 
ATOM     11  O   UNL     1       7.618   4.765  24.759  0.00  0.00    -0.361 OA
BRANCH   7  14
ATOM     12  C   UNL     1      11.791   5.873  23.615  0.00  0.00    +0.100 A 
ATOM     13  C   UNL     1      10.477   5.691  23.184  0.00  0.00    +0.031 A 
ATOM     14  C   UNL     1       9.421   6.056  24.023  0.00  0.00    +0.048 A 
ATOM     15  C   UNL     1       9.734   6.708  25.224  0.00  0.00    +0.313 A 
ATOM     16  N   UNL     1      11.005   6.895  25.595  0.00  0.00    -0.216 N 
ATOM     17  H   UNL     1      11.184   7.340  26.495  0.00  0.00    +0.452 HD
ATOM     18  C   UNL     1      12.038   6.499  24.832  0.00  0.00    +0.320 A 
BRANCH  12  22
ATOM     19  N   UNL     1      12.903   5.519  21.490  0.00  0.00    -0.325 N 
ATOM     20  H   UNL     1      12.068   5.746  20.963  0.00  0.00    +0.145 HD
ATOM     21  H   UNL     1      13.669   5.117  20.964  0.00  0.00    +0.145 HD
ATOM     22  C   UNL     1      12.957   5.405  22.848  0.00  0.00    +0.247 C 
ATOM     23  O   UNL     1      13.896   4.888  23.430  0.00  0.00    -0.270 OA
ENDBRANCH  12  22
ENDBRANCH   7  14
BRANCH   9  24
ATOM     24  O   UNL     1       8.818   2.947  22.055  0.00  0.00    -0.386 OA
ATOM     25  H   UNL     1       8.437   2.396  21.342  0.00  0.00    +0.210 HD
ENDBRANCH   9  24
BRANCH   8  26
ATOM     26  O   UNL     1       6.256   5.348  22.065  0.00  0.00    -0.386 OA
ATOM     27  H   UNL     1       5.714   5.385  22.874  0.00  0.00    +0.210 HD
ENDBRANCH   8  26
ENDBRANCH   6  10
ENDBRANCH   5   6
ENDBRANCH   2   5
ENDBRANCH   1   2
BRANCH   1  28
ATOM     28  P   UNL     1       9.465  -1.869  23.432  0.00  0.00    +0.480 P 
ATOM     29  O   UNL     1      10.172  -3.134  23.806  0.00  0.00    -0.227 OA
BRANCH  28  30
ATOM     30  O   UNL     1      10.555  -0.811  22.897  0.00  0.00    -0.302 OA
ATOM     31  H   UNL     1      11.307  -0.824  23.514  0.00  0.00    +0.222 HD
ENDBRANCH  28  30
BRANCH  28  32
ATOM     32  O   UNL     1       8.499  -2.044  22.124  0.00  0.00    -0.284 OA
BRANCH  32  33
ATOM     33  C   UNL     1       7.100  -2.042  22.391  0.00  0.00    +0.206 C 
BRANCH  33  34
ATOM     34  C   UNL     1       6.362  -3.392  22.348  0.00  0.00    +0.178 C 
ATOM     35  C   UNL     1       7.231  -4.635  22.179  0.00  0.00    +0.178 C 
ATOM     36  C   UNL     1       7.198  -5.346  23.529  0.00  0.00    +0.195 C 
ATOM     37  C   UNL     1       6.342  -4.428  24.412  0.00  0.00    +0.253 C 
ATOM     38  O   UNL     1       5.562  -3.609  23.524  0.00  0.00    -0.346 OA
BRANCH  37  39
ATOM     39  N   UNL     1       5.459  -5.173  25.293  0.00  0.00    -0.286 N 
ATOM     40  C   UNL     1       5.838  -5.732  26.484  0.00  0.00    +0.167 A 
ATOM     41  N   UNL     1       7.061  -5.713  27.041  0.00  0.00    -0.216 NA
ATOM     42  C   UNL     1       7.041  -6.327  28.244  0.00  0.00    +0.225 A 
ATOM     43  N   UNL     1       6.002  -6.932  28.865  0.00  0.00    -0.219 NA
ATOM     44  C   UNL     1       4.803  -6.954  28.237  0.00  0.00    +0.147 A 
ATOM     45  N   UNL     1       3.735  -7.575  28.878  0.00  0.00    -0.341 N 
ATOM     46  H   UNL     1       2.835  -7.242  28.548  0.00  0.00    +0.144 HD
ATOM     47  H   UNL     1       3.875  -7.614  29.879  0.00  0.00    +0.144 HD
ATOM     48  C   UNL     1       4.689  -6.317  26.990  0.00  0.00    +0.147 A 
ATOM     49  N   UNL     1       3.627  -6.128  26.130  0.00  0.00    -0.231 NA
ATOM     50  C   UNL     1       4.123  -5.432  25.128  0.00  0.00    +0.203 A 
ENDBRANCH  37  39
BRANCH  36  51
ATOM     51  O   UNL     1       8.518  -5.529  24.041  0.00  0.00    -0.385 OA
ATOM     52  H   UNL     1       8.429  -5.927  24.932  0.00  0.00    +0.210 HD
ENDBRANCH  36  51
BRANCH  35  53
ATOM     53  O   UNL     1       6.622  -5.491  21.188  0.00  0.00    -0.386 OA
ATOM     54  H   UNL     1       7.295  -6.116  20.859  0.00  0.00    +0.210 HD
ENDBRANCH  35  53
ENDBRANCH  33  34
ENDBRANCH  32  33
ENDBRANCH  28  32
ENDBRANCH   1  28
TORSDOF 16
ENDMDL
MODEL 8
REMARK VINA RESULT:      -6.8      2.297      5.012
REMARK  Name = 
REMARK  16 active torsions:
REMARK  status: ('A' for Active; 'I' for Inactive)
REMARK    1  A    between atoms: C_2  and  C_4
REMARK    2  A    between atoms: C_9  and  C_11
REMARK    3  A    between atoms: C_14  and  C_16
REMARK    4  A    between atoms: C_16  and  O_17
REMARK    5  A    between atoms: O_17  and  P_18
REMARK    6  A    between atoms: P_18  and  O_21
REMARK    7  A    between atoms: O_21  and  P_22
REMARK    8  A    between atoms: P_22  and  O_23
REMARK    9  A    between atoms: P_22  and  O_25
REMARK   10  A    between atoms: O_25  and  C_26
REMARK   11  A    between atoms: C_26  and  C_27
REMARK   12  A    between atoms: C_30  and  N_38
REMARK   13  A    between atoms: C_32  and  O_34
REMARK   14  A    between atoms: C_35  and  O_37
REMARK   15  A    between atoms: C_48  and  O_50
REMARK   16  A    between atoms: C_51  and  O_53
REMARK                            x       y       z     vdW  Elec       q    Type
REMARK                         _______ _______ _______ _____ _____    ______ ____
ROOT
ATOM      1  O   UNL     1       6.911  -5.324  28.166  0.00  0.00    -0.229 OA
ENDROOT
BRANCH   1   2
ATOM      2  P   UNL     1       5.653  -6.014  28.830  0.00  0.00    +0.222 P 
ATOM      3  O   UNL     1       5.721  -7.474  28.446  0.00  0.00    -0.437 OA
ATOM      4  O   UNL     1       5.513  -5.614  30.274  0.00  0.00    -0.517 OA
BRANCH   2   5
ATOM      5  O   UNL     1       4.305  -5.433  28.061  0.00  0.00    -0.324 OA
BRANCH   5   6
ATOM      6  C   UNL     1       3.814  -6.468  27.195  0.00  0.00    +0.202 C 
BRANCH   6  10
ATOM      7  C   UNL     1       3.529  -4.718  24.018  0.00  0.00    +0.185 C 
ATOM      8  C   UNL     1       2.542  -5.866  23.751  0.00  0.00    +0.179 C 
ATOM      9  C   UNL     1       2.890  -6.948  24.786  0.00  0.00    +0.177 C 
ATOM     10  C   UNL     1       3.939  -6.299  25.685  0.00  0.00    +0.176 C 
ATOM     11  O   UNL     1       3.850  -4.870  25.411  0.00  0.00    -0.361 OA
BRANCH   7  14
ATOM     12  C   UNL     1       6.969  -3.662  22.726  0.00  0.00    +0.100 A 
ATOM     13  C   UNL     1       5.848  -3.724  23.551  0.00  0.00    +0.031 A 
ATOM     14  C   UNL     1       4.872  -4.696  23.317  0.00  0.00    +0.048 A 
ATOM     15  C   UNL     1       5.129  -5.654  22.326  0.00  0.00    +0.313 A 
ATOM     16  N   UNL     1       6.230  -5.586  21.570  0.00  0.00    -0.216 N 
ATOM     17  H   UNL     1       6.356  -6.283  20.837  0.00  0.00    +0.452 HD
ATOM     18  C   UNL     1       7.153  -4.624  21.739  0.00  0.00    +0.320 A 
BRANCH  12  22
ATOM     19  N   UNL     1       8.547  -2.381  24.049  0.00  0.00    -0.325 N 
ATOM     20  H   UNL     1       8.213  -2.782  24.918  0.00  0.00    +0.145 HD
ATOM     21  H   UNL     1       9.175  -1.592  24.132  0.00  0.00    +0.145 HD
ATOM     22  C   UNL     1       7.981  -2.597  22.827  0.00  0.00    +0.247 C 
ATOM     23  O   UNL     1       8.238  -1.914  21.850  0.00  0.00    -0.270 OA
ENDBRANCH  12  22
ENDBRANCH   7  14
BRANCH   9  24
ATOM     24  O   UNL     1       3.474  -8.063  24.099  0.00  0.00    -0.386 OA
ATOM     25  H   UNL     1       3.206  -7.960  23.164  0.00  0.00    +0.210 HD
ENDBRANCH   9  24
BRANCH   8  26
ATOM     26  O   UNL     1       1.201  -5.391  23.940  0.00  0.00    -0.386 OA
ATOM     27  H   UNL     1       0.692  -6.083  24.402  0.00  0.00    +0.210 HD
ENDBRANCH   8  26
ENDBRANCH   6  10
ENDBRANCH   5   6
ENDBRANCH   2   5
ENDBRANCH   1   2
BRANCH   1  28
ATOM     28  P   UNL     1       7.579  -4.938  26.811  0.00  0.00    +0.480 P 
ATOM     29  O   UNL     1       7.317  -5.735  25.572  0.00  0.00    -0.227 OA
BRANCH  28  30
ATOM     30  O   UNL     1       9.154  -5.003  27.141  0.00  0.00    -0.302 OA
ATOM     31  H   UNL     1       9.407  -4.154  27.542  0.00  0.00    +0.222 HD
ENDBRANCH  28  30
BRANCH  28  32
ATOM     32  O   UNL     1       7.349  -3.333  26.595  0.00  0.00    -0.284 OA
BRANCH  32  33
ATOM     33  C   UNL     1       6.092  -2.829  27.035  0.00  0.00    +0.206 C 
BRANCH  33  34
ATOM     34  C   UNL     1       5.548  -1.565  26.345  0.00  0.00    +0.178 C 
ATOM     35  C   UNL     1       4.843  -0.552  27.244  0.00  0.00    +0.178 C 
ATOM     36  C   UNL     1       5.790   0.641  27.340  0.00  0.00    +0.195 C 
ATOM     37  C   UNL     1       7.014   0.211  26.521  0.00  0.00    +0.253 C 
ATOM     38  O   UNL     1       6.577  -0.844  25.646  0.00  0.00    -0.346 OA
BRANCH  37  39
ATOM     39  N   UNL     1       7.565   1.302  25.735  0.00  0.00    -0.286 N 
ATOM     40  C   UNL     1       8.810   1.298  25.165  0.00  0.00    +0.167 A 
ATOM     41  N   UNL     1       9.735   0.326  25.233  0.00  0.00    -0.216 NA
ATOM     42  C   UNL     1      10.823   0.658  24.504  0.00  0.00    +0.225 A 
ATOM     43  N   UNL     1      11.055   1.792  23.805  0.00  0.00    -0.219 NA
ATOM     44  C   UNL     1      10.102   2.754  23.805  0.00  0.00    +0.147 A 
ATOM     45  N   UNL     1      10.341   3.919  23.083  0.00  0.00    -0.341 N 
ATOM     46  H   UNL     1       9.486   4.402  22.827  0.00  0.00    +0.144 HD
ATOM     47  H   UNL     1      11.024   3.769  22.352  0.00  0.00    +0.144 HD
ATOM     48  C   UNL     1       8.907   2.511  24.503  0.00  0.00    +0.147 A 
ATOM     49  N   UNL     1       7.751   3.247  24.663  0.00  0.00    -0.231 NA
ATOM     50  C   UNL     1       6.967   2.488  25.400  0.00  0.00    +0.203 A 
ENDBRANCH  37  39
BRANCH  36  51
ATOM     51  O   UNL     1       6.110   0.929  28.702  0.00  0.00    -0.385 OA
ATOM     52  H   UNL     1       5.273   0.885  29.210  0.00  0.00    +0.210 HD
ENDBRANCH  36  51
BRANCH  35  53
ATOM     53  O   UNL     1       3.625  -0.128  26.594  0.00  0.00    -0.386 OA
ATOM     54  H   UNL     1       3.823   0.646  26.033  0.00  0.00    +0.210 HD
ENDBRANCH  35  53
ENDBRANCH  33  34
ENDBRANCH  32  33
ENDBRANCH  28  32
ENDBRANCH   1  28
TORSDOF 16
ENDMDL
MODEL 9
REMARK VINA RESULT:      -6.8      2.263      4.171
REMARK  Name = 
REMARK  16 active torsions:
REMARK  status: ('A' for Active; 'I' for Inactive)
REMARK    1  A    between atoms: C_2  and  C_4
REMARK    2  A    between atoms: C_9  and  C_11
REMARK    3  A    between atoms: C_14  and  C_16
REMARK    4  A    between atoms: C_16  and  O_17
REMARK    5  A    between atoms: O_17  and  P_18
REMARK    6  A    between atoms: P_18  and  O_21
REMARK    7  A    between atoms: O_21  and  P_22
REMARK    8  A    between atoms: P_22  and  O_23
REMARK    9  A    between atoms: P_22  and  O_25
REMARK   10  A    between atoms: O_25  and  C_26
REMARK   11  A    between atoms: C_26  and  C_27
REMARK   12  A    between atoms: C_30  and  N_38
REMARK   13  A    between atoms: C_32  and  O_34
REMARK   14  A    between atoms: C_35  and  O_37
REMARK   15  A    between atoms: C_48  and  O_50
REMARK   16  A    between atoms: C_51  and  O_53
REMARK                            x       y       z     vdW  Elec       q    Type
REMARK                         _______ _______ _______ _____ _____    ______ ____
ROOT
ATOM      1  O   UNL     1       5.516  -3.769  26.560  0.00  0.00    -0.229 OA
ENDROOT
BRANCH   1   2
ATOM      2  P   UNL     1       4.399  -2.748  27.019  0.00  0.00    +0.222 P 
ATOM      3  O   UNL     1       3.596  -2.417  25.782  0.00  0.00    -0.437 OA
ATOM      4  O   UNL     1       3.708  -3.222  28.269  0.00  0.00    -0.517 OA
BRANCH   2   5
ATOM      5  O   UNL     1       5.159  -1.332  27.426  0.00  0.00    -0.324 OA
BRANCH   5   6
ATOM      6  C   UNL     1       4.421  -0.252  26.831  0.00  0.00    +0.202 C 
BRANCH   6  10
ATOM      7  C   UNL     1       7.331   1.797  26.080  0.00  0.00    +0.185 C 
ATOM      8  C   UNL     1       6.797   2.572  27.296  0.00  0.00    +0.179 C 
ATOM      9  C   UNL     1       5.332   2.130  27.445  0.00  0.00    +0.177 C 
ATOM     10  C   UNL     1       5.158   1.016  26.417  0.00  0.00    +0.176 C 
ATOM     11  O   UNL     1       6.511   0.617  26.049  0.00  0.00    -0.361 OA
BRANCH   7  14
ATOM     12  C   UNL     1       7.389   4.189  23.098  0.00  0.00    +0.100 A 
ATOM     13  C   UNL     1       7.720   3.636  24.334  0.00  0.00    +0.031 A 
ATOM     14  C   UNL     1       7.204   2.388  24.690  0.00  0.00    +0.048 A 
ATOM     15  C   UNL     1       6.466   1.686  23.727  0.00  0.00    +0.313 A 
ATOM     16  N   UNL     1       6.192   2.231  22.537  0.00  0.00    -0.216 N 
ATOM     17  H   UNL     1       5.621   1.698  21.882  0.00  0.00    +0.452 HD
ATOM     18  C   UNL     1       6.628   3.455  22.195  0.00  0.00    +0.320 A 
BRANCH  12  22
ATOM     19  N   UNL     1       7.410   5.973  21.456  0.00  0.00    -0.325 N 
ATOM     20  H   UNL     1       7.020   5.377  20.735  0.00  0.00    +0.145 HD
ATOM     21  H   UNL     1       7.762   6.872  21.151  0.00  0.00    +0.145 HD
ATOM     22  C   UNL     1       7.790   5.548  22.695  0.00  0.00    +0.247 C 
ATOM     23  O   UNL     1       8.482   6.220  23.441  0.00  0.00    -0.270 OA
ENDBRANCH  12  22
ENDBRANCH   7  14
BRANCH   9  24
ATOM     24  O   UNL     1       4.487   3.236  27.099  0.00  0.00    -0.386 OA
ATOM     25  H   UNL     1       4.704   3.939  27.743  0.00  0.00    +0.210 HD
ENDBRANCH   9  24
BRANCH   8  26
ATOM     26  O   UNL     1       7.559   2.214  28.457  0.00  0.00    -0.386 OA
ATOM     27  H   UNL     1       8.079   2.991  28.736  0.00  0.00    +0.210 HD
ENDBRANCH   8  26
ENDBRANCH   6  10
ENDBRANCH   5   6
ENDBRANCH   2   5
ENDBRANCH   1   2
BRANCH   1  28
ATOM     28  P   UNL     1       6.396  -4.973  27.012  0.00  0.00    +0.480 P 
ATOM     29  O   UNL     1       6.061  -6.369  26.590  0.00  0.00    -0.227 OA
BRANCH  28  30
ATOM     30  O   UNL     1       6.337  -4.894  28.619  0.00  0.00    -0.302 OA
ATOM     31  H   UNL     1       7.128  -4.414  28.920  0.00  0.00    +0.222 HD
ENDBRANCH  28  30
BRANCH  28  32
ATOM     32  O   UNL     1       7.954  -4.576  26.715  0.00  0.00    -0.284 OA
BRANCH  32  33
ATOM     33  C   UNL     1       8.662  -5.468  25.860  0.00  0.00    +0.206 C 
BRANCH  33  34
ATOM     34  C   UNL     1       8.752  -5.107  24.366  0.00  0.00    +0.178 C 
ATOM     35  C   UNL     1       7.450  -5.175  23.573  0.00  0.00    +0.178 C 
ATOM     36  C   UNL     1       7.070  -3.727  23.280  0.00  0.00    +0.195 C 
ATOM     37  C   UNL     1       8.165  -2.908  23.975  0.00  0.00    +0.253 C 
ATOM     38  O   UNL     1       9.287  -3.788  24.159  0.00  0.00    -0.346 OA
BRANCH  37  39
ATOM     39  N   UNL     1       8.573  -1.752  23.193  0.00  0.00    -0.286 N 
ATOM     40  C   UNL     1       9.311  -0.706  23.679  0.00  0.00    +0.167 A 
ATOM     41  N   UNL     1       9.771  -0.544  24.931  0.00  0.00    -0.216 NA
ATOM     42  C   UNL     1      10.501   0.589  25.023  0.00  0.00    +0.225 A 
ATOM     43  N   UNL     1      10.758   1.506  24.062  0.00  0.00    -0.219 NA
ATOM     44  C   UNL     1      10.236   1.309  22.829  0.00  0.00    +0.147 A 
ATOM     45  N   UNL     1      10.503   2.253  21.842  0.00  0.00    -0.341 N 
ATOM     46  H   UNL     1      10.409   1.874  20.905  0.00  0.00    +0.144 HD
ATOM     47  H   UNL     1      11.344   2.776  22.047  0.00  0.00    +0.144 HD
ATOM     48  C   UNL     1       9.482   0.146  22.600  0.00  0.00    +0.147 A 
ATOM     49  N   UNL     1       8.862  -0.360  21.476  0.00  0.00    -0.231 NA
ATOM     50  C   UNL     1       8.335  -1.503  21.867  0.00  0.00    +0.203 A 
ENDBRANCH  37  39
BRANCH  36  51
ATOM     51  O   UNL     1       5.763  -3.433  23.774  0.00  0.00    -0.385 OA
ATOM     52  H   UNL     1       5.126  -3.705  23.081  0.00  0.00    +0.210 HD
ENDBRANCH  36  51
BRANCH  35  53
ATOM     53  O   UNL     1       7.708  -5.851  22.322  0.00  0.00    -0.386 OA
ATOM     54  H   UNL     1       8.086  -5.209  21.692  0.00  0.00    +0.210 HD
ENDBRANCH  35  53
ENDBRANCH  33  34
ENDBRANCH  32  33
ENDBRANCH  28  32
ENDBRANCH   1  28
TORSDOF 16
ENDMDL
