MODEL 1
REMARK VINA RESULT:      -6.9      0.000      0.000
REMARK  Name = 
REMARK  2 active torsions:
REMARK  status: ('A' for Active; 'I' for Inactive)
REMARK    1  A    between atoms: C_1  and  C_2
REMARK    2  A    between atoms: C_8  and  C_16
REMARK                            x       y       z     vdW  Elec       q    Type
REMARK                         _______ _______ _______ _____ _____    ______ ____
ROOT
ATOM      1  C   UNL     1       4.111  -6.809  26.335  0.00  0.00    +0.088 C 
ATOM      2  C   UNL     1       5.437  -6.381  26.841  0.00  0.00    +0.135 A 
ATOM      3  N   UNL     1       6.403  -5.686  26.127  0.00  0.00    -0.275 N 
ATOM      4  C   UNL     1       7.358  -5.378  27.079  0.00  0.00    +0.160 A 
ATOM      5  C   UNL     1       8.629  -4.707  26.726  0.00  0.00    +0.218 C 
ATOM      6  N   UNL     1       8.409  -3.376  26.178  0.00  0.00    -0.275 NA
ATOM      7  C   UNL     1       7.846  -3.189  25.035  0.00  0.00    +0.077 C 
ATOM      8  C   UNL     1       7.240  -4.284  24.247  0.00  0.00    +0.033 A 
ATOM      9  C   UNL     1       7.215  -4.359  22.802  0.00  0.00    +0.035 A 
ATOM     10  C   UNL     1       6.422  -5.381  22.349  0.00  0.00    +0.058 A 
ATOM     11 BR   UNL     1       6.080  -5.706  20.536  0.00  0.00    -0.042 Br
ATOM     12  S   UNL     1       5.754  -6.299  23.597  0.00  0.00    -0.063 S 
ATOM     13  N   UNL     1       7.021  -5.880  28.245  0.00  0.00    -0.132 NA
ATOM     14  C   UNL     1       6.512  -5.341  24.776  0.00  0.00    +0.097 A 
ATOM     15  N   UNL     1       5.818  -6.507  28.097  0.00  0.00    -0.134 NA
ENDROOT
BRANCH   7  16
ATOM     16  C   UNL     1       7.745  -1.793  24.480  0.00  0.00    +0.019 A 
ATOM     17  C   UNL     1       8.737  -1.223  23.664  0.00  0.00    +0.050 A 
ATOM     18 CL   UNL     1      10.203  -2.021  23.214  0.00  0.00    -0.083 Cl
ATOM     19  C   UNL     1       8.543   0.056  23.118  0.00  0.00    +0.020 A 
ATOM     20  C   UNL     1       7.372   0.770  23.367  0.00  0.00    +0.001 A 
ATOM     21  C   UNL     1       6.401   0.231  24.202  0.00  0.00    +0.001 A 
ATOM     22  C   UNL     1       6.598  -1.026  24.776  0.00  0.00    +0.011 A 
ENDBRANCH   7  16
TORSDOF 1
ENDMDL
MODEL 2
REMARK VINA RESULT:      -6.6      3.490      6.290
REMARK  Name = 
REMARK  2 active torsions:
REMARK  status: ('A' for Active; 'I' for Inactive)
REMARK    1  A    between atoms: C_1  and  C_2
REMARK    2  A    between atoms: C_8  and  C_16
REMARK                            x       y       z     vdW  Elec       q    Type
REMARK                         _______ _______ _______ _____ _____    ______ ____
ROOT
ATOM      1  C   UNL     1       8.096   1.076  21.867  0.00  0.00    +0.088 C 
ATOM      2  C   UNL     1       8.950  -0.052  22.309  0.00  0.00    +0.135 A 
ATOM      3  N   UNL     1       8.620  -1.010  23.259  0.00  0.00    -0.275 N 
ATOM      4  C   UNL     1       9.655  -1.923  23.178  0.00  0.00    +0.160 A 
ATOM      5  C   UNL     1       9.753  -3.079  24.098  0.00  0.00    +0.218 C 
ATOM      6  N   UNL     1       8.626  -3.989  23.952  0.00  0.00    -0.275 NA
ATOM      7  C   UNL     1       7.429  -3.659  24.292  0.00  0.00    +0.077 C 
ATOM      8  C   UNL     1       7.059  -2.291  24.716  0.00  0.00    +0.033 A 
ATOM      9  C   UNL     1       6.050  -1.965  25.700  0.00  0.00    +0.035 A 
ATOM     10  C   UNL     1       5.789  -0.620  25.749  0.00  0.00    +0.058 A 
ATOM     11 BR   UNL     1       4.467   0.143  26.835  0.00  0.00    -0.042 Br
ATOM     12  S   UNL     1       6.760   0.278  24.701  0.00  0.00    -0.063 S 
ATOM     13  N   UNL     1      10.546  -1.531  22.298  0.00  0.00    -0.132 NA
ATOM     14  C   UNL     1       7.551  -1.121  24.154  0.00  0.00    +0.097 A 
ATOM     15  N   UNL     1      10.105  -0.360  21.752  0.00  0.00    -0.134 NA
ENDROOT
BRANCH   7  16
ATOM     16  C   UNL     1       6.328  -4.684  24.213  0.00  0.00    +0.019 A 
ATOM     17  C   UNL     1       6.002  -5.536  25.282  0.00  0.00    +0.050 A 
ATOM     18 CL   UNL     1       6.825  -5.548  26.802  0.00  0.00    -0.083 Cl
ATOM     19  C   UNL     1       4.915  -6.417  25.167  0.00  0.00    +0.020 A 
ATOM     20  C   UNL     1       4.143  -6.453  24.006  0.00  0.00    +0.001 A 
ATOM     21  C   UNL     1       4.480  -5.641  22.930  0.00  0.00    +0.001 A 
ATOM     22  C   UNL     1       5.578  -4.785  23.022  0.00  0.00    +0.011 A 
ENDBRANCH   7  16
TORSDOF 1
ENDMDL
MODEL 3
REMARK VINA RESULT:      -6.5      4.067      6.610
REMARK  Name = 
REMARK  2 active torsions:
REMARK  status: ('A' for Active; 'I' for Inactive)
REMARK    1  A    between atoms: C_1  and  C_2
REMARK    2  A    between atoms: C_8  and  C_16
REMARK                            x       y       z     vdW  Elec       q    Type
REMARK                         _______ _______ _______ _____ _____    ______ ____
ROOT
ATOM      1  C   UNL     1       6.831   2.750  22.355  0.00  0.00    +0.088 C 
ATOM      2  C   UNL     1       8.084   1.967  22.470  0.00  0.00    +0.135 A 
ATOM      3  N   UNL     1       8.225   0.726  23.079  0.00  0.00    -0.275 N 
ATOM      4  C   UNL     1       9.520   0.353  22.766  0.00  0.00    +0.160 A 
ATOM      5  C   UNL     1      10.127  -0.886  23.302  0.00  0.00    +0.218 C 
ATOM      6  N   UNL     1       9.424  -2.079  22.850  0.00  0.00    -0.275 NA
ATOM      7  C   UNL     1       8.225  -2.353  23.229  0.00  0.00    +0.077 C 
ATOM      8  C   UNL     1       7.400  -1.422  24.029  0.00  0.00    +0.033 A 
ATOM      9  C   UNL     1       6.429  -1.813  25.028  0.00  0.00    +0.035 A 
ATOM     10  C   UNL     1       5.680  -0.752  25.467  0.00  0.00    +0.058 A 
ATOM     11 BR   UNL     1       4.264  -0.911  26.682  0.00  0.00    -0.042 Br
ATOM     12  S   UNL     1       6.144   0.714  24.772  0.00  0.00    -0.063 S 
ATOM     13  N   UNL     1      10.116   1.297  22.076  0.00  0.00    -0.132 NA
ATOM     14  C   UNL     1       7.359  -0.045  23.860  0.00  0.00    +0.097 A 
ATOM     15  N   UNL     1       9.217   2.307  21.889  0.00  0.00    -0.134 NA
ENDROOT
BRANCH   7  16
ATOM     16  C   UNL     1       7.595  -3.655  22.808  0.00  0.00    +0.019 A 
ATOM     17  C   UNL     1       7.869  -4.876  23.448  0.00  0.00    +0.050 A 
ATOM     18 CL   UNL     1       8.970  -5.057  24.768  0.00  0.00    -0.083 Cl
ATOM     19  C   UNL     1       7.189  -6.039  23.053  0.00  0.00    +0.020 A 
ATOM     20  C   UNL     1       6.236  -6.000  22.037  0.00  0.00    +0.001 A 
ATOM     21  C   UNL     1       5.985  -4.806  21.373  0.00  0.00    +0.001 A 
ATOM     22  C   UNL     1       6.678  -3.650  21.736  0.00  0.00    +0.011 A 
ENDBRANCH   7  16
TORSDOF 1
ENDMDL
MODEL 4
REMARK VINA RESULT:      -6.5      3.881      6.700
REMARK  Name = 
REMARK  2 active torsions:
REMARK  status: ('A' for Active; 'I' for Inactive)
REMARK    1  A    between atoms: C_1  and  C_2
REMARK    2  A    between atoms: C_8  and  C_16
REMARK                            x       y       z     vdW  Elec       q    Type
REMARK                         _______ _______ _______ _____ _____    ______ ____
ROOT
ATOM      1  C   UNL     1       7.283   1.915  22.310  0.00  0.00    +0.088 C 
ATOM      2  C   UNL     1       8.335   0.871  22.278  0.00  0.00    +0.135 A 
ATOM      3  N   UNL     1       8.621  -0.038  23.288  0.00  0.00    -0.275 N 
ATOM      4  C   UNL     1       9.541  -0.893  22.710  0.00  0.00    +0.160 A 
ATOM      5  C   UNL     1      10.194  -1.976  23.479  0.00  0.00    +0.218 C 
ATOM      6  N   UNL     1       9.233  -2.958  23.961  0.00  0.00    -0.275 NA
ATOM      7  C   UNL     1       8.357  -2.677  24.861  0.00  0.00    +0.077 C 
ATOM      8  C   UNL     1       8.143  -1.307  25.376  0.00  0.00    +0.033 A 
ATOM      9  C   UNL     1       7.758  -0.974  26.731  0.00  0.00    +0.035 A 
ATOM     10  C   UNL     1       7.447   0.353  26.871  0.00  0.00    +0.058 A 
ATOM     11 BR   UNL     1       6.810   1.110  28.461  0.00  0.00    -0.042 Br
ATOM     12  S   UNL     1       7.663   1.234  25.448  0.00  0.00    -0.063 S 
ATOM     13  N   UNL     1       9.818  -0.510  21.485  0.00  0.00    -0.132 NA
ATOM     14  C   UNL     1       8.176  -0.151  24.609  0.00  0.00    +0.097 A 
ATOM     15  N   UNL     1       9.061   0.594  21.213  0.00  0.00    -0.134 NA
ENDROOT
BRANCH   7  16
ATOM     16  C   UNL     1       7.463  -3.767  25.391  0.00  0.00    +0.019 A 
ATOM     17  C   UNL     1       6.200  -4.050  24.844  0.00  0.00    +0.050 A 
ATOM     18 CL   UNL     1       5.493  -3.181  23.528  0.00  0.00    -0.083 Cl
ATOM     19  C   UNL     1       5.451  -5.129  25.338  0.00  0.00    +0.020 A 
ATOM     20  C   UNL     1       5.947  -5.935  26.362  0.00  0.00    +0.001 A 
ATOM     21  C   UNL     1       7.179  -5.642  26.934  0.00  0.00    +0.001 A 
ATOM     22  C   UNL     1       7.917  -4.551  26.472  0.00  0.00    +0.011 A 
ENDBRANCH   7  16
TORSDOF 1
ENDMDL
MODEL 5
REMARK VINA RESULT:      -6.4      3.154      4.442
REMARK  Name = 
REMARK  2 active torsions:
REMARK  status: ('A' for Active; 'I' for Inactive)
REMARK    1  A    between atoms: C_1  and  C_2
REMARK    2  A    between atoms: C_8  and  C_16
REMARK                            x       y       z     vdW  Elec       q    Type
REMARK                         _______ _______ _______ _____ _____    ______ ____
ROOT
ATOM      1  C   UNL     1       6.233  -4.417  26.928  0.00  0.00    +0.088 C 
ATOM      2  C   UNL     1       6.506  -4.416  25.470  0.00  0.00    +0.135 A 
ATOM      3  N   UNL     1       6.619  -3.296  24.657  0.00  0.00    -0.275 N 
ATOM      4  C   UNL     1       7.046  -3.811  23.447  0.00  0.00    +0.160 A 
ATOM      5  C   UNL     1       7.210  -2.959  22.248  0.00  0.00    +0.218 C 
ATOM      6  N   UNL     1       8.228  -1.936  22.439  0.00  0.00    -0.275 NA
ATOM      7  C   UNL     1       8.075  -0.961  23.266  0.00  0.00    +0.077 C 
ATOM      8  C   UNL     1       6.931  -0.868  24.199  0.00  0.00    +0.033 A 
ATOM      9  C   UNL     1       6.301   0.361  24.629  0.00  0.00    +0.035 A 
ATOM     10  C   UNL     1       5.397   0.155  25.638  0.00  0.00    +0.058 A 
ATOM     11 BR   UNL     1       4.474   1.536  26.504  0.00  0.00    -0.042 Br
ATOM     12  S   UNL     1       5.227  -1.473  26.049  0.00  0.00    -0.063 S 
ATOM     13  N   UNL     1       7.137  -5.119  23.511  0.00  0.00    -0.132 NA
ATOM     14  C   UNL     1       6.368  -1.938  24.881  0.00  0.00    +0.097 A 
ATOM     15  N   UNL     1       6.800  -5.498  24.778  0.00  0.00    -0.134 NA
ENDROOT
BRANCH   7  16
ATOM     16  C   UNL     1       9.122   0.119  23.338  0.00  0.00    +0.019 A 
ATOM     17  C   UNL     1       9.126   1.235  22.484  0.00  0.00    +0.050 A 
ATOM     18 CL   UNL     1       7.967   1.505  21.230  0.00  0.00    -0.083 Cl
ATOM     19  C   UNL     1      10.088   2.243  22.655  0.00  0.00    +0.020 A 
ATOM     20  C   UNL     1      11.038   2.158  23.672  0.00  0.00    +0.001 A 
ATOM     21  C   UNL     1      11.066   1.042  24.499  0.00  0.00    +0.001 A 
ATOM     22  C   UNL     1      10.135   0.018  24.316  0.00  0.00    +0.011 A 
ENDBRANCH   7  16
TORSDOF 1
ENDMDL
MODEL 6
REMARK VINA RESULT:      -6.3      3.136      4.292
REMARK  Name = 
REMARK  2 active torsions:
REMARK  status: ('A' for Active; 'I' for Inactive)
REMARK    1  A    between atoms: C_1  and  C_2
REMARK    2  A    between atoms: C_8  and  C_16
REMARK                            x       y       z     vdW  Elec       q    Type
REMARK                         _______ _______ _______ _____ _____    ______ ____
ROOT
ATOM      1  C   UNL     1       8.288  -4.901  26.735  0.00  0.00    +0.088 C 
ATOM      2  C   UNL     1       8.087  -4.737  25.275  0.00  0.00    +0.135 A 
ATOM      3  N   UNL     1       7.514  -3.641  24.643  0.00  0.00    -0.275 N 
ATOM      4  C   UNL     1       7.720  -3.893  23.299  0.00  0.00    +0.160 A 
ATOM      5  C   UNL     1       7.177  -3.007  22.244  0.00  0.00    +0.218 C 
ATOM      6  N   UNL     1       7.735  -1.665  22.319  0.00  0.00    -0.275 NA
ATOM      7  C   UNL     1       7.478  -0.868  23.296  0.00  0.00    +0.077 C 
ATOM      8  C   UNL     1       6.724  -1.284  24.498  0.00  0.00    +0.033 A 
ATOM      9  C   UNL     1       5.832  -0.437  25.261  0.00  0.00    +0.035 A 
ATOM     10  C   UNL     1       5.425  -1.030  26.428  0.00  0.00    +0.058 A 
ATOM     11 BR   UNL     1       4.351  -0.181  27.706  0.00  0.00    -0.042 Br
ATOM     12  S   UNL     1       6.021  -2.598  26.613  0.00  0.00    -0.063 S 
ATOM     13  N   UNL     1       8.318  -5.051  23.135  0.00  0.00    -0.132 NA
ATOM     14  C   UNL     1       6.844  -2.514  25.130  0.00  0.00    +0.097 A 
ATOM     15  N   UNL     1       8.549  -5.578  24.372  0.00  0.00    -0.134 NA
ENDROOT
BRANCH   7  16
ATOM     16  C   UNL     1       8.003   0.544  23.258  0.00  0.00    +0.019 A 
ATOM     17  C   UNL     1       9.099   0.970  24.026  0.00  0.00    +0.050 A 
ATOM     18 CL   UNL     1       9.969  -0.040  25.126  0.00  0.00    -0.083 Cl
ATOM     19  C   UNL     1       9.583   2.281  23.886  0.00  0.00    +0.020 A 
ATOM     20  C   UNL     1       8.995   3.167  22.985  0.00  0.00    +0.001 A 
ATOM     21  C   UNL     1       7.886   2.767  22.248  0.00  0.00    +0.001 A 
ATOM     22  C   UNL     1       7.378   1.477  22.404  0.00  0.00    +0.011 A 
ENDBRANCH   7  16
TORSDOF 1
ENDMDL
MODEL 7
REMARK VINA RESULT:      -6.2      3.102      4.372
REMARK  Name = 
REMARK  2 active torsions:
REMARK  status: ('A' for Active; 'I' for Inactive)
REMARK    1  A    between atoms: C_1  and  C_2
REMARK    2  A    between atoms: C_8  and  C_16
REMARK                            x       y       z     vdW  Elec       q    Type
REMARK                         _______ _______ _______ _____ _____    ______ ____
ROOT
ATOM      1  C   UNL     1       6.058  -4.240  27.224  0.00  0.00    +0.088 C 
ATOM      2  C   UNL     1       6.214  -4.307  25.751  0.00  0.00    +0.135 A 
ATOM      3  N   UNL     1       6.245  -3.227  24.879  0.00  0.00    -0.275 N 
ATOM      4  C   UNL     1       6.582  -3.796  23.664  0.00  0.00    +0.160 A 
ATOM      5  C   UNL     1       6.636  -3.002  22.416  0.00  0.00    +0.218 C 
ATOM      6  N   UNL     1       7.651  -1.960  22.476  0.00  0.00    -0.275 NA
ATOM      7  C   UNL     1       7.550  -0.948  23.264  0.00  0.00    +0.077 C 
ATOM      8  C   UNL     1       6.483  -0.822  24.281  0.00  0.00    +0.033 A 
ATOM      9  C   UNL     1       5.870   0.420  24.701  0.00  0.00    +0.035 A 
ATOM     10  C   UNL     1       5.053   0.254  25.789  0.00  0.00    +0.058 A 
ATOM     11 BR   UNL     1       4.181   1.665  26.659  0.00  0.00    -0.042 Br
ATOM     12  S   UNL     1       4.941  -1.354  26.289  0.00  0.00    -0.063 S 
ATOM     13  N   UNL     1       6.697  -5.099  23.783  0.00  0.00    -0.132 NA
ATOM     14  C   UNL     1       5.992  -1.863  25.056  0.00  0.00    +0.097 A 
ATOM     15  N   UNL     1       6.468  -5.419  25.090  0.00  0.00    -0.134 NA
ENDROOT
BRANCH   7  16
ATOM     16  C   UNL     1       8.583   0.147  23.200  0.00  0.00    +0.019 A 
ATOM     17  C   UNL     1       9.455   0.435  24.264  0.00  0.00    +0.050 A 
ATOM     18 CL   UNL     1       9.445  -0.392  25.781  0.00  0.00    -0.083 Cl
ATOM     19  C   UNL     1      10.444   1.419  24.109  0.00  0.00    +0.020 A 
ATOM     20  C   UNL     1      10.581   2.112  22.907  0.00  0.00    +0.001 A 
ATOM     21  C   UNL     1       9.701   1.861  21.862  0.00  0.00    +0.001 A 
ATOM     22  C   UNL     1       8.693   0.907  22.017  0.00  0.00    +0.011 A 
ENDBRANCH   7  16
TORSDOF 1
ENDMDL
MODEL 8
REMARK VINA RESULT:      -6.2      3.118      3.873
REMARK  Name = 
REMARK  2 active torsions:
REMARK  status: ('A' for Active; 'I' for Inactive)
REMARK    1  A    between atoms: C_1  and  C_2
REMARK    2  A    between atoms: C_8  and  C_16
REMARK                            x       y       z     vdW  Elec       q    Type
REMARK                         _______ _______ _______ _____ _____    ______ ____
ROOT
ATOM      1  C   UNL     1       4.729  -6.435  27.622  0.00  0.00    +0.088 C 
ATOM      2  C   UNL     1       4.617  -6.468  26.145  0.00  0.00    +0.135 A 
ATOM      3  N   UNL     1       4.849  -5.408  25.279  0.00  0.00    -0.275 N 
ATOM      4  C   UNL     1       4.789  -5.988  24.025  0.00  0.00    +0.160 A 
ATOM      5  C   UNL     1       4.892  -5.185  22.786  0.00  0.00    +0.218 C 
ATOM      6  N   UNL     1       6.181  -4.518  22.673  0.00  0.00    -0.275 NA
ATOM      7  C   UNL     1       6.534  -3.568  23.467  0.00  0.00    +0.077 C 
ATOM      8  C   UNL     1       5.740  -3.170  24.649  0.00  0.00    +0.033 A 
ATOM      9  C   UNL     1       5.628  -1.822  25.166  0.00  0.00    +0.035 A 
ATOM     10  C   UNL     1       4.986  -1.782  26.376  0.00  0.00    +0.058 A 
ATOM     11 BR   UNL     1       4.758  -0.218  27.380  0.00  0.00    -0.042 Br
ATOM     12  S   UNL     1       4.451  -3.298  26.888  0.00  0.00    -0.063 S 
ATOM     13  N   UNL     1       4.503  -7.266  24.123  0.00  0.00    -0.132 NA
ATOM     14  C   UNL     1       5.074  -4.045  25.496  0.00  0.00    +0.097 A 
ATOM     15  N   UNL     1       4.396  -7.567  25.451  0.00  0.00    -0.134 NA
ENDROOT
BRANCH   7  16
ATOM     16  C   UNL     1       7.836  -2.850  23.229  0.00  0.00    +0.019 A 
ATOM     17  C   UNL     1       8.981  -3.068  24.014  0.00  0.00    +0.050 A 
ATOM     18 CL   UNL     1       9.047  -4.150  25.360  0.00  0.00    -0.083 Cl
ATOM     19  C   UNL     1      10.184  -2.420  23.690  0.00  0.00    +0.020 A 
ATOM     20  C   UNL     1      10.263  -1.567  22.590  0.00  0.00    +0.001 A 
ATOM     21  C   UNL     1       9.128  -1.317  21.829  0.00  0.00    +0.001 A 
ATOM     22  C   UNL     1       7.919  -1.930  22.162  0.00  0.00    +0.011 A 
ENDBRANCH   7  16
TORSDOF 1
ENDMDL
MODEL 9
REMARK VINA RESULT:      -6.2      4.395      6.995
REMARK  Name = 
REMARK  2 active torsions:
REMARK  status: ('A' for Active; 'I' for Inactive)
REMARK    1  A    between atoms: C_1  and  C_2
REMARK    2  A    between atoms: C_8  and  C_16
REMARK                            x       y       z     vdW  Elec       q    Type
REMARK                         _______ _______ _______ _____ _____    ______ ____
ROOT
ATOM      1  C   UNL     1       7.005   3.651  23.852  0.00  0.00    +0.088 C 
ATOM      2  C   UNL     1       8.345   3.026  23.963  0.00  0.00    +0.135 A 
ATOM      3  N   UNL     1       8.644   1.831  24.604  0.00  0.00    -0.275 N 
ATOM      4  C   UNL     1       9.968   1.604  24.275  0.00  0.00    +0.160 A 
ATOM      5  C   UNL     1      10.728   0.463  24.833  0.00  0.00    +0.218 C 
ATOM      6  N   UNL     1      10.164  -0.818  24.431  0.00  0.00    -0.275 NA
ATOM      7  C   UNL     1       9.013  -1.221  24.843  0.00  0.00    +0.077 C 
ATOM      8  C   UNL     1       8.097  -0.370  25.633  0.00  0.00    +0.033 A 
ATOM      9  C   UNL     1       7.197  -0.842  26.663  0.00  0.00    +0.035 A 
ATOM     10  C   UNL     1       6.336   0.136  27.087  0.00  0.00    +0.058 A 
ATOM     11 BR   UNL     1       4.970  -0.152  28.337  0.00  0.00    -0.042 Br
ATOM     12  S   UNL     1       6.609   1.624  26.340  0.00  0.00    -0.063 S 
ATOM     13  N   UNL     1      10.435   2.590  23.545  0.00  0.00    -0.132 NA
ATOM     14  C   UNL     1       7.889   0.987  25.425  0.00  0.00    +0.097 A 
ATOM     15  N   UNL     1       9.419   3.480  23.348  0.00  0.00    -0.134 NA
ENDROOT
BRANCH   7  16
ATOM     16  C   UNL     1       8.536  -2.601  24.473  0.00  0.00    +0.019 A 
ATOM     17  C   UNL     1       7.508  -2.828  23.543  0.00  0.00    +0.050 A 
ATOM     18 CL   UNL     1       6.639  -1.576  22.728  0.00  0.00    -0.083 Cl
ATOM     19  C   UNL     1       7.164  -4.142  23.189  0.00  0.00    +0.020 A 
ATOM     20  C   UNL     1       7.837  -5.231  23.742  0.00  0.00    +0.001 A 
ATOM     21  C   UNL     1       8.830  -5.018  24.690  0.00  0.00    +0.001 A 
ATOM     22  C   UNL     1       9.158  -3.717  25.073  0.00  0.00    +0.011 A 
ENDBRANCH   7  16
TORSDOF 1
ENDMDL
