MODEL 1
REMARK VINA RESULT:      -6.9      0.000      0.000
REMARK  Name = 
REMARK  3 active torsions:
REMARK  status: ('A' for Active; 'I' for Inactive)
REMARK    1  A    between atoms: N_1  and  C_2
REMARK    2  A    between atoms: C_6  and  C_8
REMARK    3  A    between atoms: N_12  and  C_13
REMARK                            x       y       z     vdW  Elec       q    Type
REMARK                         _______ _______ _______ _____ _____    ______ ____
ROOT
ATOM      1  C   UNL     1       5.846  -5.061  25.975  0.00  0.00    +0.046 A 
ATOM      2  C   UNL     1       6.110  -5.698  27.209  0.00  0.00    +0.145 A 
ATOM      3  N   UNL     1       7.403  -5.704  27.535  0.00  0.00    -0.173 NA
ATOM      4  N   UNL     1       8.005  -5.085  26.492  0.00  0.00    -0.221 N 
ATOM      5  C   UNL     1       9.366  -4.943  26.269  0.00  0.00    +0.118 A 
ATOM      6  C   UNL     1       9.808  -4.289  25.187  0.00  0.00    +0.063 A 
ATOM      7  C   UNL     1       8.767  -3.646  24.301  0.00  0.00    +0.127 A 
ATOM      8  N   UNL     1       9.227  -2.854  23.262  0.00  0.00    -0.299 N 
ATOM      9  H   UNL     1      10.214  -2.936  23.051  0.00  0.00    +0.154 HD
ATOM     10  N   UNL     1       7.484  -3.838  24.494  0.00  0.00    -0.212 NA
ATOM     11  C   UNL     1       7.084  -4.594  25.566  0.00  0.00    +0.165 A 
ENDROOT
BRANCH   8  12
ATOM     12  C   UNL     1       8.751  -1.558  22.940  0.00  0.00    +0.034 A 
ATOM     13  C   UNL     1       7.680  -0.933  23.593  0.00  0.00    +0.043 A 
ATOM     14  C   UNL     1       7.283   0.358  23.238  0.00  0.00    +0.043 A 
ATOM     15 CL   UNL     1       6.007   1.128  24.101  0.00  0.00    -0.083 Cl
ATOM     16  C   UNL     1       7.920   1.039  22.205  0.00  0.00    +0.020 A 
ATOM     17  C   UNL     1       8.948   0.414  21.505  0.00  0.00    +0.003 A 
ATOM     18  C   UNL     1       9.351  -0.875  21.865  0.00  0.00    +0.023 A 
ENDBRANCH   8  12
BRANCH   1  21
ATOM     19  C   UNL     1       3.018  -5.758  23.567  0.00  0.00    +0.025 A 
ATOM     20  C   UNL     1       4.230  -5.858  24.257  0.00  0.00    +0.031 A 
ATOM     21  C   UNL     1       4.594  -4.926  25.245  0.00  0.00    -0.011 A 
ATOM     22  C   UNL     1       3.688  -3.908  25.566  0.00  0.00    +0.009 A 
ATOM     23  C   UNL     1       2.448  -3.838  24.929  0.00  0.00    +0.002 A 
ATOM     24  C   UNL     1       2.108  -4.773  23.951  0.00  0.00    +0.023 A 
BRANCH  19  25
ATOM     25  N   UNL     1       2.630  -6.775  22.681  0.00  0.00    -0.358 N 
ATOM     26  H   UNL     1       1.626  -6.792  22.521  0.00  0.00    +0.142 HD
ATOM     27  H   UNL     1       2.991  -7.688  22.935  0.00  0.00    +0.142 HD
ENDBRANCH  19  25
ENDBRANCH   1  21
TORSDOF 3
ENDMDL
MODEL 2
REMARK VINA RESULT:      -6.9      5.865     10.043
REMARK  Name = 
REMARK  3 active torsions:
REMARK  status: ('A' for Active; 'I' for Inactive)
REMARK    1  A    between atoms: N_1  and  C_2
REMARK    2  A    between atoms: C_6  and  C_8
REMARK    3  A    between atoms: N_12  and  C_13
REMARK                            x       y       z     vdW  Elec       q    Type
REMARK                         _______ _______ _______ _____ _____    ______ ____
ROOT
ATOM      1  C   UNL     1       8.240   5.912  24.404  0.00  0.00    +0.046 A 
ATOM      2  C   UNL     1       7.164   6.703  24.866  0.00  0.00    +0.145 A 
ATOM      3  N   UNL     1       5.974   6.278  24.442  0.00  0.00    -0.173 NA
ATOM      4  N   UNL     1       6.267   5.205  23.670  0.00  0.00    -0.221 N 
ATOM      5  C   UNL     1       5.394   4.470  22.882  0.00  0.00    +0.118 A 
ATOM      6  C   UNL     1       5.839   3.421  22.180  0.00  0.00    +0.063 A 
ATOM      7  C   UNL     1       7.288   3.034  22.367  0.00  0.00    +0.127 A 
ATOM      8  N   UNL     1       7.713   1.868  21.751  0.00  0.00    -0.299 N 
ATOM      9  H   UNL     1       7.082   1.483  21.058  0.00  0.00    +0.154 HD
ATOM     10  N   UNL     1       8.113   3.773  23.070  0.00  0.00    -0.212 NA
ATOM     11  C   UNL     1       7.627   4.891  23.696  0.00  0.00    +0.165 A 
ENDROOT
BRANCH   8  12
ATOM     12  C   UNL     1       8.474   0.842  22.364  0.00  0.00    +0.034 A 
ATOM     13  C   UNL     1       8.403   0.522  23.726  0.00  0.00    +0.043 A 
ATOM     14  C   UNL     1       9.164  -0.522  24.256  0.00  0.00    +0.043 A 
ATOM     15 CL   UNL     1       9.008  -0.936  25.920  0.00  0.00    -0.083 Cl
ATOM     16  C   UNL     1      10.037  -1.245  23.449  0.00  0.00    +0.020 A 
ATOM     17  C   UNL     1      10.165  -0.908  22.104  0.00  0.00    +0.003 A 
ATOM     18  C   UNL     1       9.398   0.132  21.573  0.00  0.00    +0.023 A 
ENDBRANCH   8  12
BRANCH   1  21
ATOM     19  C   UNL     1      11.962   5.780  23.766  0.00  0.00    +0.025 A 
ATOM     20  C   UNL     1      10.584   5.588  23.632  0.00  0.00    +0.031 A 
ATOM     21  C   UNL     1       9.674   6.096  24.575  0.00  0.00    -0.011 A 
ATOM     22  C   UNL     1      10.173   6.851  25.643  0.00  0.00    +0.009 A 
ATOM     23  C   UNL     1      11.542   7.104  25.751  0.00  0.00    +0.002 A 
ATOM     24  C   UNL     1      12.427   6.589  24.803  0.00  0.00    +0.023 A 
BRANCH  19  25
ATOM     25  N   UNL     1      12.831   5.372  22.743  0.00  0.00    -0.358 N 
ATOM     26  H   UNL     1      13.100   4.395  22.824  0.00  0.00    +0.142 HD
ATOM     27  H   UNL     1      13.634   5.980  22.631  0.00  0.00    +0.142 HD
ENDBRANCH  19  25
ENDBRANCH   1  21
TORSDOF 3
ENDMDL
MODEL 3
REMARK VINA RESULT:      -6.8      3.271      6.895
REMARK  Name = 
REMARK  3 active torsions:
REMARK  status: ('A' for Active; 'I' for Inactive)
REMARK    1  A    between atoms: N_1  and  C_2
REMARK    2  A    between atoms: C_6  and  C_8
REMARK    3  A    between atoms: N_12  and  C_13
REMARK                            x       y       z     vdW  Elec       q    Type
REMARK                         _______ _______ _______ _____ _____    ______ ____
ROOT
ATOM      1  C   UNL     1       7.300   1.433  23.466  0.00  0.00    +0.046 A 
ATOM      2  C   UNL     1       7.384   2.146  22.249  0.00  0.00    +0.145 A 
ATOM      3  N   UNL     1       8.225   1.597  21.371  0.00  0.00    -0.173 NA
ATOM      4  N   UNL     1       8.721   0.520  22.024  0.00  0.00    -0.221 N 
ATOM      5  C   UNL     1       9.737  -0.326  21.605  0.00  0.00    +0.118 A 
ATOM      6  C   UNL     1      10.110  -1.363  22.365  0.00  0.00    +0.063 A 
ATOM      7  C   UNL     1       9.313  -1.610  23.626  0.00  0.00    +0.127 A 
ATOM      8  N   UNL     1       9.606  -2.760  24.340  0.00  0.00    -0.299 N 
ATOM      9  H   UNL     1      10.464  -3.232  24.079  0.00  0.00    +0.154 HD
ATOM     10  N   UNL     1       8.395  -0.769  24.037  0.00  0.00    -0.212 NA
ATOM     11  C   UNL     1       8.114   0.330  23.267  0.00  0.00    +0.165 A 
ENDROOT
BRANCH   8  12
ATOM     12  C   UNL     1       8.656  -3.686  24.839  0.00  0.00    +0.034 A 
ATOM     13  C   UNL     1       7.631  -4.247  24.067  0.00  0.00    +0.043 A 
ATOM     14  C   UNL     1       6.745  -5.175  24.621  0.00  0.00    +0.043 A 
ATOM     15 CL   UNL     1       5.534  -5.898  23.632  0.00  0.00    -0.083 Cl
ATOM     16  C   UNL     1       6.841  -5.535  25.961  0.00  0.00    +0.020 A 
ATOM     17  C   UNL     1       7.817  -4.947  26.760  0.00  0.00    +0.003 A 
ATOM     18  C   UNL     1       8.707  -4.025  26.205  0.00  0.00    +0.023 A 
ENDBRANCH   8  12
BRANCH   1  21
ATOM     19  C   UNL     1       6.566   2.287  27.073  0.00  0.00    +0.025 A 
ATOM     20  C   UNL     1       7.249   1.953  25.900  0.00  0.00    +0.031 A 
ATOM     21  C   UNL     1       6.571   1.751  24.685  0.00  0.00    -0.011 A 
ATOM     22  C   UNL     1       5.184   1.941  24.656  0.00  0.00    +0.009 A 
ATOM     23  C   UNL     1       4.501   2.338  25.807  0.00  0.00    +0.002 A 
ATOM     24  C   UNL     1       5.195   2.532  27.003  0.00  0.00    +0.023 A 
BRANCH  19  25
ATOM     25  N   UNL     1       7.284   2.607  28.235  0.00  0.00    -0.358 N 
ATOM     26  H   UNL     1       7.859   3.438  28.125  0.00  0.00    +0.142 HD
ATOM     27  H   UNL     1       7.811   1.826  28.609  0.00  0.00    +0.142 HD
ENDBRANCH  19  25
ENDBRANCH   1  21
TORSDOF 3
ENDMDL
MODEL 4
REMARK VINA RESULT:      -6.7      2.419      3.910
REMARK  Name = 
REMARK  3 active torsions:
REMARK  status: ('A' for Active; 'I' for Inactive)
REMARK    1  A    between atoms: N_1  and  C_2
REMARK    2  A    between atoms: C_6  and  C_8
REMARK    3  A    between atoms: N_12  and  C_13
REMARK                            x       y       z     vdW  Elec       q    Type
REMARK                         _______ _______ _______ _____ _____    ______ ____
ROOT
ATOM      1  C   UNL     1       7.660  -2.842  24.233  0.00  0.00    +0.046 A 
ATOM      2  C   UNL     1       8.721  -3.728  24.529  0.00  0.00    +0.145 A 
ATOM      3  N   UNL     1       9.889  -3.345  24.011  0.00  0.00    -0.173 NA
ATOM      4  N   UNL     1       9.592  -2.203  23.346  0.00  0.00    -0.221 N 
ATOM      5  C   UNL     1      10.429  -1.467  22.521  0.00  0.00    +0.118 A 
ATOM      6  C   UNL     1       9.988  -0.346  21.938  0.00  0.00    +0.063 A 
ATOM      7  C   UNL     1       8.593   0.113  22.301  0.00  0.00    +0.127 A 
ATOM      8  N   UNL     1       8.187   1.343  21.810  0.00  0.00    -0.299 N 
ATOM      9  H   UNL     1       8.770   1.739  21.082  0.00  0.00    +0.154 HD
ATOM     10  N   UNL     1       7.795  -0.624  23.036  0.00  0.00    -0.212 NA
ATOM     11  C   UNL     1       8.266  -1.812  23.534  0.00  0.00    +0.165 A 
ENDROOT
BRANCH   8  12
ATOM     12  C   UNL     1       7.562   2.366  22.565  0.00  0.00    +0.034 A 
ATOM     13  C   UNL     1       8.160   3.011  23.655  0.00  0.00    +0.043 A 
ATOM     14  C   UNL     1       7.493   4.031  24.336  0.00  0.00    +0.043 A 
ATOM     15 CL   UNL     1       8.277   4.851  25.632  0.00  0.00    -0.083 Cl
ATOM     16  C   UNL     1       6.204   4.406  23.969  0.00  0.00    +0.020 A 
ATOM     17  C   UNL     1       5.569   3.740  22.924  0.00  0.00    +0.003 A 
ATOM     18  C   UNL     1       6.240   2.724  22.238  0.00  0.00    +0.023 A 
ENDBRANCH   8  12
BRANCH   1  21
ATOM     19  C   UNL     1       4.048  -3.947  24.102  0.00  0.00    +0.025 A 
ATOM     20  C   UNL     1       5.407  -3.809  23.802  0.00  0.00    +0.031 A 
ATOM     21  C   UNL     1       6.241  -2.952  24.541  0.00  0.00    -0.011 A 
ATOM     22  C   UNL     1       5.693  -2.265  25.631  0.00  0.00    +0.009 A 
ATOM     23  C   UNL     1       4.354  -2.447  25.980  0.00  0.00    +0.002 A 
ATOM     24  C   UNL     1       3.544  -3.302  25.231  0.00  0.00    +0.023 A 
BRANCH  19  25
ATOM     25  N   UNL     1       3.275  -4.904  23.428  0.00  0.00    -0.358 N 
ATOM     26  H   UNL     1       2.848  -4.537  22.582  0.00  0.00    +0.142 HD
ATOM     27  H   UNL     1       2.600  -5.368  24.026  0.00  0.00    +0.142 HD
ENDBRANCH  19  25
ENDBRANCH   1  21
TORSDOF 3
ENDMDL
MODEL 5
REMARK VINA RESULT:      -6.7      4.850      8.699
REMARK  Name = 
REMARK  3 active torsions:
REMARK  status: ('A' for Active; 'I' for Inactive)
REMARK    1  A    between atoms: N_1  and  C_2
REMARK    2  A    between atoms: C_6  and  C_8
REMARK    3  A    between atoms: N_12  and  C_13
REMARK                            x       y       z     vdW  Elec       q    Type
REMARK                         _______ _______ _______ _____ _____    ______ ____
ROOT
ATOM      1  C   UNL     1       9.852   1.896  23.112  0.00  0.00    +0.046 A 
ATOM      2  C   UNL     1      10.020   1.222  21.882  0.00  0.00    +0.145 A 
ATOM      3  N   UNL     1       9.755  -0.083  21.953  0.00  0.00    -0.173 NA
ATOM      4  N   UNL     1       9.429  -0.279  23.253  0.00  0.00    -0.221 N 
ATOM      5  C   UNL     1       9.192  -1.488  23.889  0.00  0.00    +0.118 A 
ATOM      6  C   UNL     1       8.867  -1.516  25.187  0.00  0.00    +0.063 A 
ATOM      7  C   UNL     1       8.681  -0.183  25.877  0.00  0.00    +0.127 A 
ATOM      8  N   UNL     1       8.210  -0.208  27.179  0.00  0.00    -0.299 N 
ATOM      9  H   UNL     1       8.227  -1.113  27.634  0.00  0.00    +0.154 HD
ATOM     10  N   UNL     1       8.965   0.948  25.277  0.00  0.00    -0.212 NA
ATOM     11  C   UNL     1       9.384   0.916  23.972  0.00  0.00    +0.165 A 
ENDROOT
BRANCH   8  12
ATOM     12  C   UNL     1       7.158   0.592  27.691  0.00  0.00    +0.034 A 
ATOM     13  C   UNL     1       7.301   1.478  28.767  0.00  0.00    +0.043 A 
ATOM     14  C   UNL     1       6.225   2.255  29.200  0.00  0.00    +0.043 A 
ATOM     15 CL   UNL     1       6.445   3.383  30.483  0.00  0.00    -0.083 Cl
ATOM     16  C   UNL     1       4.977   2.141  28.595  0.00  0.00    +0.020 A 
ATOM     17  C   UNL     1       4.799   1.226  27.561  0.00  0.00    +0.003 A 
ATOM     18  C   UNL     1       5.877   0.454  27.122  0.00  0.00    +0.023 A 
ENDBRANCH   8  12
BRANCH   1  21
ATOM     19  C   UNL     1      11.689   5.150  23.674  0.00  0.00    +0.025 A 
ATOM     20  C   UNL     1      11.420   3.812  23.372  0.00  0.00    +0.031 A 
ATOM     21  C   UNL     1      10.119   3.285  23.459  0.00  0.00    -0.011 A 
ATOM     22  C   UNL     1       9.073   4.146  23.809  0.00  0.00    +0.009 A 
ATOM     23  C   UNL     1       9.321   5.499  24.048  0.00  0.00    +0.002 A 
ATOM     24  C   UNL     1      10.621   6.000  23.958  0.00  0.00    +0.023 A 
BRANCH  19  25
ATOM     25  N   UNL     1      12.972   5.674  23.455  0.00  0.00    -0.358 N 
ATOM     26  H   UNL     1      13.029   6.669  23.655  0.00  0.00    +0.142 HD
ATOM     27  H   UNL     1      13.347   5.448  22.541  0.00  0.00    +0.142 HD
ENDBRANCH  19  25
ENDBRANCH   1  21
TORSDOF 3
ENDMDL
MODEL 6
REMARK VINA RESULT:      -6.6      3.323      6.305
REMARK  Name = 
REMARK  3 active torsions:
REMARK  status: ('A' for Active; 'I' for Inactive)
REMARK    1  A    between atoms: N_1  and  C_2
REMARK    2  A    between atoms: C_6  and  C_8
REMARK    3  A    between atoms: N_12  and  C_13
REMARK                            x       y       z     vdW  Elec       q    Type
REMARK                         _______ _______ _______ _____ _____    ______ ____
ROOT
ATOM      1  C   UNL     1       8.829  -1.612  22.738  0.00  0.00    +0.046 A 
ATOM      2  C   UNL     1       9.815  -1.186  21.819  0.00  0.00    +0.145 A 
ATOM      3  N   UNL     1       9.664   0.081  21.431  0.00  0.00    -0.173 NA
ATOM      4  N   UNL     1       8.551   0.492  22.084  0.00  0.00    -0.221 N 
ATOM      5  C   UNL     1       7.881   1.696  21.932  0.00  0.00    +0.118 A 
ATOM      6  C   UNL     1       6.792   1.960  22.665  0.00  0.00    +0.063 A 
ATOM      7  C   UNL     1       6.404   0.939  23.710  0.00  0.00    +0.127 A 
ATOM      8  N   UNL     1       5.364   1.274  24.561  0.00  0.00    -0.299 N 
ATOM      9  H   UNL     1       4.812   2.078  24.285  0.00  0.00    +0.154 HD
ATOM     10  N   UNL     1       7.013  -0.219  23.801  0.00  0.00    -0.212 NA
ATOM     11  C   UNL     1       8.066  -0.478  22.963  0.00  0.00    +0.165 A 
ENDROOT
BRANCH   8  12
ATOM     12  C   UNL     1       5.374   1.132  25.971  0.00  0.00    +0.034 A 
ATOM     13  C   UNL     1       6.224   1.848  26.823  0.00  0.00    +0.043 A 
ATOM     14  C   UNL     1       6.159   1.675  28.208  0.00  0.00    +0.043 A 
ATOM     15 CL   UNL     1       7.171   2.615  29.237  0.00  0.00    -0.083 Cl
ATOM     16  C   UNL     1       5.273   0.760  28.768  0.00  0.00    +0.020 A 
ATOM     17  C   UNL     1       4.458  -0.002  27.936  0.00  0.00    +0.003 A 
ATOM     18  C   UNL     1       4.518   0.176  26.552  0.00  0.00    +0.023 A 
ENDBRANCH   8  12
BRANCH   1  21
ATOM     19  C   UNL     1       9.136  -4.613  25.014  0.00  0.00    +0.025 A 
ATOM     20  C   UNL     1       9.358  -3.365  24.424  0.00  0.00    +0.031 A 
ATOM     21  C   UNL     1       8.605  -2.927  23.321  0.00  0.00    -0.011 A 
ATOM     22  C   UNL     1       7.578  -3.751  22.846  0.00  0.00    +0.009 A 
ATOM     23  C   UNL     1       7.305  -4.970  23.469  0.00  0.00    +0.002 A 
ATOM     24  C   UNL     1       8.067  -5.386  24.561  0.00  0.00    +0.023 A 
BRANCH  19  25
ATOM     25  N   UNL     1       9.817  -4.965  26.189  0.00  0.00    -0.358 N 
ATOM     26  H   UNL     1       9.919  -4.184  26.832  0.00  0.00    +0.142 HD
ATOM     27  H   UNL     1      10.700  -5.433  26.016  0.00  0.00    +0.142 HD
ENDBRANCH  19  25
ENDBRANCH   1  21
TORSDOF 3
ENDMDL
MODEL 7
REMARK VINA RESULT:      -6.5      3.254      6.741
REMARK  Name = 
REMARK  3 active torsions:
REMARK  status: ('A' for Active; 'I' for Inactive)
REMARK    1  A    between atoms: N_1  and  C_2
REMARK    2  A    between atoms: C_6  and  C_8
REMARK    3  A    between atoms: N_12  and  C_13
REMARK                            x       y       z     vdW  Elec       q    Type
REMARK                         _______ _______ _______ _____ _____    ______ ____
ROOT
ATOM      1  C   UNL     1       7.519   1.702  23.676  0.00  0.00    +0.046 A 
ATOM      2  C   UNL     1       7.630   2.558  22.556  0.00  0.00    +0.145 A 
ATOM      3  N   UNL     1       8.368   2.046  21.570  0.00  0.00    -0.173 NA
ATOM      4  N   UNL     1       8.770   0.846  22.053  0.00  0.00    -0.221 N 
ATOM      5  C   UNL     1       9.669  -0.037  21.474  0.00  0.00    +0.118 A 
ATOM      6  C   UNL     1       9.957  -1.198  22.074  0.00  0.00    +0.063 A 
ATOM      7  C   UNL     1       9.191  -1.527  23.336  0.00  0.00    +0.127 A 
ATOM      8  N   UNL     1       9.386  -2.785  23.881  0.00  0.00    -0.299 N 
ATOM      9  H   UNL     1      10.176  -3.304  23.515  0.00  0.00    +0.154 HD
ATOM     10  N   UNL     1       8.389  -0.657  23.901  0.00  0.00    -0.212 NA
ATOM     11  C   UNL     1       8.198   0.557  23.293  0.00  0.00    +0.165 A 
ENDROOT
BRANCH   8  12
ATOM     12  C   UNL     1       8.362  -3.665  24.310  0.00  0.00    +0.034 A 
ATOM     13  C   UNL     1       8.236  -4.139  25.622  0.00  0.00    +0.043 A 
ATOM     14  C   UNL     1       7.183  -4.985  25.978  0.00  0.00    +0.043 A 
ATOM     15 CL   UNL     1       7.016  -5.501  27.613  0.00  0.00    -0.083 Cl
ATOM     16  C   UNL     1       6.256  -5.403  25.029  0.00  0.00    +0.020 A 
ATOM     17  C   UNL     1       6.394  -4.989  23.708  0.00  0.00    +0.003 A 
ATOM     18  C   UNL     1       7.443  -4.137  23.353  0.00  0.00    +0.023 A 
ENDBRANCH   8  12
BRANCH   1  21
ATOM     19  C   UNL     1       5.013   1.547  26.500  0.00  0.00    +0.025 A 
ATOM     20  C   UNL     1       5.628   1.362  25.258  0.00  0.00    +0.031 A 
ATOM     21  C   UNL     1       6.879   1.930  24.963  0.00  0.00    -0.011 A 
ATOM     22  C   UNL     1       7.535   2.656  25.965  0.00  0.00    +0.009 A 
ATOM     23  C   UNL     1       6.959   2.792  27.230  0.00  0.00    +0.002 A 
ATOM     24  C   UNL     1       5.715   2.220  27.500  0.00  0.00    +0.023 A 
BRANCH  19  25
ATOM     25  N   UNL     1       3.828   0.862  26.805  0.00  0.00    -0.358 N 
ATOM     26  H   UNL     1       3.053   1.489  27.006  0.00  0.00    +0.142 HD
ATOM     27  H   UNL     1       3.945   0.159  27.526  0.00  0.00    +0.142 HD
ENDBRANCH  19  25
ENDBRANCH   1  21
TORSDOF 3
ENDMDL
MODEL 8
REMARK VINA RESULT:      -6.5      3.515      6.816
REMARK  Name = 
REMARK  3 active torsions:
REMARK  status: ('A' for Active; 'I' for Inactive)
REMARK    1  A    between atoms: N_1  and  C_2
REMARK    2  A    between atoms: C_6  and  C_8
REMARK    3  A    between atoms: N_12  and  C_13
REMARK                            x       y       z     vdW  Elec       q    Type
REMARK                         _______ _______ _______ _____ _____    ______ ____
ROOT
ATOM      1  C   UNL     1       7.811   1.854  22.960  0.00  0.00    +0.046 A 
ATOM      2  C   UNL     1       8.868   2.565  22.348  0.00  0.00    +0.145 A 
ATOM      3  N   UNL     1      10.003   1.868  22.277  0.00  0.00    -0.173 NA
ATOM      4  N   UNL     1       9.700   0.689  22.871  0.00  0.00    -0.221 N 
ATOM      5  C   UNL     1      10.567  -0.348  23.177  0.00  0.00    +0.118 A 
ATOM      6  C   UNL     1      10.109  -1.463  23.759  0.00  0.00    +0.063 A 
ATOM      7  C   UNL     1       8.615  -1.563  23.969  0.00  0.00    +0.127 A 
ATOM      8  N   UNL     1       8.125  -2.769  24.442  0.00  0.00    -0.299 N 
ATOM      9  H   UNL     1       8.818  -3.412  24.806  0.00  0.00    +0.154 HD
ATOM     10  N   UNL     1       7.816  -0.551  23.728  0.00  0.00    -0.212 NA
ATOM     11  C   UNL     1       8.350   0.604  23.216  0.00  0.00    +0.165 A 
ENDROOT
BRANCH   8  12
ATOM     12  C   UNL     1       7.016  -3.474  23.910  0.00  0.00    +0.034 A 
ATOM     13  C   UNL     1       7.079  -4.283  22.768  0.00  0.00    +0.043 A 
ATOM     14  C   UNL     1       5.949  -4.970  22.317  0.00  0.00    +0.043 A 
ATOM     15 CL   UNL     1       6.070  -6.009  20.948  0.00  0.00    -0.083 Cl
ATOM     16  C   UNL     1       4.729  -4.838  22.971  0.00  0.00    +0.020 A 
ATOM     17  C   UNL     1       4.631  -3.995  24.075  0.00  0.00    +0.003 A 
ATOM     18  C   UNL     1       5.763  -3.314  24.531  0.00  0.00    +0.023 A 
ENDBRANCH   8  12
BRANCH   1  21
ATOM     19  C   UNL     1       4.358   3.356  22.640  0.00  0.00    +0.025 A 
ATOM     20  C   UNL     1       5.664   2.953  22.345  0.00  0.00    +0.031 A 
ATOM     21  C   UNL     1       6.464   2.292  23.294  0.00  0.00    -0.011 A 
ATOM     22  C   UNL     1       5.906   1.993  24.543  0.00  0.00    +0.009 A 
ATOM     23  C   UNL     1       4.581   2.331  24.824  0.00  0.00    +0.002 A 
ATOM     24  C   UNL     1       3.807   2.989  23.868  0.00  0.00    +0.023 A 
BRANCH  19  25
ATOM     25  N   UNL     1       3.547   3.898  21.632  0.00  0.00    -0.358 N 
ATOM     26  H   UNL     1       3.824   4.840  21.371  0.00  0.00    +0.142 HD
ATOM     27  H   UNL     1       2.556   3.835  21.838  0.00  0.00    +0.142 HD
ENDBRANCH  19  25
ENDBRANCH   1  21
TORSDOF 3
ENDMDL
MODEL 9
REMARK VINA RESULT:      -6.5      3.170      5.210
REMARK  Name = 
REMARK  3 active torsions:
REMARK  status: ('A' for Active; 'I' for Inactive)
REMARK    1  A    between atoms: N_1  and  C_2
REMARK    2  A    between atoms: C_6  and  C_8
REMARK    3  A    between atoms: N_12  and  C_13
REMARK                            x       y       z     vdW  Elec       q    Type
REMARK                         _______ _______ _______ _____ _____    ______ ____
ROOT
ATOM      1  C   UNL     1       8.147  -1.966  22.995  0.00  0.00    +0.046 A 
ATOM      2  C   UNL     1       9.498  -2.354  23.147  0.00  0.00    +0.145 A 
ATOM      3  N   UNL     1      10.361  -1.361  22.930  0.00  0.00    -0.173 NA
ATOM      4  N   UNL     1       9.573  -0.308  22.607  0.00  0.00    -0.221 N 
ATOM      5  C   UNL     1       9.976   0.942  22.163  0.00  0.00    +0.118 A 
ATOM      6  C   UNL     1       9.069   1.888  21.893  0.00  0.00    +0.063 A 
ATOM      7  C   UNL     1       7.623   1.557  22.189  0.00  0.00    +0.127 A 
ATOM      8  N   UNL     1       6.701   2.580  22.043  0.00  0.00    -0.299 N 
ATOM      9  H   UNL     1       7.032   3.403  21.553  0.00  0.00    +0.154 HD
ATOM     10  N   UNL     1       7.253   0.353  22.553  0.00  0.00    -0.212 NA
ATOM     11  C   UNL     1       8.215  -0.609  22.727  0.00  0.00    +0.165 A 
ENDROOT
BRANCH   8  12
ATOM     12  C   UNL     1       5.697   2.924  22.982  0.00  0.00    +0.034 A 
ATOM     13  C   UNL     1       4.339   3.055  22.663  0.00  0.00    +0.043 A 
ATOM     14  C   UNL     1       3.401   3.371  23.649  0.00  0.00    +0.043 A 
ATOM     15 CL   UNL     1       1.730   3.463  23.242  0.00  0.00    -0.083 Cl
ATOM     16  C   UNL     1       3.800   3.598  24.962  0.00  0.00    +0.020 A 
ATOM     17  C   UNL     1       5.151   3.528  25.289  0.00  0.00    +0.003 A 
ATOM     18  C   UNL     1       6.088   3.205  24.305  0.00  0.00    +0.023 A 
ENDBRANCH   8  12
BRANCH   1  21
ATOM     19  C   UNL     1       5.653  -4.737  22.375  0.00  0.00    +0.025 A 
ATOM     20  C   UNL     1       6.800  -3.941  22.300  0.00  0.00    +0.031 A 
ATOM     21  C   UNL     1       6.934  -2.768  23.063  0.00  0.00    -0.011 A 
ATOM     22  C   UNL     1       5.905  -2.429  23.951  0.00  0.00    +0.009 A 
ATOM     23  C   UNL     1       4.785  -3.252  24.082  0.00  0.00    +0.002 A 
ATOM     24  C   UNL     1       4.673  -4.412  23.313  0.00  0.00    +0.023 A 
BRANCH  19  25
ATOM     25  N   UNL     1       5.607  -5.965  21.699  0.00  0.00    -0.358 N 
ATOM     26  H   UNL     1       5.134  -5.900  20.801  0.00  0.00    +0.142 HD
ATOM     27  H   UNL     1       5.243  -6.722  22.266  0.00  0.00    +0.142 HD
ENDBRANCH  19  25
ENDBRANCH   1  21
TORSDOF 3
ENDMDL
