MODEL 1
REMARK VINA RESULT:      -4.8      0.000      0.000
REMARK  Name = 
REMARK  10 active torsions:
REMARK  status: ('A' for Active; 'I' for Inactive)
REMARK    1  A    between atoms: C_1  and  C_2
REMARK    2  A    between atoms: C_2  and  C_3
REMARK    3  A    between atoms: C_3  and  C_4
REMARK    4  A    between atoms: N_8  and  C_9
REMARK    5  A    between atoms: C_9  and  C_10
REMARK    6  A    between atoms: C_10  and  C_11
REMARK    7  A    between atoms: C_11  and  CA_12
REMARK    8  A    between atoms: CA_12  and  N_14
REMARK    9  A    between atoms: CA_12  and  C_15
REMARK   10  A    between atoms: C_15  and  O_16
REMARK                            x       y       z     vdW  Elec       q    Type
REMARK                         _______ _______ _______ _____ _____    ______ ____
ROOT
ATOM      1  C   UNL     1       7.293  -1.311  25.208  0.00  0.00    +0.223 C 
ENDROOT
BRANCH   1   3
ATOM      2  C   UNL     1       8.589  -1.587  23.120  0.00  0.00    +0.236 C 
ATOM      3  N   UNL     1       8.413  -1.014  24.300  0.00  0.00    -0.241 N 
ATOM      4  H   UNL     1       9.103  -0.320  24.582  0.00  0.00    +0.291 HD
ATOM      5  N   UNL     1       7.790  -2.502  22.608  0.00  0.00    -0.293 N 
ATOM      6  H   UNL     1       7.982  -2.908  21.697  0.00  0.00    +0.301 HD
ATOM      7  H   UNL     1       6.973  -2.845  23.092  0.00  0.00    +0.301 HD
BRANCH   2   8
ATOM      8  C   UNL     1       9.770  -1.178  22.311  0.00  0.00    +0.123 C 
BRANCH   8  10
ATOM      9  C   UNL     1       9.899   1.336  21.929  0.00  0.00    +0.004 C 
ATOM     10  C   UNL     1       9.458  -0.010  21.374  0.00  0.00    +0.008 C 
ENDBRANCH   8  10
ENDBRANCH   2   8
ENDBRANCH   1   3
BRANCH   1  11
ATOM     11  C   UNL     1       7.786  -2.125  26.402  0.00  0.00    +0.045 C 
BRANCH  11  12
ATOM     12  C   UNL     1       7.447  -3.606  26.209  0.00  0.00    +0.033 C 
BRANCH  12  13
ATOM     13  CA  UNL     1       8.585  -4.573  26.562  0.00  0.00    +0.161 C 
BRANCH  13  14
ATOM     14  N   UNL     1       8.068  -5.779  27.260  0.00  0.00    -0.318 NA
ATOM     15  H1  UNL     1       7.390  -6.236  26.635  0.00  0.00    +0.119 HD
ATOM     16  H2  UNL     1       8.820  -6.470  27.321  0.00  0.00    +0.119 HD
ENDBRANCH  13  14
BRANCH  13  17
ATOM     17  C   UNL     1       9.257  -5.010  25.251  0.00  0.00    +0.322 C 
ATOM     18  OXT UNL     1       8.713  -4.997  24.159  0.00  0.00    -0.249 OA
BRANCH  17  19
ATOM     19  O   UNL     1      10.509  -5.486  25.466  0.00  0.00    -0.480 OA
ATOM     20  H   UNL     1      11.084  -5.154  24.735  0.00  0.00    +0.295 HD
ENDBRANCH  17  19
ENDBRANCH  13  17
ENDBRANCH  12  13
ENDBRANCH  11  12
ENDBRANCH   1  11
TORSDOF 9
ENDMDL
MODEL 2
REMARK VINA RESULT:      -4.7      1.915      2.382
REMARK  Name = 
REMARK  10 active torsions:
REMARK  status: ('A' for Active; 'I' for Inactive)
REMARK    1  A    between atoms: C_1  and  C_2
REMARK    2  A    between atoms: C_2  and  C_3
REMARK    3  A    between atoms: C_3  and  C_4
REMARK    4  A    between atoms: N_8  and  C_9
REMARK    5  A    between atoms: C_9  and  C_10
REMARK    6  A    between atoms: C_10  and  C_11
REMARK    7  A    between atoms: C_11  and  CA_12
REMARK    8  A    between atoms: CA_12  and  N_14
REMARK    9  A    between atoms: CA_12  and  C_15
REMARK   10  A    between atoms: C_15  and  O_16
REMARK                            x       y       z     vdW  Elec       q    Type
REMARK                         _______ _______ _______ _____ _____    ______ ____
ROOT
ATOM      1  C   UNL     1       7.168  -3.162  23.067  0.00  0.00    +0.223 C 
ENDROOT
BRANCH   1   3
ATOM      2  C   UNL     1       9.262  -1.847  23.061  0.00  0.00    +0.236 C 
ATOM      3  N   UNL     1       8.220  -2.357  22.424  0.00  0.00    -0.241 N 
ATOM      4  H   UNL     1       8.158  -2.177  21.424  0.00  0.00    +0.291 HD
ATOM      5  N   UNL     1       9.490  -1.986  24.352  0.00  0.00    -0.293 N 
ATOM      6  H   UNL     1      10.308  -1.566  24.783  0.00  0.00    +0.301 HD
ATOM      7  H   UNL     1       8.870  -2.497  24.964  0.00  0.00    +0.301 HD
BRANCH   2   8
ATOM      8  C   UNL     1      10.248  -1.057  22.272  0.00  0.00    +0.123 C 
BRANCH   8  10
ATOM      9  C   UNL     1       9.938   1.462  22.056  0.00  0.00    +0.004 C 
ATOM     10  C   UNL     1       9.590   0.089  21.501  0.00  0.00    +0.008 C 
ENDBRANCH   8  10
ENDBRANCH   2   8
ENDBRANCH   1   3
BRANCH   1  11
ATOM     11  C   UNL     1       7.563  -4.636  23.070  0.00  0.00    +0.045 C 
BRANCH  11  12
ATOM     12  C   UNL     1       7.242  -5.268  24.428  0.00  0.00    +0.033 C 
BRANCH  12  13
ATOM     13  CA  UNL     1       8.472  -5.613  25.279  0.00  0.00    +0.161 C 
BRANCH  13  14
ATOM     14  N   UNL     1       9.725  -5.167  24.617  0.00  0.00    -0.318 NA
ATOM     15  H1  UNL     1      10.337  -5.989  24.518  0.00  0.00    +0.119 HD
ATOM     16  H2  UNL     1       9.516  -4.923  23.646  0.00  0.00    +0.119 HD
ENDBRANCH  13  14
BRANCH  13  17
ATOM     17  C   UNL     1       8.335  -4.882  26.624  0.00  0.00    +0.322 C 
ATOM     18  OXT UNL     1       8.626  -3.711  26.806  0.00  0.00    -0.249 OA
BRANCH  17  19
ATOM     19  O   UNL     1       7.921  -5.719  27.608  0.00  0.00    -0.480 OA
ATOM     20  H   UNL     1       6.936  -5.680  27.640  0.00  0.00    +0.295 HD
ENDBRANCH  17  19
ENDBRANCH  13  17
ENDBRANCH  12  13
ENDBRANCH  11  12
ENDBRANCH   1  11
TORSDOF 9
ENDMDL
MODEL 3
REMARK VINA RESULT:      -4.7      1.076      1.451
REMARK  Name = 
REMARK  10 active torsions:
REMARK  status: ('A' for Active; 'I' for Inactive)
REMARK    1  A    between atoms: C_1  and  C_2
REMARK    2  A    between atoms: C_2  and  C_3
REMARK    3  A    between atoms: C_3  and  C_4
REMARK    4  A    between atoms: N_8  and  C_9
REMARK    5  A    between atoms: C_9  and  C_10
REMARK    6  A    between atoms: C_10  and  C_11
REMARK    7  A    between atoms: C_11  and  CA_12
REMARK    8  A    between atoms: CA_12  and  N_14
REMARK    9  A    between atoms: CA_12  and  C_15
REMARK   10  A    between atoms: C_15  and  O_16
REMARK                            x       y       z     vdW  Elec       q    Type
REMARK                         _______ _______ _______ _____ _____    ______ ____
ROOT
ATOM      1  C   UNL     1       8.018  -0.845  25.675  0.00  0.00    +0.223 C 
ENDROOT
BRANCH   1   3
ATOM      2  C   UNL     1       9.845  -0.651  24.021  0.00  0.00    +0.236 C 
ATOM      3  N   UNL     1       8.680  -1.154  24.397  0.00  0.00    -0.241 N 
ATOM      4  H   UNL     1       8.227  -1.799  23.752  0.00  0.00    +0.291 HD
ATOM      5  N   UNL     1      10.559   0.196  24.735  0.00  0.00    -0.293 N 
ATOM      6  H   UNL     1      11.446   0.549  24.388  0.00  0.00    +0.301 HD
ATOM      7  H   UNL     1      10.260   0.535  25.639  0.00  0.00    +0.301 HD
BRANCH   2   8
ATOM      8  C   UNL     1      10.392  -1.062  22.698  0.00  0.00    +0.123 C 
BRANCH   8  10
ATOM      9  C   UNL     1       9.326   0.916  21.499  0.00  0.00    +0.004 C 
ATOM     10  C   UNL     1       9.515  -0.593  21.535  0.00  0.00    +0.008 C 
ENDBRANCH   8  10
ENDBRANCH   2   8
ENDBRANCH   1   3
BRANCH   1  11
ATOM     11  C   UNL     1       8.381  -1.895  26.722  0.00  0.00    +0.045 C 
BRANCH  11  12
ATOM     12  C   UNL     1       7.881  -3.274  26.283  0.00  0.00    +0.033 C 
BRANCH  12  13
ATOM     13  CA  UNL     1       8.810  -4.438  26.654  0.00  0.00    +0.161 C 
BRANCH  13  14
ATOM     14  N   UNL     1       8.038  -5.601  27.163  0.00  0.00    -0.318 NA
ATOM     15  H1  UNL     1       8.712  -6.296  27.513  0.00  0.00    +0.119 HD
ATOM     16  H2  UNL     1       7.542  -5.320  28.012  0.00  0.00    +0.119 HD
ENDBRANCH  13  14
BRANCH  13  17
ATOM     17  C   UNL     1       9.564  -4.863  25.383  0.00  0.00    +0.322 C 
ATOM     18  OXT UNL     1       9.817  -4.119  24.450  0.00  0.00    -0.249 OA
BRANCH  17  19
ATOM     19  O   UNL     1       9.850  -6.189  25.392  0.00  0.00    -0.480 OA
ATOM     20  H   UNL     1      10.603  -6.329  26.014  0.00  0.00    +0.295 HD
ENDBRANCH  17  19
ENDBRANCH  13  17
ENDBRANCH  12  13
ENDBRANCH  11  12
ENDBRANCH   1  11
TORSDOF 9
ENDMDL
MODEL 4
REMARK VINA RESULT:      -4.7      2.210      2.601
REMARK  Name = 
REMARK  10 active torsions:
REMARK  status: ('A' for Active; 'I' for Inactive)
REMARK    1  A    between atoms: C_1  and  C_2
REMARK    2  A    between atoms: C_2  and  C_3
REMARK    3  A    between atoms: C_3  and  C_4
REMARK    4  A    between atoms: N_8  and  C_9
REMARK    5  A    between atoms: C_9  and  C_10
REMARK    6  A    between atoms: C_10  and  C_11
REMARK    7  A    between atoms: C_11  and  CA_12
REMARK    8  A    between atoms: CA_12  and  N_14
REMARK    9  A    between atoms: CA_12  and  C_15
REMARK   10  A    between atoms: C_15  and  O_16
REMARK                            x       y       z     vdW  Elec       q    Type
REMARK                         _______ _______ _______ _____ _____    ______ ____
ROOT
ATOM      1  C   UNL     1       7.827  -2.643  22.523  0.00  0.00    +0.223 C 
ENDROOT
BRANCH   1   3
ATOM      2  C   UNL     1       9.623  -0.943  22.492  0.00  0.00    +0.236 C 
ATOM      3  N   UNL     1       8.732  -1.666  23.152  0.00  0.00    -0.241 N 
ATOM      4  H   UNL     1       8.678  -1.523  24.159  0.00  0.00    +0.291 HD
ATOM      5  N   UNL     1       9.821  -1.006  21.191  0.00  0.00    -0.293 N 
ATOM      6  H   UNL     1      10.524  -0.426  20.744  0.00  0.00    +0.301 HD
ATOM      7  H   UNL     1       9.301  -1.630  20.590  0.00  0.00    +0.301 HD
BRANCH   2   8
ATOM      8  C   UNL     1      10.466   0.009  23.268  0.00  0.00    +0.123 C 
BRANCH   8  10
ATOM      9  C   UNL     1       9.142   1.652  24.695  0.00  0.00    +0.004 C 
ATOM     10  C   UNL     1       9.875   0.320  24.645  0.00  0.00    +0.008 C 
ENDBRANCH   8  10
ENDBRANCH   2   8
ENDBRANCH   1   3
BRANCH   1  11
ATOM     11  C   UNL     1       7.761  -3.915  23.363  0.00  0.00    +0.045 C 
BRANCH  11  12
ATOM     12  C   UNL     1       8.840  -3.888  24.450  0.00  0.00    +0.033 C 
BRANCH  12  13
ATOM     13  CA  UNL     1       8.919  -5.161  25.305  0.00  0.00    +0.161 C 
BRANCH  13  14
ATOM     14  N   UNL     1      10.329  -5.572  25.527  0.00  0.00    -0.318 NA
ATOM     15  H1  UNL     1      10.926  -4.977  24.936  0.00  0.00    +0.119 HD
ATOM     16  H2  UNL     1      10.606  -5.298  26.473  0.00  0.00    +0.119 HD
ENDBRANCH  13  14
BRANCH  13  17
ATOM     17  C   UNL     1       8.271  -4.857  26.665  0.00  0.00    +0.322 C 
ATOM     18  OXT UNL     1       8.034  -3.735  27.081  0.00  0.00    -0.249 OA
BRANCH  17  19
ATOM     19  O   UNL     1       8.062  -5.989  27.383  0.00  0.00    -0.480 OA
ATOM     20  H   UNL     1       8.822  -6.595  27.214  0.00  0.00    +0.295 HD
ENDBRANCH  17  19
ENDBRANCH  13  17
ENDBRANCH  12  13
ENDBRANCH  11  12
ENDBRANCH   1  11
TORSDOF 9
ENDMDL
MODEL 5
REMARK VINA RESULT:      -4.6      2.613      3.681
REMARK  Name = 
REMARK  10 active torsions:
REMARK  status: ('A' for Active; 'I' for Inactive)
REMARK    1  A    between atoms: C_1  and  C_2
REMARK    2  A    between atoms: C_2  and  C_3
REMARK    3  A    between atoms: C_3  and  C_4
REMARK    4  A    between atoms: N_8  and  C_9
REMARK    5  A    between atoms: C_9  and  C_10
REMARK    6  A    between atoms: C_10  and  C_11
REMARK    7  A    between atoms: C_11  and  CA_12
REMARK    8  A    between atoms: CA_12  and  N_14
REMARK    9  A    between atoms: CA_12  and  C_15
REMARK   10  A    between atoms: C_15  and  O_16
REMARK                            x       y       z     vdW  Elec       q    Type
REMARK                         _______ _______ _______ _____ _____    ______ ____
ROOT
ATOM      1  C   UNL     1       8.560  -1.740  23.415  0.00  0.00    +0.223 C 
ENDROOT
BRANCH   1   3
ATOM      2  C   UNL     1       6.584  -3.016  22.651  0.00  0.00    +0.236 C 
ATOM      3  N   UNL     1       7.808  -2.554  22.446  0.00  0.00    -0.241 N 
ATOM      4  H   UNL     1       8.241  -2.780  21.553  0.00  0.00    +0.291 HD
ATOM      5  N   UNL     1       5.884  -2.815  23.750  0.00  0.00    -0.293 N 
ATOM      6  H   UNL     1       4.950  -3.200  23.848  0.00  0.00    +0.301 HD
ATOM      7  H   UNL     1       6.240  -2.288  24.535  0.00  0.00    +0.301 HD
BRANCH   2   8
ATOM      8  C   UNL     1       5.950  -3.823  21.573  0.00  0.00    +0.123 C 
BRANCH   8  10
ATOM      9  C   UNL     1       7.112  -6.066  21.894  0.00  0.00    +0.004 C 
ATOM     10  C   UNL     1       5.802  -5.296  21.959  0.00  0.00    +0.008 C 
ENDBRANCH   8  10
ENDBRANCH   2   8
ENDBRANCH   1   3
BRANCH   1  11
ATOM     11  C   UNL     1       9.681  -2.568  24.038  0.00  0.00    +0.045 C 
BRANCH  11  12
ATOM     12  C   UNL     1       9.147  -3.367  25.231  0.00  0.00    +0.033 C 
BRANCH  12  13
ATOM     13  CA  UNL     1       8.975  -4.870  24.968  0.00  0.00    +0.161 C 
BRANCH  13  14
ATOM     14  N   UNL     1      10.182  -5.629  25.385  0.00  0.00    -0.318 NA
ATOM     15  H1  UNL     1      10.483  -6.203  24.584  0.00  0.00    +0.119 HD
ATOM     16  H2  UNL     1      10.961  -4.975  25.497  0.00  0.00    +0.119 HD
ENDBRANCH  13  14
BRANCH  13  17
ATOM     17  C   UNL     1       7.775  -5.359  25.793  0.00  0.00    +0.322 C 
ATOM     18  OXT UNL     1       6.615  -5.313  25.418  0.00  0.00    -0.249 OA
BRANCH  17  19
ATOM     19  O   UNL     1       8.153  -5.780  27.026  0.00  0.00    -0.480 OA
ATOM     20  H   UNL     1       7.853  -5.104  27.679  0.00  0.00    +0.295 HD
ENDBRANCH  17  19
ENDBRANCH  13  17
ENDBRANCH  12  13
ENDBRANCH  11  12
ENDBRANCH   1  11
TORSDOF 9
ENDMDL
MODEL 6
REMARK VINA RESULT:      -4.5      1.912      2.431
REMARK  Name = 
REMARK  10 active torsions:
REMARK  status: ('A' for Active; 'I' for Inactive)
REMARK    1  A    between atoms: C_1  and  C_2
REMARK    2  A    between atoms: C_2  and  C_3
REMARK    3  A    between atoms: C_3  and  C_4
REMARK    4  A    between atoms: N_8  and  C_9
REMARK    5  A    between atoms: C_9  and  C_10
REMARK    6  A    between atoms: C_10  and  C_11
REMARK    7  A    between atoms: C_11  and  CA_12
REMARK    8  A    between atoms: CA_12  and  N_14
REMARK    9  A    between atoms: CA_12  and  C_15
REMARK   10  A    between atoms: C_15  and  O_16
REMARK                            x       y       z     vdW  Elec       q    Type
REMARK                         _______ _______ _______ _____ _____    ______ ____
ROOT
ATOM      1  C   UNL     1       8.389  -0.861  26.202  0.00  0.00    +0.223 C 
ENDROOT
BRANCH   1   3
ATOM      2  C   UNL     1       9.569   0.762  24.758  0.00  0.00    +0.236 C 
ATOM      3  N   UNL     1       9.388  -0.475  25.192  0.00  0.00    -0.241 N 
ATOM      4  H   UNL     1       9.990  -1.195  24.796  0.00  0.00    +0.291 HD
ATOM      5  N   UNL     1       8.876   1.806  25.166  0.00  0.00    -0.293 N 
ATOM      6  H   UNL     1       9.061   2.732  24.791  0.00  0.00    +0.301 HD
ATOM      7  H   UNL     1       8.136   1.736  25.850  0.00  0.00    +0.301 HD
BRANCH   2   8
ATOM      8  C   UNL     1      10.625   0.998  23.734  0.00  0.00    +0.123 C 
BRANCH   8  10
ATOM      9  C   UNL     1       9.417   0.510  21.546  0.00  0.00    +0.004 C 
ATOM     10  C   UNL     1      10.057   1.568  22.433  0.00  0.00    +0.008 C 
ENDBRANCH   8  10
ENDBRANCH   2   8
ENDBRANCH   1   3
BRANCH   1  11
ATOM     11  C   UNL     1       8.431  -2.369  26.434  0.00  0.00    +0.045 C 
BRANCH  11  12
ATOM     12  C   UNL     1       7.757  -3.102  25.271  0.00  0.00    +0.033 C 
BRANCH  12  13
ATOM     13  CA  UNL     1       8.676  -4.060  24.499  0.00  0.00    +0.161 C 
BRANCH  13  14
ATOM     14  N   UNL     1       9.956  -3.399  24.137  0.00  0.00    -0.318 NA
ATOM     15  H1  UNL     1       9.933  -2.442  24.514  0.00  0.00    +0.119 HD
ATOM     16  H2  UNL     1      10.713  -3.834  24.670  0.00  0.00    +0.119 HD
ENDBRANCH  13  14
BRANCH  13  17
ATOM     17  C   UNL     1       8.979  -5.259  25.411  0.00  0.00    +0.322 C 
ATOM     18  OXT UNL     1       8.162  -5.794  26.142  0.00  0.00    -0.249 OA
BRANCH  17  19
ATOM     19  O   UNL     1      10.290  -5.606  25.361  0.00  0.00    -0.480 OA
ATOM     20  H   UNL     1      10.337  -6.590  25.306  0.00  0.00    +0.295 HD
ENDBRANCH  17  19
ENDBRANCH  13  17
ENDBRANCH  12  13
ENDBRANCH  11  12
ENDBRANCH   1  11
TORSDOF 9
ENDMDL
MODEL 7
REMARK VINA RESULT:      -4.5      3.730      6.059
REMARK  Name = 
REMARK  10 active torsions:
REMARK  status: ('A' for Active; 'I' for Inactive)
REMARK    1  A    between atoms: C_1  and  C_2
REMARK    2  A    between atoms: C_2  and  C_3
REMARK    3  A    between atoms: C_3  and  C_4
REMARK    4  A    between atoms: N_8  and  C_9
REMARK    5  A    between atoms: C_9  and  C_10
REMARK    6  A    between atoms: C_10  and  C_11
REMARK    7  A    between atoms: C_11  and  CA_12
REMARK    8  A    between atoms: CA_12  and  N_14
REMARK    9  A    between atoms: CA_12  and  C_15
REMARK   10  A    between atoms: C_15  and  O_16
REMARK                            x       y       z     vdW  Elec       q    Type
REMARK                         _______ _______ _______ _____ _____    ______ ____
ROOT
ATOM      1  C   UNL     1       9.744  -2.435  23.735  0.00  0.00    +0.223 C 
ENDROOT
BRANCH   1   3
ATOM      2  C   UNL     1       8.253  -4.402  23.872  0.00  0.00    +0.236 C 
ATOM      3  N   UNL     1       8.564  -3.226  23.350  0.00  0.00    -0.241 N 
ATOM      4  H   UNL     1       7.934  -2.857  22.641  0.00  0.00    +0.291 HD
ATOM      5  N   UNL     1       8.960  -5.019  24.797  0.00  0.00    -0.293 N 
ATOM      6  H   UNL     1       8.669  -5.924  25.156  0.00  0.00    +0.301 HD
ATOM      7  H   UNL     1       9.813  -4.636  25.178  0.00  0.00    +0.301 HD
BRANCH   2   8
ATOM      8  C   UNL     1       7.021  -5.082  23.384  0.00  0.00    +0.123 C 
BRANCH   8  10
ATOM      9  C   UNL     1       6.232  -5.683  21.038  0.00  0.00    +0.004 C 
ATOM     10  C   UNL     1       7.275  -5.909  22.122  0.00  0.00    +0.008 C 
ENDBRANCH   8  10
ENDBRANCH   2   8
ENDBRANCH   1   3
BRANCH   1  11
ATOM     11  C   UNL     1      10.134  -1.488  22.602  0.00  0.00    +0.045 C 
BRANCH  11  12
ATOM     12  C   UNL     1       9.355  -0.175  22.720  0.00  0.00    +0.033 C 
BRANCH  12  13
ATOM     13  CA  UNL     1      10.225   1.090  22.678  0.00  0.00    +0.161 C 
BRANCH  13  14
ATOM     14  N   UNL     1       9.805   1.995  21.577  0.00  0.00    -0.318 NA
ATOM     15  H1  UNL     1      10.656   2.363  21.132  0.00  0.00    +0.119 HD
ATOM     16  H2  UNL     1       9.386   1.433  20.832  0.00  0.00    +0.119 HD
ENDBRANCH  13  14
BRANCH  13  17
ATOM     17  C   UNL     1      10.053   1.825  24.016  0.00  0.00    +0.322 C 
ATOM     18  OXT UNL     1       9.756   3.004  24.123  0.00  0.00    -0.249 OA
BRANCH  17  19
ATOM     19  O   UNL     1      10.347   1.022  25.069  0.00  0.00    -0.480 OA
ATOM     20  H   UNL     1       9.511   0.580  25.351  0.00  0.00    +0.295 HD
ENDBRANCH  17  19
ENDBRANCH  13  17
ENDBRANCH  12  13
ENDBRANCH  11  12
ENDBRANCH   1  11
TORSDOF 9
ENDMDL
MODEL 8
REMARK VINA RESULT:      -4.4      2.850      4.377
REMARK  Name = 
REMARK  10 active torsions:
REMARK  status: ('A' for Active; 'I' for Inactive)
REMARK    1  A    between atoms: C_1  and  C_2
REMARK    2  A    between atoms: C_2  and  C_3
REMARK    3  A    between atoms: C_3  and  C_4
REMARK    4  A    between atoms: N_8  and  C_9
REMARK    5  A    between atoms: C_9  and  C_10
REMARK    6  A    between atoms: C_10  and  C_11
REMARK    7  A    between atoms: C_11  and  CA_12
REMARK    8  A    between atoms: CA_12  and  N_14
REMARK    9  A    between atoms: CA_12  and  C_15
REMARK   10  A    between atoms: C_15  and  O_16
REMARK                            x       y       z     vdW  Elec       q    Type
REMARK                         _______ _______ _______ _____ _____    ______ ____
ROOT
ATOM      1  C   UNL     1       7.108  -2.493  26.130  0.00  0.00    +0.223 C 
ENDROOT
BRANCH   1   3
ATOM      2  C   UNL     1       6.323  -3.999  24.332  0.00  0.00    +0.236 C 
ATOM      3  N   UNL     1       6.997  -3.796  25.454  0.00  0.00    -0.241 N 
ATOM      4  H   UNL     1       7.468  -4.602  25.860  0.00  0.00    +0.291 HD
ATOM      5  N   UNL     1       5.659  -3.065  23.681  0.00  0.00    -0.293 N 
ATOM      6  H   UNL     1       5.157  -3.286  22.826  0.00  0.00    +0.301 HD
ATOM      7  H   UNL     1       5.609  -2.108  23.999  0.00  0.00    +0.301 HD
BRANCH   2   8
ATOM      8  C   UNL     1       6.306  -5.375  23.764  0.00  0.00    +0.123 C 
BRANCH   8  10
ATOM      9  C   UNL     1       6.541  -5.722  21.252  0.00  0.00    +0.004 C 
ATOM     10  C   UNL     1       7.261  -5.527  22.578  0.00  0.00    +0.008 C 
ENDBRANCH   8  10
ENDBRANCH   2   8
ENDBRANCH   1   3
BRANCH   1  11
ATOM     11  C   UNL     1       8.552  -2.001  26.088  0.00  0.00    +0.045 C 
BRANCH  11  12
ATOM     12  C   UNL     1       8.823  -1.267  24.771  0.00  0.00    +0.033 C 
BRANCH  12  13
ATOM     13  CA  UNL     1       9.785  -1.993  23.821  0.00  0.00    +0.161 C 
BRANCH  13  14
ATOM     14  N   UNL     1       9.901  -3.432  24.171  0.00  0.00    -0.318 NA
ATOM     15  H1  UNL     1       9.929  -3.504  25.197  0.00  0.00    +0.119 HD
ATOM     16  H2  UNL     1       9.022  -3.900  23.936  0.00  0.00    +0.119 HD
ENDBRANCH  13  14
BRANCH  13  17
ATOM     17  C   UNL     1       9.221  -1.874  22.397  0.00  0.00    +0.322 C 
ATOM     18  OXT UNL     1       8.062  -2.103  22.092  0.00  0.00    -0.249 OA
BRANCH  17  19
ATOM     19  O   UNL     1      10.188  -1.555  21.501  0.00  0.00    -0.480 OA
ATOM     20  H   UNL     1      10.810  -2.320  21.446  0.00  0.00    +0.295 HD
ENDBRANCH  17  19
ENDBRANCH  13  17
ENDBRANCH  12  13
ENDBRANCH  11  12
ENDBRANCH   1  11
TORSDOF 9
ENDMDL
MODEL 9
REMARK VINA RESULT:      -4.4      3.720      5.801
REMARK  Name = 
REMARK  10 active torsions:
REMARK  status: ('A' for Active; 'I' for Inactive)
REMARK    1  A    between atoms: C_1  and  C_2
REMARK    2  A    between atoms: C_2  and  C_3
REMARK    3  A    between atoms: C_3  and  C_4
REMARK    4  A    between atoms: N_8  and  C_9
REMARK    5  A    between atoms: C_9  and  C_10
REMARK    6  A    between atoms: C_10  and  C_11
REMARK    7  A    between atoms: C_11  and  CA_12
REMARK    8  A    between atoms: CA_12  and  N_14
REMARK    9  A    between atoms: CA_12  and  C_15
REMARK   10  A    between atoms: C_15  and  O_16
REMARK                            x       y       z     vdW  Elec       q    Type
REMARK                         _______ _______ _______ _____ _____    ______ ____
ROOT
ATOM      1  C   UNL     1       8.444  -2.425  24.429  0.00  0.00    +0.223 C 
ENDROOT
BRANCH   1   3
ATOM      2  C   UNL     1       7.489  -3.989  22.769  0.00  0.00    +0.236 C 
ATOM      3  N   UNL     1       8.173  -3.764  23.880  0.00  0.00    -0.241 N 
ATOM      4  H   UNL     1       8.532  -4.579  24.372  0.00  0.00    +0.291 HD
ATOM      5  N   UNL     1       6.957  -3.048  22.015  0.00  0.00    -0.293 N 
ATOM      6  H   UNL     1       6.439  -3.286  21.174  0.00  0.00    +0.301 HD
ATOM      7  H   UNL     1       7.027  -2.065  22.238  0.00  0.00    +0.301 HD
BRANCH   2   8
ATOM      8  C   UNL     1       7.300  -5.401  22.336  0.00  0.00    +0.123 C 
BRANCH   8  10
ATOM      9  C   UNL     1       4.839  -5.853  22.808  0.00  0.00    +0.004 C 
ATOM     10  C   UNL     1       5.910  -5.649  21.747  0.00  0.00    +0.008 C 
ENDBRANCH   8  10
ENDBRANCH   2   8
ENDBRANCH   1   3
BRANCH   1  11
ATOM     11  C   UNL     1       9.803  -1.925  23.947  0.00  0.00    +0.045 C 
BRANCH  11  12
ATOM     12  C   UNL     1       9.721  -0.441  23.578  0.00  0.00    +0.033 C 
BRANCH  12  13
ATOM     13  CA  UNL     1       9.999  -0.134  22.100  0.00  0.00    +0.161 C 
BRANCH  13  14
ATOM     14  N   UNL     1       9.448  -1.195  21.218  0.00  0.00    -0.318 NA
ATOM     15  H1  UNL     1       9.994  -2.052  21.381  0.00  0.00    +0.119 HD
ATOM     16  H2  UNL     1       8.518  -1.452  21.555  0.00  0.00    +0.119 HD
ENDBRANCH  13  14
BRANCH  13  17
ATOM     17  C   UNL     1       9.314   1.199  21.758  0.00  0.00    +0.322 C 
ATOM     18  OXT UNL     1       8.117   1.329  21.563  0.00  0.00    -0.249 OA
BRANCH  17  19
ATOM     19  O   UNL     1      10.216   2.204  21.625  0.00  0.00    -0.480 OA
ATOM     20  H   UNL     1      10.430   2.289  20.665  0.00  0.00    +0.295 HD
ENDBRANCH  17  19
ENDBRANCH  13  17
ENDBRANCH  12  13
ENDBRANCH  11  12
ENDBRANCH   1  11
TORSDOF 9
ENDMDL
