MODEL 1
REMARK VINA RESULT:      -6.2      0.000      0.000
REMARK  Name = 
REMARK  28 active torsions:
REMARK  status: ('A' for Active; 'I' for Inactive)
REMARK    1  A    between atoms: C_1  and  C_2
REMARK    2  A    between atoms: C_2  and  C_3
REMARK    3  A    between atoms: C_2  and  C_4
REMARK    4  A    between atoms: C_2  and  C_40
REMARK    5  A    between atoms: C_4  and  O_5
REMARK    6  A    between atoms: O_5  and  P_6
REMARK    7  A    between atoms: P_6  and  O_7
REMARK    8  A    between atoms: P_6  and  O_9
REMARK    9  A    between atoms: O_9  and  P_10
REMARK   10  A    between atoms: P_10  and  O_11
REMARK   11  A    between atoms: P_10  and  O_13
REMARK   12  A    between atoms: O_13  and  C_14
REMARK   13  A    between atoms: C_14  and  C_15
REMARK   14  A    between atoms: C_18  and  N_30
REMARK   15  A    between atoms: C_20  and  O_22
REMARK   16  A    between atoms: C_23  and  O_25
REMARK   17  A    between atoms: O_25  and  P_26
REMARK   18  A    between atoms: P_26  and  O_27
REMARK   19  A    between atoms: P_26  and  O_28
REMARK   20  A    between atoms: C_40  and  O_42
REMARK   21  A    between atoms: C_40  and  C_43
REMARK   22  A    between atoms: N_45  and  C_46
REMARK   23  A    between atoms: C_46  and  C_47
REMARK   24  A    between atoms: C_47  and  C_48
REMARK   25  A    between atoms: N_50  and  C_51
REMARK   26  A    between atoms: C_51  and  C_52
REMARK   27  A    between atoms: C_52  and  S_53
REMARK   28  A    between atoms: S_53  and  S_54
REMARK                            x       y       z     vdW  Elec       q    Type
REMARK                         _______ _______ _______ _____ _____    ______ ____
ROOT
ATOM      1  P   UNL     1       8.006  -4.213  26.199  0.00  0.00    +0.483 P 
ATOM      2  O   UNL     1       7.766  -5.082  25.011  0.00  0.00    -0.227 OA
ENDROOT
BRANCH   1   3
ATOM      3  O   UNL     1       9.182  -4.830  27.090  0.00  0.00    -0.302 OA
ATOM      4  H   UNL     1       9.056  -4.582  28.027  0.00  0.00    +0.222 HD
ENDBRANCH   1   3
BRANCH   1   5
ATOM      5  O   UNL     1       6.766  -4.158  27.222  0.00  0.00    -0.186 OA
BRANCH   5   6
ATOM      6  P   UNL     1       6.358  -5.703  27.883  0.00  0.00    +0.483 P 
ATOM      7  O   UNL     1       5.919  -5.084  29.210  0.00  0.00    -0.227 OA
BRANCH   6   8
ATOM      8  O   UNL     1       5.950  -7.250  28.544  0.00  0.00    -0.302 OA
ATOM      9  H   UNL     1       6.018  -7.838  27.764  0.00  0.00    +0.222 HD
ENDBRANCH   6   8
BRANCH   6  10
ATOM     10  O   UNL     1       4.992  -5.771  26.915  0.00  0.00    -0.286 OA
BRANCH  10  11
ATOM     11  C   UNL     1       3.788  -5.107  27.350  0.00  0.00    +0.181 C 
BRANCH  11  13
ATOM     12  C   UNL     1       2.329  -6.386  25.781  0.00  0.00    +0.016 C 
ATOM     13  C   UNL     1       2.709  -4.963  26.246  0.00  0.00    +0.024 C 
ATOM     14  C   UNL     1       1.416  -4.339  26.831  0.00  0.00    +0.016 C 
BRANCH  13  15
ATOM     15  C   UNL     1       3.264  -4.112  25.072  0.00  0.00    +0.208 C 
BRANCH  15  16
ATOM     16  C   UNL     1       3.536  -4.960  23.806  0.00  0.00    +0.242 C 
ATOM     17  N   UNL     1       4.833  -5.420  23.704  0.00  0.00    -0.313 N 
ATOM     18  H   UNL     1       5.284  -5.612  24.593  0.00  0.00    +0.149 HD
ATOM     19  O   UNL     1       2.703  -5.174  22.929  0.00  0.00    -0.273 OA
BRANCH  17  20
ATOM     20  C   UNL     1       5.185  -6.214  22.543  0.00  0.00    +0.113 C 
BRANCH  20  21
ATOM     21  C   UNL     1       6.497  -5.776  21.924  0.00  0.00    +0.114 C 
BRANCH  21  22
ATOM     22  C   UNL     1       6.515  -4.268  21.814  0.00  0.00    +0.215 C 
ATOM     23  N   UNL     1       7.666  -3.688  22.297  0.00  0.00    -0.314 N 
ATOM     24  H   UNL     1       8.289  -4.240  22.875  0.00  0.00    +0.149 HD
ATOM     25  O   UNL     1       5.608  -3.620  21.303  0.00  0.00    -0.276 OA
BRANCH  23  26
ATOM     26  C   UNL     1       7.810  -2.242  22.338  0.00  0.00    +0.115 C 
BRANCH  26  27
ATOM     27  C   UNL     1       9.267  -1.771  22.334  0.00  0.00    +0.099 C 
BRANCH  27  28
ATOM     28  S   UNL     1       9.387  -0.050  21.723  0.00  0.00    -0.095 S 
BRANCH  28  29
ATOM     29  S   UNL     1      10.530   0.838  23.180  0.00  0.00    -0.110 S 
ATOM     30  H   UNL     1      10.260   0.015  24.205  0.00  0.00    +0.114 HD
ENDBRANCH  28  29
ENDBRANCH  27  28
ENDBRANCH  26  27
ENDBRANCH  23  26
ENDBRANCH  21  22
ENDBRANCH  20  21
ENDBRANCH  17  20
ENDBRANCH  15  16
BRANCH  15  31
ATOM     31  O   UNL     1       4.468  -3.420  25.412  0.00  0.00    -0.382 OA
ATOM     32  H   UNL     1       4.917  -3.179  24.585  0.00  0.00    +0.210 HD
ENDBRANCH  15  31
ENDBRANCH  13  15
ENDBRANCH  11  13
ENDBRANCH  10  11
ENDBRANCH   6  10
ENDBRANCH   5   6
ENDBRANCH   1   5
BRANCH   1  33
ATOM     33  O   UNL     1       8.520  -2.715  25.878  0.00  0.00    -0.284 OA
BRANCH  33  34
ATOM     34  C   UNL     1       8.013  -1.647  26.659  0.00  0.00    +0.206 C 
BRANCH  34  35
ATOM     35  C   UNL     1       6.922  -0.788  25.984  0.00  0.00    +0.179 C 
ATOM     36  C   UNL     1       6.226   0.221  26.892  0.00  0.00    +0.194 C 
ATOM     37  C   UNL     1       6.738   1.580  26.455  0.00  0.00    +0.196 C 
ATOM     38  C   UNL     1       7.609   1.302  25.225  0.00  0.00    +0.253 C 
ATOM     39  O   UNL     1       7.393  -0.063  24.825  0.00  0.00    -0.346 OA
BRANCH  38  40
ATOM     40  N   UNL     1       7.317   2.237  24.141  0.00  0.00    -0.286 N 
ATOM     41  C   UNL     1       7.880   3.489  24.056  0.00  0.00    +0.167 A 
ATOM     42  N   UNL     1       8.746   4.048  24.918  0.00  0.00    -0.216 NA
ATOM     43  C   UNL     1       9.060   5.303  24.534  0.00  0.00    +0.225 A 
ATOM     44  N   UNL     1       8.617   5.985  23.458  0.00  0.00    -0.219 NA
ATOM     45  C   UNL     1       7.757   5.369  22.612  0.00  0.00    +0.147 A 
ATOM     46  N   UNL     1       7.326   6.088  21.506  0.00  0.00    -0.341 N 
ATOM     47  H   UNL     1       6.457   5.753  21.110  0.00  0.00    +0.144 HD
ATOM     48  H   UNL     1       7.441   7.085  21.627  0.00  0.00    +0.144 HD
ATOM     49  C   UNL     1       7.339   4.055  22.915  0.00  0.00    +0.147 A 
ATOM     50  N   UNL     1       6.449   3.180  22.325  0.00  0.00    -0.231 NA
ATOM     51  C   UNL     1       6.465   2.100  23.081  0.00  0.00    +0.203 A 
ENDBRANCH  38  40
BRANCH  37  52
ATOM     52  O   UNL     1       7.491   2.206  27.496  0.00  0.00    -0.385 OA
ATOM     53  H   UNL     1       6.867   2.813  27.943  0.00  0.00    +0.210 HD
ENDBRANCH  37  52
BRANCH  36  54
ATOM     54  O   UNL     1       4.843   0.132  26.541  0.00  0.00    -0.278 OA
BRANCH  54  55
ATOM     55  P   UNL     1       3.794  -0.552  27.526  0.00  0.00    +0.473 P 
ATOM     56  O   UNL     1       3.294   0.289  28.646  0.00  0.00    -0.228 OA
BRANCH  55  57
ATOM     57  O   UNL     1       2.679  -1.064  26.510  0.00  0.00    -0.303 OA
ATOM     58  H   UNL     1       2.855  -1.974  26.215  0.00  0.00    +0.222 HD
ENDBRANCH  55  57
BRANCH  55  59
ATOM     59  O   UNL     1       4.527  -1.895  27.972  0.00  0.00    -0.303 OA
ATOM     60  H   UNL     1       4.413  -2.070  28.923  0.00  0.00    +0.222 HD
ENDBRANCH  55  59
ENDBRANCH  54  55
ENDBRANCH  36  54
ENDBRANCH  34  35
ENDBRANCH  33  34
ENDBRANCH   1  33
TORSDOF 26
ENDMDL
MODEL 2
REMARK VINA RESULT:      -5.9      2.697      4.488
REMARK  Name = 
REMARK  28 active torsions:
REMARK  status: ('A' for Active; 'I' for Inactive)
REMARK    1  A    between atoms: C_1  and  C_2
REMARK    2  A    between atoms: C_2  and  C_3
REMARK    3  A    between atoms: C_2  and  C_4
REMARK    4  A    between atoms: C_2  and  C_40
REMARK    5  A    between atoms: C_4  and  O_5
REMARK    6  A    between atoms: O_5  and  P_6
REMARK    7  A    between atoms: P_6  and  O_7
REMARK    8  A    between atoms: P_6  and  O_9
REMARK    9  A    between atoms: O_9  and  P_10
REMARK   10  A    between atoms: P_10  and  O_11
REMARK   11  A    between atoms: P_10  and  O_13
REMARK   12  A    between atoms: O_13  and  C_14
REMARK   13  A    between atoms: C_14  and  C_15
REMARK   14  A    between atoms: C_18  and  N_30
REMARK   15  A    between atoms: C_20  and  O_22
REMARK   16  A    between atoms: C_23  and  O_25
REMARK   17  A    between atoms: O_25  and  P_26
REMARK   18  A    between atoms: P_26  and  O_27
REMARK   19  A    between atoms: P_26  and  O_28
REMARK   20  A    between atoms: C_40  and  O_42
REMARK   21  A    between atoms: C_40  and  C_43
REMARK   22  A    between atoms: N_45  and  C_46
REMARK   23  A    between atoms: C_46  and  C_47
REMARK   24  A    between atoms: C_47  and  C_48
REMARK   25  A    between atoms: N_50  and  C_51
REMARK   26  A    between atoms: C_51  and  C_52
REMARK   27  A    between atoms: C_52  and  S_53
REMARK   28  A    between atoms: S_53  and  S_54
REMARK                            x       y       z     vdW  Elec       q    Type
REMARK                         _______ _______ _______ _____ _____    ______ ____
ROOT
ATOM      1  P   UNL     1       7.854  -4.569  26.063  0.00  0.00    +0.483 P 
ATOM      2  O   UNL     1       7.962  -4.860  24.604  0.00  0.00    -0.227 OA
ENDROOT
BRANCH   1   3
ATOM      3  O   UNL     1       8.519  -5.758  26.901  0.00  0.00    -0.302 OA
ATOM      4  H   UNL     1       9.265  -5.416  27.431  0.00  0.00    +0.222 HD
ENDBRANCH   1   3
BRANCH   1   5
ATOM      5  O   UNL     1       6.341  -4.543  26.608  0.00  0.00    -0.186 OA
BRANCH   5   6
ATOM      6  P   UNL     1       5.904  -5.973  27.476  0.00  0.00    +0.483 P 
ATOM      7  O   UNL     1       6.232  -5.327  28.822  0.00  0.00    -0.227 OA
BRANCH   6   8
ATOM      8  O   UNL     1       5.466  -7.405  28.344  0.00  0.00    -0.302 OA
ATOM      9  H   UNL     1       6.299  -7.920  28.336  0.00  0.00    +0.222 HD
ENDBRANCH   6   8
BRANCH   6  10
ATOM     10  O   UNL     1       4.281  -5.669  27.186  0.00  0.00    -0.286 OA
BRANCH  10  11
ATOM     11  C   UNL     1       3.303  -6.662  27.554  0.00  0.00    +0.181 C 
BRANCH  11  13
ATOM     12  C   UNL     1       1.417  -5.069  27.189  0.00  0.00    +0.016 C 
ATOM     13  C   UNL     1       2.017  -6.077  28.193  0.00  0.00    +0.024 C 
ATOM     14  C   UNL     1       0.951  -7.189  28.379  0.00  0.00    +0.016 C 
BRANCH  13  15
ATOM     15  C   UNL     1       2.360  -5.396  29.545  0.00  0.00    +0.208 C 
BRANCH  15  16
ATOM     16  C   UNL     1       2.426  -3.854  29.429  0.00  0.00    +0.242 C 
ATOM     17  N   UNL     1       3.661  -3.368  29.052  0.00  0.00    -0.313 N 
ATOM     18  H   UNL     1       4.186  -3.982  28.436  0.00  0.00    +0.149 HD
ATOM     19  O   UNL     1       1.489  -3.104  29.692  0.00  0.00    -0.273 OA
BRANCH  17  20
ATOM     20  C   UNL     1       3.820  -1.932  28.928  0.00  0.00    +0.113 C 
BRANCH  20  21
ATOM     21  C   UNL     1       4.428  -1.534  27.597  0.00  0.00    +0.114 C 
BRANCH  21  22
ATOM     22  C   UNL     1       3.599  -2.121  26.477  0.00  0.00    +0.215 C 
ATOM     23  N   UNL     1       4.302  -2.961  25.645  0.00  0.00    -0.314 N 
ATOM     24  H   UNL     1       5.315  -2.953  25.682  0.00  0.00    +0.149 HD
ATOM     25  O   UNL     1       2.399  -1.906  26.344  0.00  0.00    -0.276 OA
BRANCH  23  26
ATOM     26  C   UNL     1       3.674  -3.546  24.473  0.00  0.00    +0.115 C 
BRANCH  26  27
ATOM     27  C   UNL     1       4.663  -3.907  23.361  0.00  0.00    +0.099 C 
BRANCH  27  28
ATOM     28  S   UNL     1       4.747  -5.721  23.135  0.00  0.00    -0.095 S 
BRANCH  28  29
ATOM     29  S   UNL     1       6.116  -5.895  21.614  0.00  0.00    -0.110 S 
ATOM     30  H   UNL     1       7.250  -5.834  22.329  0.00  0.00    +0.114 HD
ENDBRANCH  28  29
ENDBRANCH  27  28
ENDBRANCH  26  27
ENDBRANCH  23  26
ENDBRANCH  21  22
ENDBRANCH  20  21
ENDBRANCH  17  20
ENDBRANCH  15  16
BRANCH  15  31
ATOM     31  O   UNL     1       3.599  -5.853  30.096  0.00  0.00    -0.382 OA
ATOM     32  H   UNL     1       3.405  -6.603  30.682  0.00  0.00    +0.210 HD
ENDBRANCH  15  31
ENDBRANCH  13  15
ENDBRANCH  11  13
ENDBRANCH  10  11
ENDBRANCH   6  10
ENDBRANCH   5   6
ENDBRANCH   1   5
BRANCH   1  33
ATOM     33  O   UNL     1       8.645  -3.256  26.575  0.00  0.00    -0.284 OA
BRANCH  33  34
ATOM     34  C   UNL     1       7.955  -2.019  26.597  0.00  0.00    +0.206 C 
BRANCH  34  35
ATOM     35  C   UNL     1       8.429  -0.974  25.565  0.00  0.00    +0.179 C 
ATOM     36  C   UNL     1       7.589  -0.875  24.295  0.00  0.00    +0.194 C 
ATOM     37  C   UNL     1       6.838   0.438  24.407  0.00  0.00    +0.196 C 
ATOM     38  C   UNL     1       7.381   1.102  25.678  0.00  0.00    +0.253 C 
ATOM     39  O   UNL     1       8.539   0.363  26.106  0.00  0.00    -0.346 OA
BRANCH  38  40
ATOM     40  N   UNL     1       7.690   2.512  25.453  0.00  0.00    -0.286 N 
ATOM     41  C   UNL     1       8.779   2.936  24.727  0.00  0.00    +0.167 A 
ATOM     42  N   UNL     1       9.709   2.166  24.136  0.00  0.00    -0.216 NA
ATOM     43  C   UNL     1      10.651   2.927  23.540  0.00  0.00    +0.225 A 
ATOM     44  N   UNL     1      10.734   4.272  23.493  0.00  0.00    -0.219 NA
ATOM     45  C   UNL     1       9.761   5.001  24.090  0.00  0.00    +0.147 A 
ATOM     46  N   UNL     1       9.863   6.383  24.016  0.00  0.00    -0.341 N 
ATOM     47  H   UNL     1       9.349   6.874  24.737  0.00  0.00    +0.144 HD
ATOM     48  H   UNL     1      10.806   6.688  23.813  0.00  0.00    +0.144 HD
ATOM     49  C   UNL     1       8.726   4.318  24.764  0.00  0.00    +0.147 A 
ATOM     50  N   UNL     1       7.642   4.733  25.513  0.00  0.00    -0.231 NA
ATOM     51  C   UNL     1       7.042   3.626  25.903  0.00  0.00    +0.203 A 
ENDBRANCH  38  40
BRANCH  37  52
ATOM     52  O   UNL     1       5.429   0.220  24.494  0.00  0.00    -0.385 OA
ATOM     53  H   UNL     1       5.323  -0.626  24.971  0.00  0.00    +0.210 HD
ENDBRANCH  37  52
BRANCH  36  54
ATOM     54  O   UNL     1       8.542  -0.756  23.237  0.00  0.00    -0.278 OA
BRANCH  54  55
ATOM     55  P   UNL     1       9.285  -2.041  22.660  0.00  0.00    +0.473 P 
ATOM     56  O   UNL     1      10.296  -2.674  23.548  0.00  0.00    -0.228 OA
BRANCH  55  57
ATOM     57  O   UNL     1       8.058  -2.974  22.256  0.00  0.00    -0.303 OA
ATOM     58  H   UNL     1       7.587  -3.305  23.041  0.00  0.00    +0.222 HD
ENDBRANCH  55  57
BRANCH  55  59
ATOM     59  O   UNL     1       9.846  -1.544  21.254  0.00  0.00    -0.303 OA
ATOM     60  H   UNL     1      10.595  -0.931  21.360  0.00  0.00    +0.222 HD
ENDBRANCH  55  59
ENDBRANCH  54  55
ENDBRANCH  36  54
ENDBRANCH  34  35
ENDBRANCH  33  34
ENDBRANCH   1  33
TORSDOF 26
ENDMDL
MODEL 3
REMARK VINA RESULT:      -5.9      2.799      5.747
REMARK  Name = 
REMARK  28 active torsions:
REMARK  status: ('A' for Active; 'I' for Inactive)
REMARK    1  A    between atoms: C_1  and  C_2
REMARK    2  A    between atoms: C_2  and  C_3
REMARK    3  A    between atoms: C_2  and  C_4
REMARK    4  A    between atoms: C_2  and  C_40
REMARK    5  A    between atoms: C_4  and  O_5
REMARK    6  A    between atoms: O_5  and  P_6
REMARK    7  A    between atoms: P_6  and  O_7
REMARK    8  A    between atoms: P_6  and  O_9
REMARK    9  A    between atoms: O_9  and  P_10
REMARK   10  A    between atoms: P_10  and  O_11
REMARK   11  A    between atoms: P_10  and  O_13
REMARK   12  A    between atoms: O_13  and  C_14
REMARK   13  A    between atoms: C_14  and  C_15
REMARK   14  A    between atoms: C_18  and  N_30
REMARK   15  A    between atoms: C_20  and  O_22
REMARK   16  A    between atoms: C_23  and  O_25
REMARK   17  A    between atoms: O_25  and  P_26
REMARK   18  A    between atoms: P_26  and  O_27
REMARK   19  A    between atoms: P_26  and  O_28
REMARK   20  A    between atoms: C_40  and  O_42
REMARK   21  A    between atoms: C_40  and  C_43
REMARK   22  A    between atoms: N_45  and  C_46
REMARK   23  A    between atoms: C_46  and  C_47
REMARK   24  A    between atoms: C_47  and  C_48
REMARK   25  A    between atoms: N_50  and  C_51
REMARK   26  A    between atoms: C_51  and  C_52
REMARK   27  A    between atoms: C_52  and  S_53
REMARK   28  A    between atoms: S_53  and  S_54
REMARK                            x       y       z     vdW  Elec       q    Type
REMARK                         _______ _______ _______ _____ _____    ______ ____
ROOT
ATOM      1  P   UNL     1       6.606  -5.266  27.352  0.00  0.00    +0.483 P 
ATOM      2  O   UNL     1       5.947  -6.276  26.475  0.00  0.00    -0.227 OA
ENDROOT
BRANCH   1   3
ATOM      3  O   UNL     1       6.742  -5.847  28.836  0.00  0.00    -0.302 OA
ATOM      4  H   UNL     1       7.594  -6.316  28.934  0.00  0.00    +0.222 HD
ENDBRANCH   1   3
BRANCH   1   5
ATOM      5  O   UNL     1       5.739  -3.928  27.565  0.00  0.00    -0.186 OA
BRANCH   5   6
ATOM      6  P   UNL     1       4.043  -4.170  27.333  0.00  0.00    +0.483 P 
ATOM      7  O   UNL     1       3.888  -4.820  28.708  0.00  0.00    -0.227 OA
BRANCH   6   8
ATOM      8  O   UNL     1       2.345  -4.412  27.100  0.00  0.00    -0.302 OA
ATOM      9  H   UNL     1       2.177  -5.232  27.607  0.00  0.00    +0.222 HD
ENDBRANCH   6   8
BRANCH   6  10
ATOM     10  O   UNL     1       3.766  -2.531  27.549  0.00  0.00    -0.286 OA
BRANCH  10  11
ATOM     11  C   UNL     1       4.808  -1.711  28.116  0.00  0.00    +0.181 C 
BRANCH  11  13
ATOM     12  C   UNL     1       3.188  -0.001  27.294  0.00  0.00    +0.016 C 
ATOM     13  C   UNL     1       4.548  -0.187  28.002  0.00  0.00    +0.024 C 
ATOM     14  C   UNL     1       4.394   0.444  29.410  0.00  0.00    +0.016 C 
BRANCH  13  15
ATOM     15  C   UNL     1       5.698   0.488  27.206  0.00  0.00    +0.208 C 
BRANCH  15  16
ATOM     16  C   UNL     1       5.311   0.770  25.734  0.00  0.00    +0.242 C 
ATOM     17  N   UNL     1       5.157   2.108  25.438  0.00  0.00    -0.313 N 
ATOM     18  H   UNL     1       5.758   2.730  25.969  0.00  0.00    +0.149 HD
ATOM     19  O   UNL     1       5.103  -0.106  24.898  0.00  0.00    -0.273 OA
BRANCH  17  20
ATOM     20  C   UNL     1       4.782   2.468  24.083  0.00  0.00    +0.113 C 
BRANCH  20  21
ATOM     21  C   UNL     1       5.989   2.669  23.188  0.00  0.00    +0.114 C 
BRANCH  21  22
ATOM     22  C   UNL     1       6.074   4.125  22.790  0.00  0.00    +0.215 C 
ATOM     23  N   UNL     1       7.348   4.544  22.481  0.00  0.00    -0.314 N 
ATOM     24  H   UNL     1       8.134   3.963  22.748  0.00  0.00    +0.149 HD
ATOM     25  O   UNL     1       5.095   4.859  22.706  0.00  0.00    -0.276 OA
BRANCH  23  26
ATOM     26  C   UNL     1       7.616   5.935  22.155  0.00  0.00    +0.115 C 
BRANCH  26  27
ATOM     27  C   UNL     1       7.904   6.808  23.379  0.00  0.00    +0.099 C 
BRANCH  27  28
ATOM     28  S   UNL     1       9.153   6.017  24.457  0.00  0.00    -0.095 S 
BRANCH  28  29
ATOM     29  S   UNL     1       7.998   5.318  26.003  0.00  0.00    -0.110 S 
ATOM     30  H   UNL     1       7.068   6.285  26.039  0.00  0.00    +0.114 HD
ENDBRANCH  28  29
ENDBRANCH  27  28
ENDBRANCH  26  27
ENDBRANCH  23  26
ENDBRANCH  21  22
ENDBRANCH  20  21
ENDBRANCH  17  20
ENDBRANCH  15  16
BRANCH  15  31
ATOM     31  O   UNL     1       6.901  -0.287  27.209  0.00  0.00    -0.382 OA
ATOM     32  H   UNL     1       7.480   0.061  26.511  0.00  0.00    +0.210 HD
ENDBRANCH  15  31
ENDBRANCH  13  15
ENDBRANCH  11  13
ENDBRANCH  10  11
ENDBRANCH   6  10
ENDBRANCH   5   6
ENDBRANCH   1   5
BRANCH   1  33
ATOM     33  O   UNL     1       8.124  -4.879  26.956  0.00  0.00    -0.284 OA
BRANCH  33  34
ATOM     34  C   UNL     1       8.755  -5.604  25.915  0.00  0.00    +0.206 C 
BRANCH  34  35
ATOM     35  C   UNL     1       8.652  -4.975  24.509  0.00  0.00    +0.179 C 
ATOM     36  C   UNL     1       7.262  -4.494  24.103  0.00  0.00    +0.194 C 
ATOM     37  C   UNL     1       7.331  -2.979  24.134  0.00  0.00    +0.196 C 
ATOM     38  C   UNL     1       8.800  -2.653  24.429  0.00  0.00    +0.253 C 
ATOM     39  O   UNL     1       9.561  -3.868  24.304  0.00  0.00    -0.346 OA
BRANCH  38  40
ATOM     40  N   UNL     1       9.302  -1.606  23.544  0.00  0.00    -0.286 N 
ATOM     41  C   UNL     1       9.293  -0.271  23.876  0.00  0.00    +0.167 A 
ATOM     42  N   UNL     1       8.832   0.277  25.014  0.00  0.00    -0.216 NA
ATOM     43  C   UNL     1       8.951   1.621  24.979  0.00  0.00    +0.225 A 
ATOM     44  N   UNL     1       9.446   2.392  23.989  0.00  0.00    -0.219 NA
ATOM     45  C   UNL     1       9.913   1.788  22.871  0.00  0.00    +0.147 A 
ATOM     46  N   UNL     1      10.428   2.603  21.873  0.00  0.00    -0.341 N 
ATOM     47  H   UNL     1      10.436   2.177  20.956  0.00  0.00    +0.144 HD
ATOM     48  H   UNL     1      10.103   3.558  21.952  0.00  0.00    +0.144 HD
ATOM     49  C   UNL     1       9.827   0.382  22.780  0.00  0.00    +0.147 A 
ATOM     50  N   UNL     1      10.138  -0.528  21.789  0.00  0.00    -0.231 NA
ATOM     51  C   UNL     1       9.818  -1.707  22.282  0.00  0.00    +0.203 A 
ENDBRANCH  38  40
BRANCH  37  52
ATOM     52  O   UNL     1       6.467  -2.444  25.137  0.00  0.00    -0.385 OA
ATOM     53  H   UNL     1       6.579  -1.474  25.091  0.00  0.00    +0.210 HD
ENDBRANCH  37  52
BRANCH  36  54
ATOM     54  O   UNL     1       7.118  -4.907  22.742  0.00  0.00    -0.278 OA
BRANCH  54  55
ATOM     55  P   UNL     1       5.737  -5.496  22.211  0.00  0.00    +0.473 P 
ATOM     56  O   UNL     1       5.717  -5.961  20.799  0.00  0.00    -0.228 OA
BRANCH  55  57
ATOM     57  O   UNL     1       5.419  -6.615  23.299  0.00  0.00    -0.303 OA
ATOM     58  H   UNL     1       5.049  -6.229  24.112  0.00  0.00    +0.222 HD
ENDBRANCH  55  57
BRANCH  55  59
ATOM     59  O   UNL     1       4.688  -4.345  22.552  0.00  0.00    -0.303 OA
ATOM     60  H   UNL     1       4.317  -4.448  23.446  0.00  0.00    +0.222 HD
ENDBRANCH  55  59
ENDBRANCH  54  55
ENDBRANCH  36  54
ENDBRANCH  34  35
ENDBRANCH  33  34
ENDBRANCH   1  33
TORSDOF 26
ENDMDL
MODEL 4
REMARK VINA RESULT:      -5.8      1.799      2.769
REMARK  Name = 
REMARK  28 active torsions:
REMARK  status: ('A' for Active; 'I' for Inactive)
REMARK    1  A    between atoms: C_1  and  C_2
REMARK    2  A    between atoms: C_2  and  C_3
REMARK    3  A    between atoms: C_2  and  C_4
REMARK    4  A    between atoms: C_2  and  C_40
REMARK    5  A    between atoms: C_4  and  O_5
REMARK    6  A    between atoms: O_5  and  P_6
REMARK    7  A    between atoms: P_6  and  O_7
REMARK    8  A    between atoms: P_6  and  O_9
REMARK    9  A    between atoms: O_9  and  P_10
REMARK   10  A    between atoms: P_10  and  O_11
REMARK   11  A    between atoms: P_10  and  O_13
REMARK   12  A    between atoms: O_13  and  C_14
REMARK   13  A    between atoms: C_14  and  C_15
REMARK   14  A    between atoms: C_18  and  N_30
REMARK   15  A    between atoms: C_20  and  O_22
REMARK   16  A    between atoms: C_23  and  O_25
REMARK   17  A    between atoms: O_25  and  P_26
REMARK   18  A    between atoms: P_26  and  O_27
REMARK   19  A    between atoms: P_26  and  O_28
REMARK   20  A    between atoms: C_40  and  O_42
REMARK   21  A    between atoms: C_40  and  C_43
REMARK   22  A    between atoms: N_45  and  C_46
REMARK   23  A    between atoms: C_46  and  C_47
REMARK   24  A    between atoms: C_47  and  C_48
REMARK   25  A    between atoms: N_50  and  C_51
REMARK   26  A    between atoms: C_51  and  C_52
REMARK   27  A    between atoms: C_52  and  S_53
REMARK   28  A    between atoms: S_53  and  S_54
REMARK                            x       y       z     vdW  Elec       q    Type
REMARK                         _______ _______ _______ _____ _____    ______ ____
ROOT
ATOM      1  P   UNL     1       6.015  -2.368  26.601  0.00  0.00    +0.483 P 
ATOM      2  O   UNL     1       5.631  -2.372  25.160  0.00  0.00    -0.227 OA
ENDROOT
BRANCH   1   3
ATOM      3  O   UNL     1       7.572  -2.034  26.744  0.00  0.00    -0.302 OA
ATOM      4  H   UNL     1       7.970  -2.590  27.443  0.00  0.00    +0.222 HD
ENDBRANCH   1   3
BRANCH   1   5
ATOM      5  O   UNL     1       5.886  -3.807  27.309  0.00  0.00    -0.186 OA
BRANCH   5   6
ATOM      6  P   UNL     1       7.153  -4.899  26.869  0.00  0.00    +0.483 P 
ATOM      7  O   UNL     1       7.155  -5.545  28.254  0.00  0.00    -0.227 OA
BRANCH   6   8
ATOM      8  O   UNL     1       8.421  -5.992  26.429  0.00  0.00    -0.302 OA
ATOM      9  H   UNL     1       8.953  -5.457  25.804  0.00  0.00    +0.222 HD
ENDBRANCH   6   8
BRANCH   6  10
ATOM     10  O   UNL     1       6.082  -5.785  25.933  0.00  0.00    -0.286 OA
BRANCH  10  11
ATOM     11  C   UNL     1       4.967  -6.440  26.570  0.00  0.00    +0.181 C 
BRANCH  11  13
ATOM     12  C   UNL     1       2.552  -7.070  26.588  0.00  0.00    +0.016 C 
ATOM     13  C   UNL     1       3.674  -6.466  25.715  0.00  0.00    +0.024 C 
ATOM     14  C   UNL     1       3.224  -5.023  25.369  0.00  0.00    +0.016 C 
BRANCH  13  15
ATOM     15  C   UNL     1       3.907  -7.306  24.430  0.00  0.00    +0.208 C 
BRANCH  15  16
ATOM     16  C   UNL     1       4.246  -6.425  23.203  0.00  0.00    +0.242 C 
ATOM     17  N   UNL     1       5.596  -6.329  22.933  0.00  0.00    -0.313 N 
ATOM     18  H   UNL     1       6.134  -7.156  23.173  0.00  0.00    +0.149 HD
ATOM     19  O   UNL     1       3.410  -5.813  22.543  0.00  0.00    -0.273 OA
BRANCH  17  20
ATOM     20  C   UNL     1       6.010  -5.514  21.808  0.00  0.00    +0.113 C 
BRANCH  20  21
ATOM     21  C   UNL     1       6.375  -4.103  22.225  0.00  0.00    +0.114 C 
BRANCH  21  22
ATOM     22  C   UNL     1       7.687  -4.130  22.975  0.00  0.00    +0.215 C 
ATOM     23  N   UNL     1       8.222  -2.884  23.209  0.00  0.00    -0.314 N 
ATOM     24  H   UNL     1       7.857  -2.090  22.696  0.00  0.00    +0.149 HD
ATOM     25  O   UNL     1       8.210  -5.164  23.378  0.00  0.00    -0.276 OA
BRANCH  23  26
ATOM     26  C   UNL     1       9.518  -2.738  23.849  0.00  0.00    +0.115 C 
BRANCH  26  27
ATOM     27  C   UNL     1       9.792  -1.323  24.366  0.00  0.00    +0.099 C 
BRANCH  27  28
ATOM     28  S   UNL     1      10.245  -0.208  22.988  0.00  0.00    -0.095 S 
BRANCH  28  29
ATOM     29  S   UNL     1      10.599   1.560  23.972  0.00  0.00    -0.110 S 
ATOM     30  H   UNL     1      11.095   2.283  22.956  0.00  0.00    +0.114 HD
ENDBRANCH  28  29
ENDBRANCH  27  28
ENDBRANCH  26  27
ENDBRANCH  23  26
ENDBRANCH  21  22
ENDBRANCH  20  21
ENDBRANCH  17  20
ENDBRANCH  15  16
BRANCH  15  31
ATOM     31  O   UNL     1       2.783  -8.124  24.093  0.00  0.00    -0.382 OA
ATOM     32  H   UNL     1       2.942  -8.500  23.212  0.00  0.00    +0.210 HD
ENDBRANCH  15  31
ENDBRANCH  13  15
ENDBRANCH  11  13
ENDBRANCH  10  11
ENDBRANCH   6  10
ENDBRANCH   5   6
ENDBRANCH   1   5
BRANCH   1  33
ATOM     33  O   UNL     1       5.300  -1.242  27.513  0.00  0.00    -0.284 OA
BRANCH  33  34
ATOM     34  C   UNL     1       4.299  -0.432  26.923  0.00  0.00    +0.206 C 
BRANCH  34  35
ATOM     35  C   UNL     1       4.727   1.010  26.577  0.00  0.00    +0.179 C 
ATOM     36  C   UNL     1       5.986   1.509  27.280  0.00  0.00    +0.194 C 
ATOM     37  C   UNL     1       7.057   1.559  26.207  0.00  0.00    +0.196 C 
ATOM     38  C   UNL     1       6.331   1.212  24.902  0.00  0.00    +0.253 C 
ATOM     39  O   UNL     1       4.915   1.232  25.160  0.00  0.00    -0.346 OA
BRANCH  38  40
ATOM     40  N   UNL     1       6.699   2.129  23.826  0.00  0.00    -0.286 N 
ATOM     41  C   UNL     1       6.630   3.497  23.948  0.00  0.00    +0.167 A 
ATOM     42  N   UNL     1       6.221   4.195  25.022  0.00  0.00    -0.216 NA
ATOM     43  C   UNL     1       6.253   5.521  24.771  0.00  0.00    +0.225 A 
ATOM     44  N   UNL     1       6.623   6.149  23.636  0.00  0.00    -0.219 NA
ATOM     45  C   UNL     1       7.042   5.399  22.590  0.00  0.00    +0.147 A 
ATOM     46  N   UNL     1       7.430   6.071  21.438  0.00  0.00    -0.341 N 
ATOM     47  H   UNL     1       7.397   5.505  20.600  0.00  0.00    +0.144 HD
ATOM     48  H   UNL     1       7.052   7.008  21.395  0.00  0.00    +0.144 HD
ATOM     49  C   UNL     1       7.039   3.994  22.724  0.00  0.00    +0.147 A 
ATOM     50  N   UNL     1       7.332   2.955  21.862  0.00  0.00    -0.231 NA
ATOM     51  C   UNL     1       7.124   1.854  22.557  0.00  0.00    +0.203 A 
ENDBRANCH  38  40
BRANCH  37  52
ATOM     52  O   UNL     1       8.106   0.631  26.482  0.00  0.00    -0.385 OA
ATOM     53  H   UNL     1       8.174   0.592  27.457  0.00  0.00    +0.210 HD
ENDBRANCH  37  52
BRANCH  36  54
ATOM     54  O   UNL     1       5.678   2.850  27.667  0.00  0.00    -0.278 OA
BRANCH  54  55
ATOM     55  P   UNL     1       6.548   3.600  28.770  0.00  0.00    +0.473 P 
ATOM     56  O   UNL     1       5.801   4.180  29.918  0.00  0.00    -0.228 OA
BRANCH  55  57
ATOM     57  O   UNL     1       7.622   2.487  29.151  0.00  0.00    -0.303 OA
ATOM     58  H   UNL     1       8.490   2.880  29.347  0.00  0.00    +0.222 HD
ENDBRANCH  55  57
BRANCH  55  59
ATOM     59  O   UNL     1       7.395   4.651  27.923  0.00  0.00    -0.303 OA
ATOM     60  H   UNL     1       6.884   5.458  27.734  0.00  0.00    +0.222 HD
ENDBRANCH  55  59
ENDBRANCH  54  55
ENDBRANCH  36  54
ENDBRANCH  34  35
ENDBRANCH  33  34
ENDBRANCH   1  33
TORSDOF 26
ENDMDL
MODEL 5
REMARK VINA RESULT:      -5.8      3.462      9.375
REMARK  Name = 
REMARK  28 active torsions:
REMARK  status: ('A' for Active; 'I' for Inactive)
REMARK    1  A    between atoms: C_1  and  C_2
REMARK    2  A    between atoms: C_2  and  C_3
REMARK    3  A    between atoms: C_2  and  C_4
REMARK    4  A    between atoms: C_2  and  C_40
REMARK    5  A    between atoms: C_4  and  O_5
REMARK    6  A    between atoms: O_5  and  P_6
REMARK    7  A    between atoms: P_6  and  O_7
REMARK    8  A    between atoms: P_6  and  O_9
REMARK    9  A    between atoms: O_9  and  P_10
REMARK   10  A    between atoms: P_10  and  O_11
REMARK   11  A    between atoms: P_10  and  O_13
REMARK   12  A    between atoms: O_13  and  C_14
REMARK   13  A    between atoms: C_14  and  C_15
REMARK   14  A    between atoms: C_18  and  N_30
REMARK   15  A    between atoms: C_20  and  O_22
REMARK   16  A    between atoms: C_23  and  O_25
REMARK   17  A    between atoms: O_25  and  P_26
REMARK   18  A    between atoms: P_26  and  O_27
REMARK   19  A    between atoms: P_26  and  O_28
REMARK   20  A    between atoms: C_40  and  O_42
REMARK   21  A    between atoms: C_40  and  C_43
REMARK   22  A    between atoms: N_45  and  C_46
REMARK   23  A    between atoms: C_46  and  C_47
REMARK   24  A    between atoms: C_47  and  C_48
REMARK   25  A    between atoms: N_50  and  C_51
REMARK   26  A    between atoms: C_51  and  C_52
REMARK   27  A    between atoms: C_52  and  S_53
REMARK   28  A    between atoms: S_53  and  S_54
REMARK                            x       y       z     vdW  Elec       q    Type
REMARK                         _______ _______ _______ _____ _____    ______ ____
ROOT
ATOM      1  P   UNL     1       9.609  -1.906  22.844  0.00  0.00    +0.483 P 
ATOM      2  O   UNL     1      10.655  -2.686  23.568  0.00  0.00    -0.227 OA
ENDROOT
BRANCH   1   3
ATOM      3  O   UNL     1      10.153  -1.484  21.401  0.00  0.00    -0.302 OA
ATOM      4  H   UNL     1       9.506  -0.900  20.958  0.00  0.00    +0.222 HD
ENDBRANCH   1   3
BRANCH   1   5
ATOM      5  O   UNL     1       9.265  -0.493  23.529  0.00  0.00    -0.186 OA
BRANCH   5   6
ATOM      6  P   UNL     1       9.757   0.865  22.578  0.00  0.00    +0.483 P 
ATOM      7  O   UNL     1       8.367   1.008  21.959  0.00  0.00    -0.227 OA
BRANCH   6   8
ATOM      8  O   UNL     1      10.251   2.223  21.627  0.00  0.00    -0.302 OA
ATOM      9  H   UNL     1      10.875   1.819  20.990  0.00  0.00    +0.222 HD
ENDBRANCH   6   8
BRANCH   6  10
ATOM     10  O   UNL     1       9.769   1.834  23.945  0.00  0.00    -0.286 OA
BRANCH  10  11
ATOM     11  C   UNL     1       9.655   3.264  23.795  0.00  0.00    +0.181 C 
BRANCH  11  13
ATOM     12  C   UNL     1       7.755   2.797  25.344  0.00  0.00    +0.016 C 
ATOM     13  C   UNL     1       8.363   3.864  24.408  0.00  0.00    +0.024 C 
ATOM     14  C   UNL     1       8.705   5.082  25.305  0.00  0.00    +0.016 C 
BRANCH  13  15
ATOM     15  C   UNL     1       7.374   4.257  23.278  0.00  0.00    +0.208 C 
BRANCH  15  16
ATOM     16  C   UNL     1       5.989   3.587  23.446  0.00  0.00    +0.242 C 
ATOM     17  N   UNL     1       5.135   4.261  24.294  0.00  0.00    -0.313 N 
ATOM     18  H   UNL     1       5.254   5.270  24.299  0.00  0.00    +0.149 HD
ATOM     19  O   UNL     1       5.672   2.522  22.922  0.00  0.00    -0.273 OA
BRANCH  17  20
ATOM     20  C   UNL     1       3.818   3.700  24.522  0.00  0.00    +0.113 C 
BRANCH  20  21
ATOM     21  C   UNL     1       3.330   3.938  25.938  0.00  0.00    +0.114 C 
BRANCH  21  22
ATOM     22  C   UNL     1       4.502   3.850  26.889  0.00  0.00    +0.215 C 
ATOM     23  N   UNL     1       4.656   2.612  27.470  0.00  0.00    -0.314 N 
ATOM     24  H   UNL     1       3.893   1.947  27.418  0.00  0.00    +0.149 HD
ATOM     25  O   UNL     1       5.274   4.781  27.094  0.00  0.00    -0.276 OA
BRANCH  23  26
ATOM     26  C   UNL     1       5.686   2.381  28.468  0.00  0.00    +0.115 C 
BRANCH  26  27
ATOM     27  C   UNL     1       5.943   0.899  28.754  0.00  0.00    +0.099 C 
BRANCH  27  28
ATOM     28  S   UNL     1       4.541   0.167  29.675  0.00  0.00    -0.095 S 
BRANCH  28  29
ATOM     29  S   UNL     1       4.065  -1.452  28.506  0.00  0.00    -0.110 S 
ATOM     30  H   UNL     1       5.165  -2.197  28.701  0.00  0.00    +0.114 HD
ENDBRANCH  28  29
ENDBRANCH  27  28
ENDBRANCH  26  27
ENDBRANCH  23  26
ENDBRANCH  21  22
ENDBRANCH  20  21
ENDBRANCH  17  20
ENDBRANCH  15  16
BRANCH  15  31
ATOM     31  O   UNL     1       7.868   3.936  21.974  0.00  0.00    -0.382 OA
ATOM     32  H   UNL     1       7.612   3.021  21.776  0.00  0.00    +0.210 HD
ENDBRANCH  15  31
ENDBRANCH  13  15
ENDBRANCH  11  13
ENDBRANCH  10  11
ENDBRANCH   6  10
ENDBRANCH   5   6
ENDBRANCH   1   5
BRANCH   1  33
ATOM     33  O   UNL     1       8.243  -2.705  22.516  0.00  0.00    -0.284 OA
BRANCH  33  34
ATOM     34  C   UNL     1       7.939  -3.861  23.276  0.00  0.00    +0.206 C 
BRANCH  34  35
ATOM     35  C   UNL     1       6.872  -3.673  24.375  0.00  0.00    +0.179 C 
ATOM     36  C   UNL     1       5.579  -2.995  23.929  0.00  0.00    +0.194 C 
ATOM     37  C   UNL     1       4.530  -4.090  23.919  0.00  0.00    +0.196 C 
ATOM     38  C   UNL     1       5.237  -5.326  24.489  0.00  0.00    +0.253 C 
ATOM     39  O   UNL     1       6.500  -4.904  25.036  0.00  0.00    -0.346 OA
BRANCH  38  40
ATOM     40  N   UNL     1       4.411  -5.999  25.488  0.00  0.00    -0.286 N 
ATOM     41  C   UNL     1       3.359  -6.823  25.163  0.00  0.00    +0.167 A 
ATOM     42  N   UNL     1       2.921  -7.128  23.929  0.00  0.00    -0.216 NA
ATOM     43  C   UNL     1       1.844  -7.940  23.992  0.00  0.00    +0.225 A 
ATOM     44  N   UNL     1       1.224  -8.424  25.087  0.00  0.00    -0.219 NA
ATOM     45  C   UNL     1       1.716  -8.099  26.306  0.00  0.00    +0.147 A 
ATOM     46  N   UNL     1       1.067  -8.620  27.417  0.00  0.00    -0.341 N 
ATOM     47  H   UNL     1       1.227  -8.100  28.270  0.00  0.00    +0.144 HD
ATOM     48  H   UNL     1       0.121  -8.912  27.206  0.00  0.00    +0.144 HD
ATOM     49  C   UNL     1       2.834  -7.239  26.373  0.00  0.00    +0.147 A 
ATOM     50  N   UNL     1       3.534  -6.668  27.418  0.00  0.00    -0.231 NA
ATOM     51  C   UNL     1       4.474  -5.938  26.852  0.00  0.00    +0.203 A 
ENDBRANCH  38  40
BRANCH  37  52
ATOM     52  O   UNL     1       4.048  -4.330  22.596  0.00  0.00    -0.385 OA
ATOM     53  H   UNL     1       4.337  -3.560  22.067  0.00  0.00    +0.210 HD
ENDBRANCH  37  52
BRANCH  36  54
ATOM     54  O   UNL     1       5.264  -2.084  24.984  0.00  0.00    -0.278 OA
BRANCH  54  55
ATOM     55  P   UNL     1       5.790  -0.581  24.947  0.00  0.00    +0.473 P 
ATOM     56  O   UNL     1       4.850   0.460  25.441  0.00  0.00    -0.228 OA
BRANCH  55  57
ATOM     57  O   UNL     1       7.160  -0.695  25.753  0.00  0.00    -0.303 OA
ATOM     58  H   UNL     1       7.016  -0.629  26.713  0.00  0.00    +0.222 HD
ENDBRANCH  55  57
BRANCH  55  59
ATOM     59  O   UNL     1       6.266  -0.392  23.438  0.00  0.00    -0.303 OA
ATOM     60  H   UNL     1       7.234  -0.307  23.373  0.00  0.00    +0.222 HD
ENDBRANCH  55  59
ENDBRANCH  54  55
ENDBRANCH  36  54
ENDBRANCH  34  35
ENDBRANCH  33  34
ENDBRANCH   1  33
TORSDOF 26
ENDMDL
MODEL 6
REMARK VINA RESULT:      -5.7      3.721      5.598
REMARK  Name = 
REMARK  28 active torsions:
REMARK  status: ('A' for Active; 'I' for Inactive)
REMARK    1  A    between atoms: C_1  and  C_2
REMARK    2  A    between atoms: C_2  and  C_3
REMARK    3  A    between atoms: C_2  and  C_4
REMARK    4  A    between atoms: C_2  and  C_40
REMARK    5  A    between atoms: C_4  and  O_5
REMARK    6  A    between atoms: O_5  and  P_6
REMARK    7  A    between atoms: P_6  and  O_7
REMARK    8  A    between atoms: P_6  and  O_9
REMARK    9  A    between atoms: O_9  and  P_10
REMARK   10  A    between atoms: P_10  and  O_11
REMARK   11  A    between atoms: P_10  and  O_13
REMARK   12  A    between atoms: O_13  and  C_14
REMARK   13  A    between atoms: C_14  and  C_15
REMARK   14  A    between atoms: C_18  and  N_30
REMARK   15  A    between atoms: C_20  and  O_22
REMARK   16  A    between atoms: C_23  and  O_25
REMARK   17  A    between atoms: O_25  and  P_26
REMARK   18  A    between atoms: P_26  and  O_27
REMARK   19  A    between atoms: P_26  and  O_28
REMARK   20  A    between atoms: C_40  and  O_42
REMARK   21  A    between atoms: C_40  and  C_43
REMARK   22  A    between atoms: N_45  and  C_46
REMARK   23  A    between atoms: C_46  and  C_47
REMARK   24  A    between atoms: C_47  and  C_48
REMARK   25  A    between atoms: N_50  and  C_51
REMARK   26  A    between atoms: C_51  and  C_52
REMARK   27  A    between atoms: C_52  and  S_53
REMARK   28  A    between atoms: S_53  and  S_54
REMARK                            x       y       z     vdW  Elec       q    Type
REMARK                         _______ _______ _______ _____ _____    ______ ____
ROOT
ATOM      1  P   UNL     1       9.084  -1.816  23.248  0.00  0.00    +0.483 P 
ATOM      2  O   UNL     1       8.989  -1.294  21.854  0.00  0.00    -0.227 OA
ENDROOT
BRANCH   1   3
ATOM      3  O   UNL     1      10.213  -2.946  23.325  0.00  0.00    -0.302 OA
ATOM      4  H   UNL     1      10.119  -3.563  22.572  0.00  0.00    +0.222 HD
ENDBRANCH   1   3
BRANCH   1   5
ATOM      5  O   UNL     1       7.764  -2.589  23.742  0.00  0.00    -0.186 OA
BRANCH   5   6
ATOM      6  P   UNL     1       6.837  -3.256  22.443  0.00  0.00    +0.483 P 
ATOM      7  O   UNL     1       7.638  -4.557  22.463  0.00  0.00    -0.227 OA
BRANCH   6   8
ATOM      8  O   UNL     1       5.909  -3.922  21.143  0.00  0.00    -0.302 OA
ATOM      9  H   UNL     1       5.099  -3.372  21.158  0.00  0.00    +0.222 HD
ENDBRANCH   6   8
BRANCH   6  10
ATOM     10  O   UNL     1       5.534  -3.485  23.473  0.00  0.00    -0.286 OA
BRANCH  10  11
ATOM     11  C   UNL     1       4.335  -4.101  22.963  0.00  0.00    +0.181 C 
BRANCH  11  13
ATOM     12  C   UNL     1       3.444  -4.440  25.269  0.00  0.00    +0.016 C 
ATOM     13  C   UNL     1       3.702  -5.145  23.919  0.00  0.00    +0.024 C 
ATOM     14  C   UNL     1       2.314  -5.592  23.391  0.00  0.00    +0.016 C 
BRANCH  13  15
ATOM     15  C   UNL     1       4.658  -6.357  24.085  0.00  0.00    +0.208 C 
BRANCH  15  16
ATOM     16  C   UNL     1       5.518  -6.259  25.369  0.00  0.00    +0.242 C 
ATOM     17  N   UNL     1       6.647  -5.477  25.232  0.00  0.00    -0.313 N 
ATOM     18  H   UNL     1       6.548  -4.702  24.585  0.00  0.00    +0.149 HD
ATOM     19  O   UNL     1       5.267  -6.855  26.413  0.00  0.00    -0.273 OA
BRANCH  17  20
ATOM     20  C   UNL     1       7.521  -5.336  26.381  0.00  0.00    +0.113 C 
BRANCH  20  21
ATOM     21  C   UNL     1       7.789  -3.884  26.724  0.00  0.00    +0.114 C 
BRANCH  21  22
ATOM     22  C   UNL     1       6.471  -3.172  26.932  0.00  0.00    +0.215 C 
ATOM     23  N   UNL     1       6.300  -2.070  26.125  0.00  0.00    -0.314 N 
ATOM     24  H   UNL     1       7.104  -1.686  25.643  0.00  0.00    +0.149 HD
ATOM     25  O   UNL     1       5.612  -3.561  27.716  0.00  0.00    -0.276 OA
BRANCH  23  26
ATOM     26  C   UNL     1       5.123  -1.228  26.254  0.00  0.00    +0.115 C 
BRANCH  26  27
ATOM     27  C   UNL     1       5.433   0.271  26.218  0.00  0.00    +0.099 C 
BRANCH  27  28
ATOM     28  S   UNL     1       6.074   0.837  27.836  0.00  0.00    -0.095 S 
BRANCH  28  29
ATOM     29  S   UNL     1       4.602   2.132  28.446  0.00  0.00    -0.110 S 
ATOM     30  H   UNL     1       3.666   1.852  27.525  0.00  0.00    +0.114 HD
ENDBRANCH  28  29
ENDBRANCH  27  28
ENDBRANCH  26  27
ENDBRANCH  23  26
ENDBRANCH  21  22
ENDBRANCH  20  21
ENDBRANCH  17  20
ENDBRANCH  15  16
BRANCH  15  31
ATOM     31  O   UNL     1       5.539  -6.524  22.971  0.00  0.00    -0.382 OA
ATOM     32  H   UNL     1       6.030  -7.352  23.100  0.00  0.00    +0.210 HD
ENDBRANCH  15  31
ENDBRANCH  13  15
ENDBRANCH  11  13
ENDBRANCH  10  11
ENDBRANCH   6  10
ENDBRANCH   5   6
ENDBRANCH   1   5
BRANCH   1  33
ATOM     33  O   UNL     1       9.544  -0.744  24.367  0.00  0.00    -0.284 OA
BRANCH  33  34
ATOM     34  C   UNL     1      10.402   0.313  23.976  0.00  0.00    +0.206 C 
BRANCH  34  35
ATOM     35  C   UNL     1      10.001   1.716  24.477  0.00  0.00    +0.179 C 
ATOM     36  C   UNL     1      10.181   2.850  23.473  0.00  0.00    +0.194 C 
ATOM     37  C   UNL     1       8.779   3.243  23.049  0.00  0.00    +0.196 C 
ATOM     38  C   UNL     1       7.846   2.405  23.931  0.00  0.00    +0.253 C 
ATOM     39  O   UNL     1       8.640   1.789  24.961  0.00  0.00    -0.346 OA
BRANCH  38  40
ATOM     40  N   UNL     1       6.768   3.217  24.491  0.00  0.00    -0.286 N 
ATOM     41  C   UNL     1       5.572   3.427  23.845  0.00  0.00    +0.167 A 
ATOM     42  N   UNL     1       5.207   2.954  22.641  0.00  0.00    -0.216 NA
ATOM     43  C   UNL     1       3.974   3.391  22.309  0.00  0.00    +0.225 A 
ATOM     44  N   UNL     1       3.152   4.192  23.017  0.00  0.00    -0.219 NA
ATOM     45  C   UNL     1       3.561   4.627  24.232  0.00  0.00    +0.147 A 
ATOM     46  N   UNL     1       2.691   5.440  24.945  0.00  0.00    -0.341 N 
ATOM     47  H   UNL     1       3.142   6.011  25.648  0.00  0.00    +0.144 HD
ATOM     48  H   UNL     1       1.999   5.877  24.350  0.00  0.00    +0.144 HD
ATOM     49  C   UNL     1       4.844   4.251  24.685  0.00  0.00    +0.147 A 
ATOM     50  N   UNL     1       5.583   4.557  25.810  0.00  0.00    -0.231 NA
ATOM     51  C   UNL     1       6.726   3.917  25.664  0.00  0.00    +0.203 A 
ENDBRANCH  38  40
BRANCH  37  52
ATOM     52  O   UNL     1       8.564   2.976  21.663  0.00  0.00    -0.385 OA
ATOM     53  H   UNL     1       7.995   3.702  21.340  0.00  0.00    +0.210 HD
ENDBRANCH  37  52
BRANCH  36  54
ATOM     54  O   UNL     1      10.736   3.926  24.233  0.00  0.00    -0.278 OA
BRANCH  54  55
ATOM     55  P   UNL     1      11.543   5.098  23.519  0.00  0.00    +0.473 P 
ATOM     56  O   UNL     1      12.577   5.783  24.339  0.00  0.00    -0.228 OA
BRANCH  55  57
ATOM     57  O   UNL     1      12.087   4.370  22.210  0.00  0.00    -0.303 OA
ATOM     58  H   UNL     1      12.111   4.976  21.449  0.00  0.00    +0.222 HD
ENDBRANCH  55  57
BRANCH  55  59
ATOM     59  O   UNL     1      10.394   6.050  22.959  0.00  0.00    -0.303 OA
ATOM     60  H   UNL     1       9.688   5.544  22.519  0.00  0.00    +0.222 HD
ENDBRANCH  55  59
ENDBRANCH  54  55
ENDBRANCH  36  54
ENDBRANCH  34  35
ENDBRANCH  33  34
ENDBRANCH   1  33
TORSDOF 26
ENDMDL
MODEL 7
REMARK VINA RESULT:      -5.6      3.505      9.635
REMARK  Name = 
REMARK  28 active torsions:
REMARK  status: ('A' for Active; 'I' for Inactive)
REMARK    1  A    between atoms: C_1  and  C_2
REMARK    2  A    between atoms: C_2  and  C_3
REMARK    3  A    between atoms: C_2  and  C_4
REMARK    4  A    between atoms: C_2  and  C_40
REMARK    5  A    between atoms: C_4  and  O_5
REMARK    6  A    between atoms: O_5  and  P_6
REMARK    7  A    between atoms: P_6  and  O_7
REMARK    8  A    between atoms: P_6  and  O_9
REMARK    9  A    between atoms: O_9  and  P_10
REMARK   10  A    between atoms: P_10  and  O_11
REMARK   11  A    between atoms: P_10  and  O_13
REMARK   12  A    between atoms: O_13  and  C_14
REMARK   13  A    between atoms: C_14  and  C_15
REMARK   14  A    between atoms: C_18  and  N_30
REMARK   15  A    between atoms: C_20  and  O_22
REMARK   16  A    between atoms: C_23  and  O_25
REMARK   17  A    between atoms: O_25  and  P_26
REMARK   18  A    between atoms: P_26  and  O_27
REMARK   19  A    between atoms: P_26  and  O_28
REMARK   20  A    between atoms: C_40  and  O_42
REMARK   21  A    between atoms: C_40  and  C_43
REMARK   22  A    between atoms: N_45  and  C_46
REMARK   23  A    between atoms: C_46  and  C_47
REMARK   24  A    between atoms: C_47  and  C_48
REMARK   25  A    between atoms: N_50  and  C_51
REMARK   26  A    between atoms: C_51  and  C_52
REMARK   27  A    between atoms: C_52  and  S_53
REMARK   28  A    between atoms: S_53  and  S_54
REMARK                            x       y       z     vdW  Elec       q    Type
REMARK                         _______ _______ _______ _____ _____    ______ ____
ROOT
ATOM      1  P   UNL     1       8.256   0.478  24.879  0.00  0.00    +0.483 P 
ATOM      2  O   UNL     1       7.189   0.144  25.866  0.00  0.00    -0.227 OA
ENDROOT
BRANCH   1   3
ATOM      3  O   UNL     1       9.634   0.748  25.644  0.00  0.00    -0.302 OA
ATOM      4  H   UNL     1       9.456   1.028  26.563  0.00  0.00    +0.222 HD
ENDBRANCH   1   3
BRANCH   1   5
ATOM      5  O   UNL     1       8.002   1.859  24.093  0.00  0.00    -0.186 OA
BRANCH   5   6
ATOM      6  P   UNL     1       9.196   2.187  22.886  0.00  0.00    +0.483 P 
ATOM      7  O   UNL     1       8.186   2.922  22.005  0.00  0.00    -0.227 OA
BRANCH   6   8
ATOM      8  O   UNL     1      10.391   2.515  21.679  0.00  0.00    -0.302 OA
ATOM      9  H   UNL     1      10.654   3.435  21.885  0.00  0.00    +0.222 HD
ENDBRANCH   6   8
BRANCH   6  10
ATOM     10  O   UNL     1       9.895   3.346  23.875  0.00  0.00    -0.286 OA
BRANCH  10  11
ATOM     11  C   UNL     1       9.047   4.281  24.570  0.00  0.00    +0.181 C 
BRANCH  11  13
ATOM     12  C   UNL     1       9.433   6.549  25.537  0.00  0.00    +0.016 C 
ATOM     13  C   UNL     1       9.313   5.766  24.211  0.00  0.00    +0.024 C 
ATOM     14  C   UNL     1      10.680   5.914  23.496  0.00  0.00    +0.016 C 
BRANCH  13  15
ATOM     15  C   UNL     1       8.156   6.313  23.332  0.00  0.00    +0.208 C 
BRANCH  15  16
ATOM     16  C   UNL     1       6.775   5.765  23.766  0.00  0.00    +0.242 C 
ATOM     17  N   UNL     1       6.155   4.982  22.814  0.00  0.00    -0.313 N 
ATOM     18  H   UNL     1       6.789   4.450  22.226  0.00  0.00    +0.149 HD
ATOM     19  O   UNL     1       6.235   6.030  24.837  0.00  0.00    -0.273 OA
BRANCH  17  20
ATOM     20  C   UNL     1       4.849   4.433  23.129  0.00  0.00    +0.113 C 
BRANCH  20  21
ATOM     21  C   UNL     1       4.892   2.933  23.339  0.00  0.00    +0.114 C 
BRANCH  21  22
ATOM     22  C   UNL     1       4.637   2.628  24.799  0.00  0.00    +0.215 C 
ATOM     23  N   UNL     1       5.623   3.085  25.643  0.00  0.00    -0.314 N 
ATOM     24  H   UNL     1       6.513   3.367  25.251  0.00  0.00    +0.149 HD
ATOM     25  O   UNL     1       3.625   2.064  25.202  0.00  0.00    -0.276 OA
BRANCH  23  26
ATOM     26  C   UNL     1       5.570   2.806  27.069  0.00  0.00    +0.115 C 
BRANCH  26  27
ATOM     27  C   UNL     1       6.882   3.102  27.801  0.00  0.00    +0.099 C 
BRANCH  27  28
ATOM     28  S   UNL     1       6.969   2.168  29.372  0.00  0.00    -0.095 S 
BRANCH  28  29
ATOM     29  S   UNL     1       5.004   2.158  29.969  0.00  0.00    -0.110 S 
ATOM     30  H   UNL     1       5.154   2.590  31.230  0.00  0.00    +0.114 HD
ENDBRANCH  28  29
ENDBRANCH  27  28
ENDBRANCH  26  27
ENDBRANCH  23  26
ENDBRANCH  21  22
ENDBRANCH  20  21
ENDBRANCH  17  20
ENDBRANCH  15  16
BRANCH  15  31
ATOM     31  O   UNL     1       8.333   6.023  21.942  0.00  0.00    -0.382 OA
ATOM     32  H   UNL     1       8.356   6.867  21.463  0.00  0.00    +0.210 HD
ENDBRANCH  15  31
ENDBRANCH  13  15
ENDBRANCH  11  13
ENDBRANCH  10  11
ENDBRANCH   6  10
ENDBRANCH   5   6
ENDBRANCH   1   5
BRANCH   1  33
ATOM     33  O   UNL     1       8.628  -0.691  23.828  0.00  0.00    -0.284 OA
BRANCH  33  34
ATOM     34  C   UNL     1       8.886  -1.991  24.328  0.00  0.00    +0.206 C 
BRANCH  34  35
ATOM     35  C   UNL     1       7.680  -2.954  24.335  0.00  0.00    +0.179 C 
ATOM     36  C   UNL     1       7.866  -4.247  23.546  0.00  0.00    +0.194 C 
ATOM     37  C   UNL     1       7.998  -5.341  24.588  0.00  0.00    +0.196 C 
ATOM     38  C   UNL     1       7.748  -4.646  25.931  0.00  0.00    +0.253 C 
ATOM     39  O   UNL     1       7.245  -3.325  25.663  0.00  0.00    -0.346 OA
BRANCH  38  40
ATOM     40  N   UNL     1       6.831  -5.416  26.768  0.00  0.00    -0.286 N 
ATOM     41  C   UNL     1       5.503  -5.598  26.459  0.00  0.00    +0.167 A 
ATOM     42  N   UNL     1       4.847  -5.112  25.391  0.00  0.00    -0.216 NA
ATOM     43  C   UNL     1       3.544  -5.463  25.432  0.00  0.00    +0.225 A 
ATOM     44  N   UNL     1       2.902  -6.190  26.369  0.00  0.00    -0.219 NA
ATOM     45  C   UNL     1       3.614  -6.669  27.416  0.00  0.00    +0.147 A 
ATOM     46  N   UNL     1       2.932  -7.425  28.359  0.00  0.00    -0.341 N 
ATOM     47  H   UNL     1       3.385  -7.463  29.263  0.00  0.00    +0.144 HD
ATOM     48  H   UNL     1       1.934  -7.261  28.333  0.00  0.00    +0.144 HD
ATOM     49  C   UNL     1       4.988  -6.355  27.496  0.00  0.00    +0.147 A 
ATOM     50  N   UNL     1       5.971  -6.616  28.430  0.00  0.00    -0.231 NA
ATOM     51  C   UNL     1       7.062  -6.045  27.960  0.00  0.00    +0.203 A 
ENDBRANCH  38  40
BRANCH  37  52
ATOM     52  O   UNL     1       9.293  -5.942  24.544  0.00  0.00    -0.385 OA
ATOM     53  H   UNL     1       9.145  -6.868  24.267  0.00  0.00    +0.210 HD
ENDBRANCH  37  52
BRANCH  36  54
ATOM     54  O   UNL     1       6.629  -4.433  22.856  0.00  0.00    -0.278 OA
BRANCH  54  55
ATOM     55  P   UNL     1       6.421  -5.669  21.873  0.00  0.00    +0.473 P 
ATOM     56  O   UNL     1       5.942  -5.349  20.502  0.00  0.00    -0.228 OA
BRANCH  55  57
ATOM     57  O   UNL     1       7.842  -6.385  21.945  0.00  0.00    -0.303 OA
ATOM     58  H   UNL     1       7.881  -7.162  21.360  0.00  0.00    +0.222 HD
ENDBRANCH  55  57
BRANCH  55  59
ATOM     59  O   UNL     1       5.475  -6.647  22.702  0.00  0.00    -0.303 OA
ATOM     60  H   UNL     1       5.822  -6.814  23.596  0.00  0.00    +0.222 HD
ENDBRANCH  55  59
ENDBRANCH  54  55
ENDBRANCH  36  54
ENDBRANCH  34  35
ENDBRANCH  33  34
ENDBRANCH   1  33
TORSDOF 26
ENDMDL
MODEL 8
REMARK VINA RESULT:      -5.6      2.514      6.437
REMARK  Name = 
REMARK  28 active torsions:
REMARK  status: ('A' for Active; 'I' for Inactive)
REMARK    1  A    between atoms: C_1  and  C_2
REMARK    2  A    between atoms: C_2  and  C_3
REMARK    3  A    between atoms: C_2  and  C_4
REMARK    4  A    between atoms: C_2  and  C_40
REMARK    5  A    between atoms: C_4  and  O_5
REMARK    6  A    between atoms: O_5  and  P_6
REMARK    7  A    between atoms: P_6  and  O_7
REMARK    8  A    between atoms: P_6  and  O_9
REMARK    9  A    between atoms: O_9  and  P_10
REMARK   10  A    between atoms: P_10  and  O_11
REMARK   11  A    between atoms: P_10  and  O_13
REMARK   12  A    between atoms: O_13  and  C_14
REMARK   13  A    between atoms: C_14  and  C_15
REMARK   14  A    between atoms: C_18  and  N_30
REMARK   15  A    between atoms: C_20  and  O_22
REMARK   16  A    between atoms: C_23  and  O_25
REMARK   17  A    between atoms: O_25  and  P_26
REMARK   18  A    between atoms: P_26  and  O_27
REMARK   19  A    between atoms: P_26  and  O_28
REMARK   20  A    between atoms: C_40  and  O_42
REMARK   21  A    between atoms: C_40  and  C_43
REMARK   22  A    between atoms: N_45  and  C_46
REMARK   23  A    between atoms: C_46  and  C_47
REMARK   24  A    between atoms: C_47  and  C_48
REMARK   25  A    between atoms: N_50  and  C_51
REMARK   26  A    between atoms: C_51  and  C_52
REMARK   27  A    between atoms: C_52  and  S_53
REMARK   28  A    between atoms: S_53  and  S_54
REMARK                            x       y       z     vdW  Elec       q    Type
REMARK                         _______ _______ _______ _____ _____    ______ ____
ROOT
ATOM      1  P   UNL     1       5.343  -6.522  28.524  0.00  0.00    +0.483 P 
ATOM      2  O   UNL     1       4.144  -7.023  29.257  0.00  0.00    -0.227 OA
ENDROOT
BRANCH   1   3
ATOM      3  O   UNL     1       6.666  -7.171  29.146  0.00  0.00    -0.302 OA
ATOM      4  H   UNL     1       6.428  -7.921  29.725  0.00  0.00    +0.222 HD
ENDBRANCH   1   3
BRANCH   1   5
ATOM      5  O   UNL     1       5.596  -4.944  28.699  0.00  0.00    -0.186 OA
BRANCH   5   6
ATOM      6  P   UNL     1       4.151  -4.002  28.574  0.00  0.00    +0.483 P 
ATOM      7  O   UNL     1       4.180  -3.654  30.062  0.00  0.00    -0.227 OA
BRANCH   6   8
ATOM      8  O   UNL     1       2.705  -3.061  28.448  0.00  0.00    -0.302 OA
ATOM      9  H   UNL     1       3.014  -2.164  28.693  0.00  0.00    +0.222 HD
ENDBRANCH   6   8
BRANCH   6  10
ATOM     10  O   UNL     1       4.995  -2.788  27.786  0.00  0.00    -0.286 OA
BRANCH  10  11
ATOM     11  C   UNL     1       4.948  -1.445  28.310  0.00  0.00    +0.181 C 
BRANCH  11  13
ATOM     12  C   UNL     1       3.624   0.084  26.849  0.00  0.00    +0.016 C 
ATOM     13  C   UNL     1       5.060  -0.339  27.229  0.00  0.00    +0.024 C 
ATOM     14  C   UNL     1       5.742   0.925  27.816  0.00  0.00    +0.016 C 
BRANCH  13  15
ATOM     15  C   UNL     1       5.838  -0.878  25.998  0.00  0.00    +0.208 C 
BRANCH  15  16
ATOM     16  C   UNL     1       7.353  -0.572  26.078  0.00  0.00    +0.242 C 
ATOM     17  N   UNL     1       7.808   0.282  25.094  0.00  0.00    -0.313 N 
ATOM     18  H   UNL     1       7.131   0.973  24.788  0.00  0.00    +0.149 HD
ATOM     19  O   UNL     1       8.113  -1.072  26.902  0.00  0.00    -0.273 OA
BRANCH  17  20
ATOM     20  C   UNL     1       9.220   0.616  25.082  0.00  0.00    +0.113 C 
BRANCH  20  21
ATOM     21  C   UNL     1       9.669   1.162  23.741  0.00  0.00    +0.114 C 
BRANCH  21  22
ATOM     22  C   UNL     1       8.460   1.648  22.973  0.00  0.00    +0.215 C 
ATOM     23  N   UNL     1       8.281   3.012  23.022  0.00  0.00    -0.314 N 
ATOM     24  H   UNL     1       8.790   3.549  23.713  0.00  0.00    +0.149 HD
ATOM     25  O   UNL     1       7.728   0.904  22.328  0.00  0.00    -0.276 OA
BRANCH  23  26
ATOM     26  C   UNL     1       7.122   3.633  22.403  0.00  0.00    +0.115 C 
BRANCH  26  27
ATOM     27  C   UNL     1       6.235   4.398  23.389  0.00  0.00    +0.099 C 
BRANCH  27  28
ATOM     28  S   UNL     1       5.554   3.267  24.656  0.00  0.00    -0.095 S 
BRANCH  28  29
ATOM     29  S   UNL     1       3.564   3.213  24.151  0.00  0.00    -0.110 S 
ATOM     30  H   UNL     1       3.569   2.137  23.349  0.00  0.00    +0.114 HD
ENDBRANCH  28  29
ENDBRANCH  27  28
ENDBRANCH  26  27
ENDBRANCH  23  26
ENDBRANCH  21  22
ENDBRANCH  20  21
ENDBRANCH  17  20
ENDBRANCH  15  16
BRANCH  15  31
ATOM     31  O   UNL     1       5.343  -0.358  24.761  0.00  0.00    -0.382 OA
ATOM     32  H   UNL     1       5.016  -1.105  24.234  0.00  0.00    +0.210 HD
ENDBRANCH  15  31
ENDBRANCH  13  15
ENDBRANCH  11  13
ENDBRANCH  10  11
ENDBRANCH   6  10
ENDBRANCH   5   6
ENDBRANCH   1   5
BRANCH   1  33
ATOM     33  O   UNL     1       5.424  -6.921  26.960  0.00  0.00    -0.284 OA
BRANCH  33  34
ATOM     34  C   UNL     1       4.215  -7.031  26.229  0.00  0.00    +0.206 C 
BRANCH  34  35
ATOM     35  C   UNL     1       4.246  -6.445  24.801  0.00  0.00    +0.179 C 
ATOM     36  C   UNL     1       3.120  -5.472  24.464  0.00  0.00    +0.194 C 
ATOM     37  C   UNL     1       3.771  -4.103  24.407  0.00  0.00    +0.196 C 
ATOM     38  C   UNL     1       5.271  -4.367  24.584  0.00  0.00    +0.253 C 
ATOM     39  O   UNL     1       5.491  -5.785  24.474  0.00  0.00    -0.346 OA
BRANCH  38  40
ATOM     40  N   UNL     1       6.062  -3.619  23.610  0.00  0.00    -0.286 N 
ATOM     41  C   UNL     1       7.412  -3.393  23.752  0.00  0.00    +0.167 A 
ATOM     42  N   UNL     1       8.197  -3.792  24.767  0.00  0.00    -0.216 NA
ATOM     43  C   UNL     1       9.464  -3.361  24.588  0.00  0.00    +0.225 A 
ATOM     44  N   UNL     1       9.963  -2.628  23.572  0.00  0.00    -0.219 NA
ATOM     45  C   UNL     1       9.132  -2.267  22.566  0.00  0.00    +0.147 A 
ATOM     46  N   UNL     1       9.674  -1.524  21.526  0.00  0.00    -0.341 N 
ATOM     47  H   UNL     1       8.992  -0.992  21.001  0.00  0.00    +0.144 HD
ATOM     48  H   UNL     1      10.535  -1.064  21.791  0.00  0.00    +0.144 HD
ATOM     49  C   UNL     1       7.774  -2.644  22.647  0.00  0.00    +0.147 A 
ATOM     50  N   UNL     1       6.669  -2.398  21.855  0.00  0.00    -0.231 NA
ATOM     51  C   UNL     1       5.665  -3.001  22.458  0.00  0.00    +0.203 A 
ENDBRANCH  38  40
BRANCH  37  52
ATOM     52  O   UNL     1       3.267  -3.250  25.436  0.00  0.00    -0.385 OA
ATOM     53  H   UNL     1       2.330  -3.089  25.209  0.00  0.00    +0.210 HD
ENDBRANCH  37  52
BRANCH  36  54
ATOM     54  O   UNL     1       2.715  -5.829  23.141  0.00  0.00    -0.278 OA
BRANCH  54  55
ATOM     55  P   UNL     1       1.394  -6.684  22.896  0.00  0.00    +0.473 P 
ATOM     56  O   UNL     1       0.648  -7.110  24.109  0.00  0.00    -0.228 OA
BRANCH  55  57
ATOM     57  O   UNL     1       0.582  -5.750  21.893  0.00  0.00    -0.303 OA
ATOM     58  H   UNL     1      -0.351  -5.665  22.159  0.00  0.00    +0.222 HD
ENDBRANCH  55  57
BRANCH  55  59
ATOM     59  O   UNL     1       1.893  -7.876  21.963  0.00  0.00    -0.303 OA
ATOM     60  H   UNL     1       1.152  -8.429  21.657  0.00  0.00    +0.222 HD
ENDBRANCH  55  59
ENDBRANCH  54  55
ENDBRANCH  36  54
ENDBRANCH  34  35
ENDBRANCH  33  34
ENDBRANCH   1  33
TORSDOF 26
ENDMDL
MODEL 9
REMARK VINA RESULT:      -5.5      3.705      8.922
REMARK  Name = 
REMARK  28 active torsions:
REMARK  status: ('A' for Active; 'I' for Inactive)
REMARK    1  A    between atoms: C_1  and  C_2
REMARK    2  A    between atoms: C_2  and  C_3
REMARK    3  A    between atoms: C_2  and  C_4
REMARK    4  A    between atoms: C_2  and  C_40
REMARK    5  A    between atoms: C_4  and  O_5
REMARK    6  A    between atoms: O_5  and  P_6
REMARK    7  A    between atoms: P_6  and  O_7
REMARK    8  A    between atoms: P_6  and  O_9
REMARK    9  A    between atoms: O_9  and  P_10
REMARK   10  A    between atoms: P_10  and  O_11
REMARK   11  A    between atoms: P_10  and  O_13
REMARK   12  A    between atoms: O_13  and  C_14
REMARK   13  A    between atoms: C_14  and  C_15
REMARK   14  A    between atoms: C_18  and  N_30
REMARK   15  A    between atoms: C_20  and  O_22
REMARK   16  A    between atoms: C_23  and  O_25
REMARK   17  A    between atoms: O_25  and  P_26
REMARK   18  A    between atoms: P_26  and  O_27
REMARK   19  A    between atoms: P_26  and  O_28
REMARK   20  A    between atoms: C_40  and  O_42
REMARK   21  A    between atoms: C_40  and  C_43
REMARK   22  A    between atoms: N_45  and  C_46
REMARK   23  A    between atoms: C_46  and  C_47
REMARK   24  A    between atoms: C_47  and  C_48
REMARK   25  A    between atoms: N_50  and  C_51
REMARK   26  A    between atoms: C_51  and  C_52
REMARK   27  A    between atoms: C_52  and  S_53
REMARK   28  A    between atoms: S_53  and  S_54
REMARK                            x       y       z     vdW  Elec       q    Type
REMARK                         _______ _______ _______ _____ _____    ______ ____
ROOT
ATOM      1  P   UNL     1       9.917   2.183  23.079  0.00  0.00    +0.483 P 
ATOM      2  O   UNL     1      11.162   2.863  23.539  0.00  0.00    -0.227 OA
ENDROOT
BRANCH   1   3
ATOM      3  O   UNL     1       9.856   2.192  21.481  0.00  0.00    -0.302 OA
ATOM      4  H   UNL     1       9.868   3.113  21.152  0.00  0.00    +0.222 HD
ENDBRANCH   1   3
BRANCH   1   5
ATOM      5  O   UNL     1       8.567   2.951  23.498  0.00  0.00    -0.186 OA
BRANCH   5   6
ATOM      6  P   UNL     1       7.194   1.905  23.611  0.00  0.00    +0.483 P 
ATOM      7  O   UNL     1       7.234   1.923  25.139  0.00  0.00    -0.227 OA
BRANCH   6   8
ATOM      8  O   UNL     1       5.821   0.858  23.723  0.00  0.00    -0.302 OA
ATOM      9  H   UNL     1       6.107   0.078  23.206  0.00  0.00    +0.222 HD
ENDBRANCH   6   8
BRANCH   6  10
ATOM     10  O   UNL     1       6.184   3.159  23.148  0.00  0.00    -0.286 OA
BRANCH  10  11
ATOM     11  C   UNL     1       6.702   4.202  22.298  0.00  0.00    +0.181 C 
BRANCH  11  13
ATOM     12  C   UNL     1       7.225   6.613  21.919  0.00  0.00    +0.016 C 
ATOM     13  C   UNL     1       6.441   5.638  22.825  0.00  0.00    +0.024 C 
ATOM     14  C   UNL     1       4.943   6.008  22.666  0.00  0.00    +0.016 C 
BRANCH  13  15
ATOM     15  C   UNL     1       6.894   5.749  24.305  0.00  0.00    +0.208 C 
BRANCH  15  16
ATOM     16  C   UNL     1       5.699   5.742  25.290  0.00  0.00    +0.242 C 
ATOM     17  N   UNL     1       5.181   4.488  25.539  0.00  0.00    -0.313 N 
ATOM     18  H   UNL     1       5.861   3.736  25.507  0.00  0.00    +0.149 HD
ATOM     19  O   UNL     1       5.206   6.755  25.779  0.00  0.00    -0.273 OA
BRANCH  17  20
ATOM     20  C   UNL     1       4.050   4.386  26.441  0.00  0.00    +0.113 C 
BRANCH  20  21
ATOM     21  C   UNL     1       2.728   4.331  25.701  0.00  0.00    +0.114 C 
BRANCH  21  22
ATOM     22  C   UNL     1       2.861   3.403  24.515  0.00  0.00    +0.215 C 
ATOM     23  N   UNL     1       2.273   3.880  23.366  0.00  0.00    -0.314 N 
ATOM     24  H   UNL     1       1.626   4.657  23.432  0.00  0.00    +0.149 HD
ATOM     25  O   UNL     1       3.473   2.341  24.556  0.00  0.00    -0.276 OA
BRANCH  23  26
ATOM     26  C   UNL     1       2.242   3.076  22.156  0.00  0.00    +0.115 C 
BRANCH  26  27
ATOM     27  C   UNL     1       1.033   3.360  21.260  0.00  0.00    +0.099 C 
BRANCH  27  28
ATOM     28  S   UNL     1       1.572   3.819  19.573  0.00  0.00    -0.095 S 
BRANCH  28  29
ATOM     29  S   UNL     1       1.767   5.857  19.729  0.00  0.00    -0.110 S 
ATOM     30  H   UNL     1       2.934   6.017  19.086  0.00  0.00    +0.114 HD
ENDBRANCH  28  29
ENDBRANCH  27  28
ENDBRANCH  26  27
ENDBRANCH  23  26
ENDBRANCH  21  22
ENDBRANCH  20  21
ENDBRANCH  17  20
ENDBRANCH  15  16
BRANCH  15  31
ATOM     31  O   UNL     1       7.672   6.922  24.558  0.00  0.00    -0.382 OA
ATOM     32  H   UNL     1       8.474   6.871  24.012  0.00  0.00    +0.210 HD
ENDBRANCH  15  31
ENDBRANCH  13  15
ENDBRANCH  11  13
ENDBRANCH  10  11
ENDBRANCH   6  10
ENDBRANCH   5   6
ENDBRANCH   1   5
BRANCH   1  33
ATOM     33  O   UNL     1       9.796   0.616  23.454  0.00  0.00    -0.284 OA
BRANCH  33  34
ATOM     34  C   UNL     1      10.202  -0.341  22.492  0.00  0.00    +0.206 C 
BRANCH  34  35
ATOM     35  C   UNL     1       9.731  -1.788  22.752  0.00  0.00    +0.179 C 
ATOM     36  C   UNL     1       9.540  -2.164  24.219  0.00  0.00    +0.194 C 
ATOM     37  C   UNL     1       8.040  -2.263  24.420  0.00  0.00    +0.196 C 
ATOM     38  C   UNL     1       7.436  -2.068  23.024  0.00  0.00    +0.253 C 
ATOM     39  O   UNL     1       8.506  -2.129  22.063  0.00  0.00    -0.346 OA
BRANCH  38  40
ATOM     40  N   UNL     1       6.402  -3.062  22.747  0.00  0.00    -0.286 N 
ATOM     41  C   UNL     1       5.298  -3.241  23.547  0.00  0.00    +0.167 A 
ATOM     42  N   UNL     1       4.997  -2.574  24.675  0.00  0.00    -0.216 NA
ATOM     43  C   UNL     1       3.852  -3.040  25.215  0.00  0.00    +0.225 A 
ATOM     44  N   UNL     1       3.056  -4.031  24.764  0.00  0.00    -0.219 NA
ATOM     45  C   UNL     1       3.396  -4.659  23.614  0.00  0.00    +0.147 A 
ATOM     46  N   UNL     1       2.553  -5.667  23.164  0.00  0.00    -0.341 N 
ATOM     47  H   UNL     1       2.995  -6.324  22.535  0.00  0.00    +0.144 HD
ATOM     48  H   UNL     1       1.967  -6.035  23.902  0.00  0.00    +0.144 HD
ATOM     49  C   UNL     1       4.586  -4.272  22.961  0.00  0.00    +0.147 A 
ATOM     50  N   UNL     1       5.247  -4.730  21.838  0.00  0.00    -0.231 NA
ATOM     51  C   UNL     1       6.326  -3.979  21.737  0.00  0.00    +0.203 A 
ENDBRANCH  38  40
BRANCH  37  52
ATOM     52  O   UNL     1       7.575  -1.266  25.332  0.00  0.00    -0.385 OA
ATOM     53  H   UNL     1       8.292  -1.155  25.988  0.00  0.00    +0.210 HD
ENDBRANCH  37  52
BRANCH  36  54
ATOM     54  O   UNL     1      10.093  -3.476  24.333  0.00  0.00    -0.278 OA
BRANCH  54  55
ATOM     55  P   UNL     1       9.352  -4.603  25.179  0.00  0.00    +0.473 P 
ATOM     56  O   UNL     1       8.550  -4.137  26.341  0.00  0.00    -0.228 OA
BRANCH  55  57
ATOM     57  O   UNL     1       8.530  -5.371  24.052  0.00  0.00    -0.303 OA
ATOM     58  H   UNL     1       8.290  -6.271  24.335  0.00  0.00    +0.222 HD
ENDBRANCH  55  57
BRANCH  55  59
ATOM     59  O   UNL     1      10.522  -5.624  25.540  0.00  0.00    -0.303 OA
ATOM     60  H   UNL     1      10.318  -6.139  26.341  0.00  0.00    +0.222 HD
ENDBRANCH  55  59
ENDBRANCH  54  55
ENDBRANCH  36  54
ENDBRANCH  34  35
ENDBRANCH  33  34
ENDBRANCH   1  33
TORSDOF 26
ENDMDL
