MODEL 1
REMARK VINA RESULT:      -8.9      0.000      0.000
REMARK  Name = 
REMARK  5 active torsions:
REMARK  status: ('A' for Active; 'I' for Inactive)
REMARK    1  A    between atoms: O_1  and  N_2
REMARK    2  A    between atoms: N_6  and  C_7
REMARK    3  A    between atoms: C_7  and  C_8
REMARK    4  A    between atoms: C_23  and  C_24
REMARK    5  A    between atoms: C_25  and  C_26
REMARK                            x       y       z     vdW  Elec       q    Type
REMARK                         _______ _______ _______ _____ _____    ______ ____
ROOT
ATOM      1  N   UNL     1       8.213   0.795  26.020  0.00  0.00    -0.082 NA
ATOM      2  C   UNL     1       8.554  -0.196  25.258  0.00  0.00    +0.174 C 
ATOM      3  C   UNL     1       8.889  -0.087  23.832  0.00  0.00    +0.037 A 
ATOM      4  C   UNL     1       9.099  -1.399  23.381  0.00  0.00    +0.047 A 
ATOM      5  C   UNL     1       9.404  -1.653  22.056  0.00  0.00    +0.024 A 
ATOM      6  C   UNL     1       9.499  -0.563  21.187  0.00  0.00    +0.002 A 
ATOM      7  C   UNL     1       9.292   0.753  21.647  0.00  0.00    +0.009 A 
ATOM      8  N   UNL     1       8.942  -2.332  24.422  0.00  0.00    -0.261 N 
ATOM      9  C   UNL     1       8.989   1.024  22.993  0.00  0.00    -0.014 A 
ATOM     10  C   UNL     1       8.649  -1.691  25.615  0.00  0.00    +0.273 C 
ATOM     11  O   UNL     1       8.511  -2.190  26.713  0.00  0.00    -0.268 OA
ENDROOT
BRANCH   1  12
ATOM     12  O   UNL     1       7.898   0.377  27.312  0.00  0.00    -0.409 OA
ATOM     13  H   UNL     1       7.211   1.015  27.582  0.00  0.00    +0.328 HD
ENDBRANCH   1  12
BRANCH   9  14
ATOM     14  C   UNL     1       8.726   2.395  23.455  0.00  0.00    +0.009 C 
ATOM     15  C   UNL     1       9.654   3.285  23.844  0.00  0.00    +0.008 C 
BRANCH  15  16
ATOM     16  C   UNL     1       9.239   4.601  24.345  0.00  0.00    -0.025 A 
ATOM     17  C   UNL     1       9.644   5.773  23.697  0.00  0.00    +0.008 A 
ATOM     18  C   UNL     1       9.183   7.017  24.140  0.00  0.00    +0.001 A 
ATOM     19  C   UNL     1       8.319   7.094  25.232  0.00  0.00    +0.000 A 
ATOM     20  C   UNL     1       7.922   5.930  25.889  0.00  0.00    +0.001 A 
ATOM     21  C   UNL     1       8.383   4.687  25.448  0.00  0.00    +0.008 A 
ENDBRANCH  15  16
ENDBRANCH   9  14
BRANCH   8  22
ATOM     22  C   UNL     1       9.085  -3.770  24.300  0.00  0.00    +0.153 C 
BRANCH  22  23
ATOM     23  C   UNL     1       7.802  -4.471  23.911  0.00  0.00    +0.015 A 
ATOM     24  C   UNL     1       7.440  -4.546  22.555  0.00  0.00    +0.047 A 
ATOM     25  C   UNL     1       6.252  -5.161  22.176  0.00  0.00    +0.124 A 
ATOM     26  F   UNL     1       5.911  -5.200  20.882  0.00  0.00    -0.205 F 
ATOM     27  C   UNL     1       5.414  -5.736  23.119  0.00  0.00    +0.047 A 
ATOM     28  C   UNL     1       5.780  -5.725  24.469  0.00  0.00    +0.023 A 
ATOM     29  C   UNL     1       4.903  -6.368  25.497  0.00  0.00    +0.202 C 
ATOM     30  O   UNL     1       5.665  -6.682  26.654  0.00  0.00    -0.339 OA
ATOM     31  C   UNL     1       6.367  -5.526  27.090  0.00  0.00    +0.394 C 
ATOM     32  O   UNL     1       7.360  -5.059  26.173  0.00  0.00    -0.465 OA
ATOM     33  C   UNL     1       6.965  -5.083  24.861  0.00  0.00    +0.134 A 
ENDBRANCH  22  23
ENDBRANCH   8  22
TORSDOF 5
ENDMDL
MODEL 2
REMARK VINA RESULT:      -8.5      2.148      2.319
REMARK  Name = 
REMARK  5 active torsions:
REMARK  status: ('A' for Active; 'I' for Inactive)
REMARK    1  A    between atoms: O_1  and  N_2
REMARK    2  A    between atoms: N_6  and  C_7
REMARK    3  A    between atoms: C_7  and  C_8
REMARK    4  A    between atoms: C_23  and  C_24
REMARK    5  A    between atoms: C_25  and  C_26
REMARK                            x       y       z     vdW  Elec       q    Type
REMARK                         _______ _______ _______ _____ _____    ______ ____
ROOT
ATOM      1  N   UNL     1       5.593   0.934  24.341  0.00  0.00    -0.082 NA
ATOM      2  C   UNL     1       6.457  -0.016  24.166  0.00  0.00    +0.174 C 
ATOM      3  C   UNL     1       7.541   0.002  23.175  0.00  0.00    +0.037 A 
ATOM      4  C   UNL     1       8.165  -1.251  23.260  0.00  0.00    +0.047 A 
ATOM      5  C   UNL     1       9.220  -1.576  22.427  0.00  0.00    +0.024 A 
ATOM      6  C   UNL     1       9.644  -0.615  21.505  0.00  0.00    +0.002 A 
ATOM      7  C   UNL     1       9.016   0.644  21.428  0.00  0.00    +0.009 A 
ATOM      8  N   UNL     1       7.569  -2.057  24.247  0.00  0.00    -0.261 N 
ATOM      9  C   UNL     1       7.947   0.988  22.275  0.00  0.00    -0.014 A 
ATOM     10  C   UNL     1       6.544  -1.376  24.883  0.00  0.00    +0.273 C 
ATOM     11  O   UNL     1       5.865  -1.755  25.815  0.00  0.00    -0.268 OA
ENDROOT
BRANCH   1  12
ATOM     12  O   UNL     1       4.648   0.610  25.313  0.00  0.00    -0.409 OA
ATOM     13  H   UNL     1       5.108  -0.069  25.841  0.00  0.00    +0.328 HD
ENDBRANCH   1  12
BRANCH   9  14
ATOM     14  C   UNL     1       7.265   2.285  22.155  0.00  0.00    +0.009 C 
ATOM     15  C   UNL     1       7.770   3.475  22.519  0.00  0.00    +0.008 C 
BRANCH  15  16
ATOM     16  C   UNL     1       6.948   4.685  22.402  0.00  0.00    -0.025 A 
ATOM     17  C   UNL     1       5.598   4.671  22.769  0.00  0.00    +0.008 A 
ATOM     18  C   UNL     1       4.843   5.846  22.723  0.00  0.00    +0.001 A 
ATOM     19  C   UNL     1       5.433   7.040  22.308  0.00  0.00    +0.000 A 
ATOM     20  C   UNL     1       6.775   7.058  21.929  0.00  0.00    +0.001 A 
ATOM     21  C   UNL     1       7.529   5.884  21.974  0.00  0.00    +0.008 A 
ENDBRANCH  15  16
ENDBRANCH   9  14
BRANCH   8  22
ATOM     22  C   UNL     1       7.966  -3.409  24.592  0.00  0.00    +0.153 C 
BRANCH  22  23
ATOM     23  C   UNL     1       7.132  -4.472  23.913  0.00  0.00    +0.015 A 
ATOM     24  C   UNL     1       7.362  -4.770  22.559  0.00  0.00    +0.047 A 
ATOM     25  C   UNL     1       6.590  -5.724  21.906  0.00  0.00    +0.124 A 
ATOM     26  F   UNL     1       6.806  -5.977  20.610  0.00  0.00    -0.205 F 
ATOM     27  C   UNL     1       5.596  -6.420  22.580  0.00  0.00    +0.047 A 
ATOM     28  C   UNL     1       5.387  -6.183  23.942  0.00  0.00    +0.023 A 
ATOM     29  C   UNL     1       4.341  -6.947  24.692  0.00  0.00    +0.202 C 
ATOM     30  O   UNL     1       4.633  -6.927  26.082  0.00  0.00    -0.339 OA
ATOM     31  C   UNL     1       4.829  -5.586  26.509  0.00  0.00    +0.394 C 
ATOM     32  O   UNL     1       5.974  -4.948  25.936  0.00  0.00    -0.465 OA
ATOM     33  C   UNL     1       6.146  -5.203  24.600  0.00  0.00    +0.134 A 
ENDBRANCH  22  23
ENDBRANCH   8  22
TORSDOF 5
ENDMDL
MODEL 3
REMARK VINA RESULT:      -8.4      1.742      2.403
REMARK  Name = 
REMARK  5 active torsions:
REMARK  status: ('A' for Active; 'I' for Inactive)
REMARK    1  A    between atoms: O_1  and  N_2
REMARK    2  A    between atoms: N_6  and  C_7
REMARK    3  A    between atoms: C_7  and  C_8
REMARK    4  A    between atoms: C_23  and  C_24
REMARK    5  A    between atoms: C_25  and  C_26
REMARK                            x       y       z     vdW  Elec       q    Type
REMARK                         _______ _______ _______ _____ _____    ______ ____
ROOT
ATOM      1  N   UNL     1       8.246   0.928  25.881  0.00  0.00    -0.082 NA
ATOM      2  C   UNL     1       8.613  -0.129  25.227  0.00  0.00    +0.174 C 
ATOM      3  C   UNL     1       8.942  -0.162  23.796  0.00  0.00    +0.037 A 
ATOM      4  C   UNL     1       9.186  -1.508  23.485  0.00  0.00    +0.047 A 
ATOM      5  C   UNL     1       9.497  -1.892  22.193  0.00  0.00    +0.024 A 
ATOM      6  C   UNL     1       9.562  -0.897  21.214  0.00  0.00    +0.002 A 
ATOM      7  C   UNL     1       9.320   0.454  21.533  0.00  0.00    +0.009 A 
ATOM      8  N   UNL     1       9.056  -2.329  24.619  0.00  0.00    -0.261 N 
ATOM      9  C   UNL     1       9.012   0.857  22.845  0.00  0.00    -0.014 A 
ATOM     10  C   UNL     1       8.747  -1.575  25.739  0.00  0.00    +0.273 C 
ATOM     11  O   UNL     1       8.623  -1.959  26.883  0.00  0.00    -0.268 OA
ENDROOT
BRANCH   1  12
ATOM     12  O   UNL     1       7.944   0.640  27.211  0.00  0.00    -0.409 OA
ATOM     13  H   UNL     1       8.813   0.401  27.583  0.00  0.00    +0.328 HD
ENDBRANCH   1  12
BRANCH   9  14
ATOM     14  C   UNL     1       8.713   2.262  23.161  0.00  0.00    +0.009 C 
ATOM     15  C   UNL     1       9.618   3.217  23.429  0.00  0.00    +0.008 C 
BRANCH  15  16
ATOM     16  C   UNL     1       9.171   4.566  23.794  0.00  0.00    -0.025 A 
ATOM     17  C   UNL     1       7.808   4.861  23.910  0.00  0.00    +0.008 A 
ATOM     18  C   UNL     1       7.396   6.129  24.330  0.00  0.00    +0.001 A 
ATOM     19  C   UNL     1       8.342   7.108  24.632  0.00  0.00    +0.000 A 
ATOM     20  C   UNL     1       9.702   6.823  24.507  0.00  0.00    +0.001 A 
ATOM     21  C   UNL     1      10.115   5.557  24.087  0.00  0.00    +0.008 A 
ENDBRANCH  15  16
ENDBRANCH   9  14
BRANCH   8  22
ATOM     22  C   UNL     1       9.237  -3.768  24.649  0.00  0.00    +0.153 C 
BRANCH  22  23
ATOM     23  C   UNL     1       7.950  -4.532  24.875  0.00  0.00    +0.015 A 
ATOM     24  C   UNL     1       7.596  -4.916  26.180  0.00  0.00    +0.047 A 
ATOM     25  C   UNL     1       6.433  -5.642  26.409  0.00  0.00    +0.124 A 
ATOM     26  F   UNL     1       6.124  -6.022  27.655  0.00  0.00    -0.205 F 
ATOM     27  C   UNL     1       5.584  -5.979  25.364  0.00  0.00    +0.047 A 
ATOM     28  C   UNL     1       5.886  -5.558  24.065  0.00  0.00    +0.023 A 
ATOM     29  C   UNL     1       4.966  -5.886  22.930  0.00  0.00    +0.202 C 
ATOM     30  O   UNL     1       5.178  -4.976  21.860  0.00  0.00    -0.339 OA
ATOM     31  C   UNL     1       6.560  -4.940  21.531  0.00  0.00    +0.394 C 
ATOM     32  O   UNL     1       7.396  -4.413  22.565  0.00  0.00    -0.465 OA
ATOM     33  C   UNL     1       7.071  -4.848  23.824  0.00  0.00    +0.134 A 
ENDBRANCH  22  23
ENDBRANCH   8  22
TORSDOF 5
ENDMDL
MODEL 4
REMARK VINA RESULT:      -8.3      3.381      9.643
REMARK  Name = 
REMARK  5 active torsions:
REMARK  status: ('A' for Active; 'I' for Inactive)
REMARK    1  A    between atoms: O_1  and  N_2
REMARK    2  A    between atoms: N_6  and  C_7
REMARK    3  A    between atoms: C_7  and  C_8
REMARK    4  A    between atoms: C_23  and  C_24
REMARK    5  A    between atoms: C_25  and  C_26
REMARK                            x       y       z     vdW  Elec       q    Type
REMARK                         _______ _______ _______ _____ _____    ______ ____
ROOT
ATOM      1  N   UNL     1       5.516  -4.792  22.213  0.00  0.00    -0.082 NA
ATOM      2  C   UNL     1       6.410  -4.448  23.086  0.00  0.00    +0.174 C 
ATOM      3  C   UNL     1       6.453  -4.916  24.477  0.00  0.00    +0.037 A 
ATOM      4  C   UNL     1       7.512  -4.227  25.087  0.00  0.00    +0.047 A 
ATOM      5  C   UNL     1       7.805  -4.417  26.425  0.00  0.00    +0.024 A 
ATOM      6  C   UNL     1       7.016  -5.318  27.145  0.00  0.00    +0.002 A 
ATOM      7  C   UNL     1       5.957  -6.011  26.526  0.00  0.00    +0.009 A 
ATOM      8  N   UNL     1       8.158  -3.370  24.178  0.00  0.00    -0.261 N 
ATOM      9  C   UNL     1       5.655  -5.832  25.165  0.00  0.00    -0.014 A 
ATOM     10  C   UNL     1       7.583  -3.465  22.921  0.00  0.00    +0.273 C 
ATOM     11  O   UNL     1       7.932  -2.909  21.900  0.00  0.00    -0.268 OA
ENDROOT
BRANCH   1  12
ATOM     12  O   UNL     1       5.700  -4.143  20.993  0.00  0.00    -0.409 OA
ATOM     13  H   UNL     1       5.303  -4.765  20.356  0.00  0.00    +0.328 HD
ENDBRANCH   1  12
BRANCH   9  14
ATOM     14  C   UNL     1       4.517  -6.522  24.538  0.00  0.00    +0.009 C 
ATOM     15  C   UNL     1       3.576  -7.230  25.184  0.00  0.00    +0.008 C 
BRANCH  15  16
ATOM     16  C   UNL     1       2.531  -7.923  24.420  0.00  0.00    -0.025 A 
ATOM     17  C   UNL     1       1.799  -8.968  24.994  0.00  0.00    +0.008 A 
ATOM     18  C   UNL     1       0.757  -9.571  24.284  0.00  0.00    +0.001 A 
ATOM     19  C   UNL     1       0.443  -9.134  22.997  0.00  0.00    +0.000 A 
ATOM     20  C   UNL     1       1.177  -8.100  22.415  0.00  0.00    +0.001 A 
ATOM     21  C   UNL     1       2.219  -7.498  23.124  0.00  0.00    +0.008 A 
ENDBRANCH  15  16
ENDBRANCH   9  14
BRANCH   8  22
ATOM     22  C   UNL     1       9.288  -2.511  24.478  0.00  0.00    +0.153 C 
BRANCH  22  23
ATOM     23  C   UNL     1       8.897  -1.072  24.737  0.00  0.00    +0.015 A 
ATOM     24  C   UNL     1       8.379  -0.712  25.993  0.00  0.00    +0.047 A 
ATOM     25  C   UNL     1       7.988   0.598  26.244  0.00  0.00    +0.124 A 
ATOM     26  F   UNL     1       7.473   0.918  27.438  0.00  0.00    -0.205 F 
ATOM     27  C   UNL     1       8.123   1.582  25.275  0.00  0.00    +0.047 A 
ATOM     28  C   UNL     1       8.688   1.260  24.037  0.00  0.00    +0.023 A 
ATOM     29  C   UNL     1       8.870   2.315  22.991  0.00  0.00    +0.202 C 
ATOM     30  O   UNL     1       9.874   1.913  22.070  0.00  0.00    -0.339 OA
ATOM     31  C   UNL     1       9.577   0.613  21.578  0.00  0.00    +0.394 C 
ATOM     32  O   UNL     1       9.626  -0.416  22.569  0.00  0.00    -0.465 OA
ATOM     33  C   UNL     1       9.061  -0.065  23.768  0.00  0.00    +0.134 A 
ENDBRANCH  22  23
ENDBRANCH   8  22
TORSDOF 5
ENDMDL
MODEL 5
REMARK VINA RESULT:      -8.2      3.125      9.353
REMARK  Name = 
REMARK  5 active torsions:
REMARK  status: ('A' for Active; 'I' for Inactive)
REMARK    1  A    between atoms: O_1  and  N_2
REMARK    2  A    between atoms: N_6  and  C_7
REMARK    3  A    between atoms: C_7  and  C_8
REMARK    4  A    between atoms: C_23  and  C_24
REMARK    5  A    between atoms: C_25  and  C_26
REMARK                            x       y       z     vdW  Elec       q    Type
REMARK                         _______ _______ _______ _____ _____    ______ ____
ROOT
ATOM      1  N   UNL     1       6.064  -6.385  26.719  0.00  0.00    -0.082 NA
ATOM      2  C   UNL     1       6.667  -5.604  25.879  0.00  0.00    +0.174 C 
ATOM      3  C   UNL     1       6.289  -5.429  24.471  0.00  0.00    +0.037 A 
ATOM      4  C   UNL     1       7.256  -4.580  23.911  0.00  0.00    +0.047 A 
ATOM      5  C   UNL     1       7.210  -4.236  22.573  0.00  0.00    +0.024 A 
ATOM      6  C   UNL     1       6.169  -4.757  21.801  0.00  0.00    +0.002 A 
ATOM      7  C   UNL     1       5.196  -5.605  22.369  0.00  0.00    +0.009 A 
ATOM      8  N   UNL     1       8.210  -4.188  24.868  0.00  0.00    -0.261 N 
ATOM      9  C   UNL     1       5.229  -5.955  23.730  0.00  0.00    -0.014 A 
ATOM     10  C   UNL     1       7.913  -4.729  26.108  0.00  0.00    +0.273 C 
ATOM     11  O   UNL     1       8.493  -4.545  27.159  0.00  0.00    -0.268 OA
ENDROOT
BRANCH   1  12
ATOM     12  O   UNL     1       6.682  -6.388  27.968  0.00  0.00    -0.409 OA
ATOM     13  H   UNL     1       5.974  -6.705  28.558  0.00  0.00    +0.328 HD
ENDBRANCH   1  12
BRANCH   9  14
ATOM     14  C   UNL     1       4.240  -6.879  24.304  0.00  0.00    +0.009 C 
ATOM     15  C   UNL     1       2.929  -6.632  24.455  0.00  0.00    +0.008 C 
BRANCH  15  16
ATOM     16  C   UNL     1       2.068  -7.627  25.107  0.00  0.00    -0.025 A 
ATOM     17  C   UNL     1       1.760  -8.834  24.470  0.00  0.00    +0.008 A 
ATOM     18  C   UNL     1       1.000  -9.804  25.130  0.00  0.00    +0.001 A 
ATOM     19  C   UNL     1       0.543  -9.571  26.427  0.00  0.00    +0.000 A 
ATOM     20  C   UNL     1       0.837  -8.365  27.062  0.00  0.00    +0.001 A 
ATOM     21  C   UNL     1       1.595  -7.395  26.403  0.00  0.00    +0.008 A 
ENDBRANCH  15  16
ENDBRANCH   9  14
BRANCH   8  22
ATOM     22  C   UNL     1       9.345  -3.318  24.626  0.00  0.00    +0.153 C 
BRANCH  22  23
ATOM     23  C   UNL     1       9.011  -1.847  24.742  0.00  0.00    +0.015 A 
ATOM     24  C   UNL     1       8.601  -1.327  25.982  0.00  0.00    +0.047 A 
ATOM     25  C   UNL     1       8.262   0.016  26.105  0.00  0.00    +0.124 A 
ATOM     26  F   UNL     1       7.848   0.488  27.287  0.00  0.00    -0.205 F 
ATOM     27  C   UNL     1       8.348   0.876  25.020  0.00  0.00    +0.047 A 
ATOM     28  C   UNL     1       8.809   0.395  23.790  0.00  0.00    +0.023 A 
ATOM     29  C   UNL     1       8.937   1.316  22.617  0.00  0.00    +0.202 C 
ATOM     30  O   UNL     1       9.858   0.776  21.679  0.00  0.00    -0.339 OA
ATOM     31  C   UNL     1       9.491  -0.560  21.366  0.00  0.00    +0.394 C 
ATOM     32  O   UNL     1       9.589  -1.470  22.465  0.00  0.00    -0.465 OA
ATOM     33  C   UNL     1       9.127  -0.965  23.653  0.00  0.00    +0.134 A 
ENDBRANCH  22  23
ENDBRANCH   8  22
TORSDOF 5
ENDMDL
MODEL 6
REMARK VINA RESULT:      -8.2      2.795      8.921
REMARK  Name = 
REMARK  5 active torsions:
REMARK  status: ('A' for Active; 'I' for Inactive)
REMARK    1  A    between atoms: O_1  and  N_2
REMARK    2  A    between atoms: N_6  and  C_7
REMARK    3  A    between atoms: C_7  and  C_8
REMARK    4  A    between atoms: C_23  and  C_24
REMARK    5  A    between atoms: C_25  and  C_26
REMARK                            x       y       z     vdW  Elec       q    Type
REMARK                         _______ _______ _______ _____ _____    ______ ____
ROOT
ATOM      1  N   UNL     1       6.533  -6.174  26.851  0.00  0.00    -0.082 NA
ATOM      2  C   UNL     1       7.094  -5.466  25.922  0.00  0.00    +0.174 C 
ATOM      3  C   UNL     1       6.578  -5.308  24.556  0.00  0.00    +0.037 A 
ATOM      4  C   UNL     1       7.536  -4.552  23.864  0.00  0.00    +0.047 A 
ATOM      5  C   UNL     1       7.367  -4.248  22.526  0.00  0.00    +0.024 A 
ATOM      6  C   UNL     1       6.214  -4.714  21.890  0.00  0.00    +0.002 A 
ATOM      7  C   UNL     1       5.252  -5.469  22.592  0.00  0.00    +0.009 A 
ATOM      8  N   UNL     1       8.613  -4.201  24.697  0.00  0.00    -0.261 N 
ATOM      9  C   UNL     1       5.410  -5.778  23.954  0.00  0.00    -0.014 A 
ATOM     10  C   UNL     1       8.416  -4.679  25.982  0.00  0.00    +0.273 C 
ATOM     11  O   UNL     1       9.119  -4.506  26.956  0.00  0.00    -0.268 OA
ENDROOT
BRANCH   1  12
ATOM     12  O   UNL     1       7.283  -6.183  28.026  0.00  0.00    -0.409 OA
ATOM     13  H   UNL     1       7.030  -5.341  28.449  0.00  0.00    +0.328 HD
ENDBRANCH   1  12
BRANCH   9  14
ATOM     14  C   UNL     1       4.426  -6.608  24.667  0.00  0.00    +0.009 C 
ATOM     15  C   UNL     1       3.165  -6.843  24.273  0.00  0.00    +0.008 C 
BRANCH  15  16
ATOM     16  C   UNL     1       2.271  -7.642  25.121  0.00  0.00    -0.025 A 
ATOM     17  C   UNL     1       1.785  -8.878  24.683  0.00  0.00    +0.008 A 
ATOM     18  C   UNL     1       0.995  -9.663  25.528  0.00  0.00    +0.001 A 
ATOM     19  C   UNL     1       0.686  -9.215  26.812  0.00  0.00    +0.000 A 
ATOM     20  C   UNL     1       1.157  -7.978  27.250  0.00  0.00    +0.001 A 
ATOM     21  C   UNL     1       1.946  -7.193  26.406  0.00  0.00    +0.008 A 
ENDBRANCH  15  16
ENDBRANCH   9  14
BRANCH   8  22
ATOM     22  C   UNL     1       9.774  -3.426  24.301  0.00  0.00    +0.153 C 
BRANCH  22  23
ATOM     23  C   UNL     1       9.438  -2.010  23.886  0.00  0.00    +0.015 A 
ATOM     24  C   UNL     1       9.621  -1.621  22.548  0.00  0.00    +0.047 A 
ATOM     25  C   UNL     1       9.346  -0.318  22.149  0.00  0.00    +0.124 A 
ATOM     26  F   UNL     1       9.551   0.042  20.876  0.00  0.00    -0.205 F 
ATOM     27  C   UNL     1       8.861   0.617  23.052  0.00  0.00    +0.047 A 
ATOM     28  C   UNL     1       8.617   0.238  24.376  0.00  0.00    +0.023 A 
ATOM     29  C   UNL     1       8.064   1.226  25.356  0.00  0.00    +0.202 C 
ATOM     30  O   UNL     1       7.440   0.539  26.433  0.00  0.00    -0.339 OA
ATOM     31  C   UNL     1       8.342  -0.416  26.974  0.00  0.00    +0.394 C 
ATOM     32  O   UNL     1       8.683  -1.477  26.078  0.00  0.00    -0.465 OA
ATOM     33  C   UNL     1       8.917  -1.068  24.791  0.00  0.00    +0.134 A 
ENDBRANCH  22  23
ENDBRANCH   8  22
TORSDOF 5
ENDMDL
MODEL 7
REMARK VINA RESULT:      -8.2      1.851      2.619
REMARK  Name = 
REMARK  5 active torsions:
REMARK  status: ('A' for Active; 'I' for Inactive)
REMARK    1  A    between atoms: O_1  and  N_2
REMARK    2  A    between atoms: N_6  and  C_7
REMARK    3  A    between atoms: C_7  and  C_8
REMARK    4  A    between atoms: C_23  and  C_24
REMARK    5  A    between atoms: C_25  and  C_26
REMARK                            x       y       z     vdW  Elec       q    Type
REMARK                         _______ _______ _______ _____ _____    ______ ____
ROOT
ATOM      1  N   UNL     1       8.893   0.681  22.360  0.00  0.00    -0.082 NA
ATOM      2  C   UNL     1       8.723  -0.307  23.181  0.00  0.00    +0.174 C 
ATOM      3  C   UNL     1       8.252  -0.180  24.566  0.00  0.00    +0.037 A 
ATOM      4  C   UNL     1       8.309  -1.470  25.116  0.00  0.00    +0.047 A 
ATOM      5  C   UNL     1       7.958  -1.696  26.434  0.00  0.00    +0.024 A 
ATOM      6  C   UNL     1       7.543  -0.601  27.196  0.00  0.00    +0.002 A 
ATOM      7  C   UNL     1       7.482   0.692  26.637  0.00  0.00    +0.009 A 
ATOM      8  N   UNL     1       8.763  -2.410  24.173  0.00  0.00    -0.261 N 
ATOM      9  C   UNL     1       7.829   0.932  25.296  0.00  0.00    -0.014 A 
ATOM     10  C   UNL     1       9.003  -1.804  22.951  0.00  0.00    +0.273 C 
ATOM     11  O   UNL     1       9.345  -2.331  21.913  0.00  0.00    -0.268 OA
ENDROOT
BRANCH   1  12
ATOM     12  O   UNL     1       9.404   0.260  21.134  0.00  0.00    -0.409 OA
ATOM     13  H   UNL     1       8.635  -0.172  20.717  0.00  0.00    +0.328 HD
ENDBRANCH   1  12
BRANCH   9  14
ATOM     14  C   UNL     1       7.810   2.291  24.734  0.00  0.00    +0.009 C 
ATOM     15  C   UNL     1       8.841   3.152  24.729  0.00  0.00    +0.008 C 
BRANCH  15  16
ATOM     16  C   UNL     1       8.659   4.506  24.190  0.00  0.00    -0.025 A 
ATOM     17  C   UNL     1       7.942   4.714  23.006  0.00  0.00    +0.008 A 
ATOM     18  C   UNL     1       7.713   6.013  22.542  0.00  0.00    +0.001 A 
ATOM     19  C   UNL     1       8.198   7.107  23.257  0.00  0.00    +0.000 A 
ATOM     20  C   UNL     1       8.923   6.905  24.432  0.00  0.00    +0.001 A 
ATOM     21  C   UNL     1       9.154   5.608  24.895  0.00  0.00    +0.008 A 
ENDBRANCH  15  16
ENDBRANCH   9  14
BRANCH   8  22
ATOM     22  C   UNL     1       8.943  -3.830  24.410  0.00  0.00    +0.153 C 
BRANCH  22  23
ATOM     23  C   UNL     1       7.677  -4.637  24.218  0.00  0.00    +0.015 A 
ATOM     24  C   UNL     1       7.214  -4.895  22.917  0.00  0.00    +0.047 A 
ATOM     25  C   UNL     1       6.038  -5.610  22.717  0.00  0.00    +0.124 A 
ATOM     26  F   UNL     1       5.598  -5.825  21.471  0.00  0.00    -0.205 F 
ATOM     27  C   UNL     1       5.313  -6.107  23.791  0.00  0.00    +0.047 A 
ATOM     28  C   UNL     1       5.785  -5.912  25.093  0.00  0.00    +0.023 A 
ATOM     29  C   UNL     1       5.032  -6.466  26.262  0.00  0.00    +0.202 C 
ATOM     30  O   UNL     1       5.901  -6.598  27.377  0.00  0.00    -0.339 OA
ATOM     31  C   UNL     1       6.564  -5.363  27.612  0.00  0.00    +0.394 C 
ATOM     32  O   UNL     1       7.452  -4.964  26.564  0.00  0.00    -0.465 OA
ATOM     33  C   UNL     1       6.956  -5.168  25.303  0.00  0.00    +0.134 A 
ENDBRANCH  22  23
ENDBRANCH   8  22
TORSDOF 5
ENDMDL
MODEL 8
REMARK VINA RESULT:      -7.8      2.822      3.677
REMARK  Name = 
REMARK  5 active torsions:
REMARK  status: ('A' for Active; 'I' for Inactive)
REMARK    1  A    between atoms: O_1  and  N_2
REMARK    2  A    between atoms: N_6  and  C_7
REMARK    3  A    between atoms: C_7  and  C_8
REMARK    4  A    between atoms: C_23  and  C_24
REMARK    5  A    between atoms: C_25  and  C_26
REMARK                            x       y       z     vdW  Elec       q    Type
REMARK                         _______ _______ _______ _____ _____    ______ ____
ROOT
ATOM      1  N   UNL     1       8.883   1.163  22.309  0.00  0.00    -0.082 NA
ATOM      2  C   UNL     1       8.839   0.174  23.145  0.00  0.00    +0.174 C 
ATOM      3  C   UNL     1       8.362   0.263  24.531  0.00  0.00    +0.037 A 
ATOM      4  C   UNL     1       8.579  -1.002  25.098  0.00  0.00    +0.047 A 
ATOM      5  C   UNL     1       8.264  -1.250  26.421  0.00  0.00    +0.024 A 
ATOM      6  C   UNL     1       7.721  -0.203  27.170  0.00  0.00    +0.002 A 
ATOM      7  C   UNL     1       7.500   1.065  26.594  0.00  0.00    +0.009 A 
ATOM      8  N   UNL     1       9.141  -1.893  24.166  0.00  0.00    -0.261 N 
ATOM      9  C   UNL     1       7.809   1.325  25.247  0.00  0.00    -0.014 A 
ATOM     10  C   UNL     1       9.300  -1.280  22.934  0.00  0.00    +0.273 C 
ATOM     11  O   UNL     1       9.699  -1.777  21.902  0.00  0.00    -0.268 OA
ENDROOT
BRANCH   1  12
ATOM     12  O   UNL     1       9.437   0.790  21.086  0.00  0.00    -0.409 OA
ATOM     13  H   UNL     1       9.264  -0.169  21.055  0.00  0.00    +0.328 HD
ENDBRANCH   1  12
BRANCH   9  14
ATOM     14  C   UNL     1       7.622   2.663  24.667  0.00  0.00    +0.009 C 
ATOM     15  C   UNL     1       6.498   3.120  24.092  0.00  0.00    +0.008 C 
BRANCH  15  16
ATOM     16  C   UNL     1       6.475   4.460  23.493  0.00  0.00    -0.025 A 
ATOM     17  C   UNL     1       7.424   4.832  22.535  0.00  0.00    +0.008 A 
ATOM     18  C   UNL     1       7.349   6.084  21.918  0.00  0.00    +0.001 A 
ATOM     19  C   UNL     1       6.327   6.971  22.258  0.00  0.00    +0.000 A 
ATOM     20  C   UNL     1       5.385   6.610  23.222  0.00  0.00    +0.001 A 
ATOM     21  C   UNL     1       5.460   5.360  23.839  0.00  0.00    +0.008 A 
ENDBRANCH  15  16
ENDBRANCH   9  14
BRANCH   8  22
ATOM     22  C   UNL     1       9.494  -3.277  24.422  0.00  0.00    +0.153 C 
BRANCH  22  23
ATOM     23  C   UNL     1       8.318  -4.129  24.847  0.00  0.00    +0.015 A 
ATOM     24  C   UNL     1       8.211  -4.539  26.188  0.00  0.00    +0.047 A 
ATOM     25  C   UNL     1       7.154  -5.345  26.595  0.00  0.00    +0.124 A 
ATOM     26  F   UNL     1       7.083  -5.748  27.870  0.00  0.00    -0.205 F 
ATOM     27  C   UNL     1       6.170  -5.739  25.700  0.00  0.00    +0.047 A 
ATOM     28  C   UNL     1       6.223  -5.296  24.375  0.00  0.00    +0.023 A 
ATOM     29  C   UNL     1       5.154  -5.685  23.403  0.00  0.00    +0.202 C 
ATOM     30  O   UNL     1       5.122  -4.761  22.324  0.00  0.00    -0.339 OA
ATOM     31  C   UNL     1       6.425  -4.627  21.773  0.00  0.00    +0.394 C 
ATOM     32  O   UNL     1       7.383  -4.045  22.662  0.00  0.00    -0.465 OA
ATOM     33  C   UNL     1       7.301  -4.504  23.951  0.00  0.00    +0.134 A 
ENDBRANCH  22  23
ENDBRANCH   8  22
TORSDOF 5
ENDMDL
MODEL 9
REMARK VINA RESULT:      -7.7      2.180      2.707
REMARK  Name = 
REMARK  5 active torsions:
REMARK  status: ('A' for Active; 'I' for Inactive)
REMARK    1  A    between atoms: O_1  and  N_2
REMARK    2  A    between atoms: N_6  and  C_7
REMARK    3  A    between atoms: C_7  and  C_8
REMARK    4  A    between atoms: C_23  and  C_24
REMARK    5  A    between atoms: C_25  and  C_26
REMARK                            x       y       z     vdW  Elec       q    Type
REMARK                         _______ _______ _______ _____ _____    ______ ____
ROOT
ATOM      1  N   UNL     1       6.749   1.348  25.135  0.00  0.00    -0.082 NA
ATOM      2  C   UNL     1       6.963   0.250  24.480  0.00  0.00    +0.174 C 
ATOM      3  C   UNL     1       8.133  -0.012  23.633  0.00  0.00    +0.037 A 
ATOM      4  C   UNL     1       7.914  -1.266  23.044  0.00  0.00    +0.047 A 
ATOM      5  C   UNL     1       8.826  -1.801  22.153  0.00  0.00    +0.024 A 
ATOM      6  C   UNL     1       9.971  -1.055  21.865  0.00  0.00    +0.002 A 
ATOM      7  C   UNL     1      10.190   0.202  22.463  0.00  0.00    +0.009 A 
ATOM      8  N   UNL     1       6.697  -1.828  23.471  0.00  0.00    -0.261 N 
ATOM      9  C   UNL     1       9.273   0.752  23.377  0.00  0.00    -0.014 A 
ATOM     10  C   UNL     1       6.064  -0.996  24.379  0.00  0.00    +0.273 C 
ATOM     11  O   UNL     1       5.032  -1.202  24.984  0.00  0.00    -0.268 OA
ENDROOT
BRANCH   1  12
ATOM     12  O   UNL     1       5.527   1.329  25.804  0.00  0.00    -0.409 OA
ATOM     13  H   UNL     1       5.347   0.375  25.895  0.00  0.00    +0.328 HD
ENDBRANCH   1  12
BRANCH   9  14
ATOM     14  C   UNL     1       9.483   2.086  23.959  0.00  0.00    +0.009 C 
ATOM     15  C   UNL     1       9.094   3.251  23.416  0.00  0.00    +0.008 C 
BRANCH  15  16
ATOM     16  C   UNL     1       9.431   4.516  24.081  0.00  0.00    -0.025 A 
ATOM     17  C   UNL     1       8.619   5.027  25.099  0.00  0.00    +0.008 A 
ATOM     18  C   UNL     1       8.989   6.194  25.775  0.00  0.00    +0.001 A 
ATOM     19  C   UNL     1      10.169   6.855  25.435  0.00  0.00    +0.000 A 
ATOM     20  C   UNL     1      10.976   6.356  24.412  0.00  0.00    +0.001 A 
ATOM     21  C   UNL     1      10.607   5.192  23.736  0.00  0.00    +0.008 A 
ENDBRANCH  15  16
ENDBRANCH   9  14
BRANCH   8  22
ATOM     22  C   UNL     1       6.163  -3.111  23.055  0.00  0.00    +0.153 C 
BRANCH  22  23
ATOM     23  C   UNL     1       6.105  -4.130  24.172  0.00  0.00    +0.015 A 
ATOM     24  C   UNL     1       7.168  -4.211  25.088  0.00  0.00    +0.047 A 
ATOM     25  C   UNL     1       7.149  -5.157  26.107  0.00  0.00    +0.124 A 
ATOM     26  F   UNL     1       8.182  -5.237  26.954  0.00  0.00    -0.205 F 
ATOM     27  C   UNL     1       6.074  -6.021  26.258  0.00  0.00    +0.047 A 
ATOM     28  C   UNL     1       4.980  -5.922  25.394  0.00  0.00    +0.023 A 
ATOM     29  C   UNL     1       3.798  -6.825  25.562  0.00  0.00    +0.202 C 
ATOM     30  O   UNL     1       2.655  -6.243  24.952  0.00  0.00    -0.339 OA
ATOM     31  C   UNL     1       2.961  -5.885  23.611  0.00  0.00    +0.394 C 
ATOM     32  O   UNL     1       3.945  -4.855  23.487  0.00  0.00    -0.465 OA
ATOM     33  C   UNL     1       5.004  -4.986  24.349  0.00  0.00    +0.134 A 
ENDBRANCH  22  23
ENDBRANCH   8  22
TORSDOF 5
ENDMDL
