MODEL 1
REMARK VINA RESULT:      -6.0      0.000      0.000
REMARK  Name = 
REMARK  4 active torsions:
REMARK  status: ('A' for Active; 'I' for Inactive)
REMARK    1  A    between atoms: O5*_1  and  C5*_2
REMARK    2  A    between atoms: C5*_2  and  C4*_3
REMARK    3  A    between atoms: C1*_6  and  N1_12
REMARK    4  A    between atoms: C3*_9  and  O3*_11
REMARK                            x       y       z     vdW  Elec       q    Type
REMARK                         _______ _______ _______ _____ _____    ______ ____
ROOT
ATOM      1  C4*   U A   1       8.946  -3.468  24.853  0.00  0.00    +0.174 C 
ATOM      2  C3*   U A   1       7.747  -3.578  23.920  0.00  0.00    +0.150 C 
ATOM      3  C2*   U A   1       8.140  -2.801  22.684  0.00  0.00    +0.086 C 
ATOM      4  C1*   U A   1       9.539  -2.266  22.967  0.00  0.00    +0.212 C 
ATOM      5  O4*   U A   1      10.060  -3.013  24.066  0.00  0.00    -0.350 OA
ENDROOT
BRANCH   4   6
ATOM      6  N1    U A   1       9.628  -0.832  23.231  0.00  0.00    -0.259 N 
ATOM      7  C2    U A   1       9.610   0.048  22.167  0.00  0.00    +0.310 C 
ATOM      8  O2    U A   1       9.388  -0.282  21.006  0.00  0.00    -0.252 OA
ATOM      9  N3    U A   1       9.905   1.350  22.472  0.00  0.00    -0.240 N 
ATOM     10  H3    U A   1       9.892   1.994  21.696  0.00  0.00    +0.159 HD
ATOM     11  C4    U A   1      10.594   1.774  23.574  0.00  0.00    +0.222 C 
ATOM     12  O4    U A   1      11.063   2.909  23.640  0.00  0.00    -0.275 OA
ATOM     13  C5    U A   1      10.848   0.742  24.638  0.00  0.00    +0.115 C 
ATOM     14  C6    U A   1       9.753  -0.301  24.585  0.00  0.00    +0.121 C 
ENDBRANCH   4   6
BRANCH   2  15
ATOM     15  O3*   U A   1       6.590  -3.004  24.530  0.00  0.00    -0.389 OA
ATOM     16  H3*   U A   1       6.297  -3.622  25.225  0.00  0.00    +0.210 HD
ENDBRANCH   2  15
BRANCH   1  17
ATOM     17  C5*   U A   1       9.303  -4.778  25.557  0.00  0.00    +0.190 C 
BRANCH  17  18
ATOM     18  O5*   U A   1      10.279  -5.515  24.821  0.00  0.00    -0.392 OA
ATOM     19  H5*   U A   1      10.662  -6.165  25.435  0.00  0.00    +0.210 HD
ENDBRANCH  17  18
ENDBRANCH   1  17
TORSDOF 4
ENDMDL
MODEL 2
REMARK VINA RESULT:      -6.0      2.599      5.747
REMARK  Name = 
REMARK  4 active torsions:
REMARK  status: ('A' for Active; 'I' for Inactive)
REMARK    1  A    between atoms: O5*_1  and  C5*_2
REMARK    2  A    between atoms: C5*_2  and  C4*_3
REMARK    3  A    between atoms: C1*_6  and  N1_12
REMARK    4  A    between atoms: C3*_9  and  O3*_11
REMARK                            x       y       z     vdW  Elec       q    Type
REMARK                         _______ _______ _______ _____ _____    ______ ____
ROOT
ATOM      1  C4*   U A   1       8.624  -0.009  22.319  0.00  0.00    +0.174 C 
ATOM      2  C3*   U A   1       7.589   0.686  23.194  0.00  0.00    +0.150 C 
ATOM      3  C2*   U A   1       7.305  -0.289  24.314  0.00  0.00    +0.086 C 
ATOM      4  C1*   U A   1       8.178  -1.506  24.026  0.00  0.00    +0.212 C 
ATOM      5  O4*   U A   1       9.168  -1.098  23.084  0.00  0.00    -0.350 OA
ENDROOT
BRANCH   4   6
ATOM      6  N1    U A   1       7.472  -2.692  23.549  0.00  0.00    -0.259 N 
ATOM      7  C2    U A   1       8.113  -3.914  23.588  0.00  0.00    +0.310 C 
ATOM      8  O2    U A   1       9.201  -4.103  24.124  0.00  0.00    -0.252 OA
ATOM      9  N3    U A   1       7.476  -4.937  22.937  0.00  0.00    -0.240 N 
ATOM     10  H3    U A   1       7.943  -5.831  22.964  0.00  0.00    +0.159 HD
ATOM     11  C4    U A   1       6.542  -4.794  21.949  0.00  0.00    +0.222 C 
ATOM     12  O4    U A   1       6.225  -5.736  21.224  0.00  0.00    -0.275 OA
ATOM     13  C5    U A   1       6.021  -3.402  21.723  0.00  0.00    +0.115 C 
ATOM     14  C6    U A   1       6.114  -2.623  23.017  0.00  0.00    +0.121 C 
ENDBRANCH   4   6
BRANCH   2  15
ATOM     15  O3*   U A   1       6.403   0.950  22.443  0.00  0.00    -0.389 OA
ATOM     16  H3*   U A   1       5.664   0.983  23.078  0.00  0.00    +0.210 HD
ENDBRANCH   2  15
BRANCH   1  17
ATOM     17  C5*   U A   1       9.750   0.912  21.845  0.00  0.00    +0.190 C 
BRANCH  17  18
ATOM     18  O5*   U A   1       9.241   2.170  21.404  0.00  0.00    -0.392 OA
ATOM     19  H5*   U A   1       9.973   2.808  21.470  0.00  0.00    +0.210 HD
ENDBRANCH  17  18
ENDBRANCH   1  17
TORSDOF 4
ENDMDL
MODEL 3
REMARK VINA RESULT:      -5.9      2.927      4.334
REMARK  Name = 
REMARK  4 active torsions:
REMARK  status: ('A' for Active; 'I' for Inactive)
REMARK    1  A    between atoms: O5*_1  and  C5*_2
REMARK    2  A    between atoms: C5*_2  and  C4*_3
REMARK    3  A    between atoms: C1*_6  and  N1_12
REMARK    4  A    between atoms: C3*_9  and  O3*_11
REMARK                            x       y       z     vdW  Elec       q    Type
REMARK                         _______ _______ _______ _____ _____    ______ ____
ROOT
ATOM      1  C4*   U A   1       5.381  -5.303  22.930  0.00  0.00    +0.174 C 
ATOM      2  C3*   U A   1       6.112  -5.974  21.774  0.00  0.00    +0.150 C 
ATOM      3  C2*   U A   1       7.578  -5.889  22.136  0.00  0.00    +0.086 C 
ATOM      4  C1*   U A   1       7.625  -5.160  23.474  0.00  0.00    +0.212 C 
ATOM      5  O4*   U A   1       6.309  -5.205  24.023  0.00  0.00    -0.350 OA
ENDROOT
BRANCH   4   6
ATOM      6  N1    U A   1       8.118  -3.786  23.430  0.00  0.00    -0.259 N 
ATOM      7  C2    U A   1       9.240  -3.452  24.162  0.00  0.00    +0.310 C 
ATOM      8  O2    U A   1       9.944  -4.267  24.751  0.00  0.00    -0.252 OA
ATOM      9  N3    U A   1       9.518  -2.113  24.239  0.00  0.00    -0.240 N 
ATOM     10  H3    U A   1      10.338  -1.867  24.772  0.00  0.00    +0.159 HD
ATOM     11  C4    U A   1       8.622  -1.100  24.042  0.00  0.00    +0.222 C 
ATOM     12  O4    U A   1       8.867   0.051  24.399  0.00  0.00    -0.275 OA
ATOM     13  C5    U A   1       7.285  -1.495  23.479  0.00  0.00    +0.115 C 
ATOM     14  C6    U A   1       7.449  -2.749  22.649  0.00  0.00    +0.121 C 
ENDBRANCH   4   6
BRANCH   2  15
ATOM     15  O3*   U A   1       5.853  -5.279  20.554  0.00  0.00    -0.389 OA
ATOM     16  H3*   U A   1       5.647  -5.952  19.879  0.00  0.00    +0.210 HD
ENDBRANCH   2  15
BRANCH   1  17
ATOM     17  C5*   U A   1       4.121  -6.046  23.377  0.00  0.00    +0.190 C 
BRANCH  17  18
ATOM     18  O5*   U A   1       4.423  -7.373  23.804  0.00  0.00    -0.392 OA
ATOM     19  H5*   U A   1       5.052  -7.740  23.159  0.00  0.00    +0.210 HD
ENDBRANCH  17  18
ENDBRANCH   1  17
TORSDOF 4
ENDMDL
MODEL 4
REMARK VINA RESULT:      -5.7      1.981      3.216
REMARK  Name = 
REMARK  4 active torsions:
REMARK  status: ('A' for Active; 'I' for Inactive)
REMARK    1  A    between atoms: O5*_1  and  C5*_2
REMARK    2  A    between atoms: C5*_2  and  C4*_3
REMARK    3  A    between atoms: C1*_6  and  N1_12
REMARK    4  A    between atoms: C3*_9  and  O3*_11
REMARK                            x       y       z     vdW  Elec       q    Type
REMARK                         _______ _______ _______ _____ _____    ______ ____
ROOT
ATOM      1  C4*   U A   1       7.950  -4.503  23.847  0.00  0.00    +0.174 C 
ATOM      2  C3*   U A   1       8.511  -5.191  25.085  0.00  0.00    +0.150 C 
ATOM      3  C2*   U A   1       8.554  -4.114  26.146  0.00  0.00    +0.086 C 
ATOM      4  C1*   U A   1       8.031  -2.853  25.467  0.00  0.00    +0.212 C 
ATOM      5  O4*   U A   1       7.361  -3.264  24.277  0.00  0.00    -0.350 OA
ENDROOT
BRANCH   4   6
ATOM      6  N1    U A   1       9.033  -1.833  25.168  0.00  0.00    -0.259 N 
ATOM      7  C2    U A   1       9.194  -0.775  26.040  0.00  0.00    +0.310 C 
ATOM      8  O2    U A   1       8.642  -0.695  27.134  0.00  0.00    -0.252 OA
ATOM      9  N3    U A   1       9.995   0.242  25.594  0.00  0.00    -0.240 N 
ATOM     10  H3    U A   1      10.115   1.016  26.230  0.00  0.00    +0.159 HD
ATOM     11  C4    U A   1      10.292   0.507  24.286  0.00  0.00    +0.222 C 
ATOM     12  O4    U A   1      10.777   1.585  23.944  0.00  0.00    -0.275 OA
ATOM     13  C5    U A   1       9.882  -0.537  23.286  0.00  0.00    +0.115 C 
ATOM     14  C6    U A   1       9.858  -1.889  23.965  0.00  0.00    +0.121 C 
ENDBRANCH   4   6
BRANCH   2  15
ATOM     15  O3*   U A   1       9.822  -5.692  24.823  0.00  0.00    -0.389 OA
ATOM     16  H3*   U A   1       9.958  -5.648  23.858  0.00  0.00    +0.210 HD
ENDBRANCH   2  15
BRANCH   1  17
ATOM     17  C5*   U A   1       6.918  -5.340  23.090  0.00  0.00    +0.190 C 
BRANCH  17  18
ATOM     18  O5*   U A   1       7.497  -5.974  21.951  0.00  0.00    -0.392 OA
ATOM     19  H5*   U A   1       7.247  -5.442  21.176  0.00  0.00    +0.210 HD
ENDBRANCH  17  18
ENDBRANCH   1  17
TORSDOF 4
ENDMDL
MODEL 5
REMARK VINA RESULT:      -5.7      2.151      5.425
REMARK  Name = 
REMARK  4 active torsions:
REMARK  status: ('A' for Active; 'I' for Inactive)
REMARK    1  A    between atoms: O5*_1  and  C5*_2
REMARK    2  A    between atoms: C5*_2  and  C4*_3
REMARK    3  A    between atoms: C1*_6  and  N1_12
REMARK    4  A    between atoms: C3*_9  and  O3*_11
REMARK                            x       y       z     vdW  Elec       q    Type
REMARK                         _______ _______ _______ _____ _____    ______ ____
ROOT
ATOM      1  C4*   U A   1       8.739   0.856  23.236  0.00  0.00    +0.174 C 
ATOM      2  C3*   U A   1       9.735   1.601  24.115  0.00  0.00    +0.150 C 
ATOM      3  C2*   U A   1      10.565   0.519  24.770  0.00  0.00    +0.086 C 
ATOM      4  C1*   U A   1      10.000  -0.798  24.251  0.00  0.00    +0.212 C 
ATOM      5  O4*   U A   1       9.217  -0.493  23.098  0.00  0.00    -0.350 OA
ENDROOT
BRANCH   4   6
ATOM      6  N1    U A   1       9.220  -1.576  25.211  0.00  0.00    -0.259 N 
ATOM      7  C2    U A   1       9.043  -2.927  24.992  0.00  0.00    +0.310 C 
ATOM      8  O2    U A   1       9.610  -3.561  24.108  0.00  0.00    -0.252 OA
ATOM      9  N3    U A   1       8.136  -3.544  25.812  0.00  0.00    -0.240 N 
ATOM     10  H3    U A   1       8.005  -4.532  25.655  0.00  0.00    +0.159 HD
ATOM     11  C4    U A   1       7.131  -2.923  26.500  0.00  0.00    +0.222 C 
ATOM     12  O4    U A   1       6.195  -3.558  26.982  0.00  0.00    -0.275 OA
ATOM     13  C5    U A   1       7.173  -1.420  26.525  0.00  0.00    +0.115 C 
ATOM     14  C6    U A   1       8.608  -0.963  26.387  0.00  0.00    +0.121 C 
ENDBRANCH   4   6
BRANCH   2  15
ATOM     15  O3*   U A   1       9.047   2.373  25.100  0.00  0.00    -0.389 OA
ATOM     16  H3*   U A   1       9.251   3.310  24.923  0.00  0.00    +0.210 HD
ENDBRANCH   2  15
BRANCH   1  17
ATOM     17  C5*   U A   1       8.542   1.486  21.856  0.00  0.00    +0.190 C 
BRANCH  17  18
ATOM     18  O5*   U A   1       9.741   2.105  21.392  0.00  0.00    -0.392 OA
ATOM     19  H5*   U A   1       9.494   2.991  21.073  0.00  0.00    +0.210 HD
ENDBRANCH  17  18
ENDBRANCH   1  17
TORSDOF 4
ENDMDL
MODEL 6
REMARK VINA RESULT:      -5.6      2.456      5.436
REMARK  Name = 
REMARK  4 active torsions:
REMARK  status: ('A' for Active; 'I' for Inactive)
REMARK    1  A    between atoms: O5*_1  and  C5*_2
REMARK    2  A    between atoms: C5*_2  and  C4*_3
REMARK    3  A    between atoms: C1*_6  and  N1_12
REMARK    4  A    between atoms: C3*_9  and  O3*_11
REMARK                            x       y       z     vdW  Elec       q    Type
REMARK                         _______ _______ _______ _____ _____    ______ ____
ROOT
ATOM      1  C4*   U A   1       8.267  -0.143  23.416  0.00  0.00    +0.174 C 
ATOM      2  C3*   U A   1       9.729  -0.108  22.987  0.00  0.00    +0.150 C 
ATOM      3  C2*   U A   1       9.959  -1.425  22.279  0.00  0.00    +0.086 C 
ATOM      4  C1*   U A   1       8.627  -2.162  22.346  0.00  0.00    +0.212 C 
ATOM      5  O4*   U A   1       7.629  -1.197  22.676  0.00  0.00    -0.350 OA
ENDROOT
BRANCH   4   6
ATOM      6  N1    U A   1       8.574  -3.293  23.268  0.00  0.00    -0.259 N 
ATOM      7  C2    U A   1       7.626  -4.277  23.070  0.00  0.00    +0.310 C 
ATOM      8  O2    U A   1       6.898  -4.341  22.084  0.00  0.00    -0.252 OA
ATOM      9  N3    U A   1       7.499  -5.189  24.084  0.00  0.00    -0.240 N 
ATOM     10  H3    U A   1       6.807  -5.909  23.941  0.00  0.00    +0.159 HD
ATOM     11  C4    U A   1       7.885  -4.997  25.381  0.00  0.00    +0.222 C 
ATOM     12  O4    U A   1       7.490  -5.734  26.284  0.00  0.00    -0.275 OA
ATOM     13  C5    U A   1       8.712  -3.772  25.655  0.00  0.00    +0.115 C 
ATOM     14  C6    U A   1       9.483  -3.407  24.405  0.00  0.00    +0.121 C 
ENDBRANCH   4   6
BRANCH   2  15
ATOM     15  O3*   U A   1      10.578   0.005  24.129  0.00  0.00    -0.389 OA
ATOM     16  H3*   U A   1      11.453   0.288  23.808  0.00  0.00    +0.210 HD
ENDBRANCH   2  15
BRANCH   1  17
ATOM     17  C5*   U A   1       7.527   1.177  23.191  0.00  0.00    +0.190 C 
BRANCH  17  18
ATOM     18  O5*   U A   1       6.230   0.958  22.638  0.00  0.00    -0.392 OA
ATOM     19  H5*   U A   1       5.675   0.606  23.355  0.00  0.00    +0.210 HD
ENDBRANCH  17  18
ENDBRANCH   1  17
TORSDOF 4
ENDMDL
MODEL 7
REMARK VINA RESULT:      -5.6      2.295      3.384
REMARK  Name = 
REMARK  4 active torsions:
REMARK  status: ('A' for Active; 'I' for Inactive)
REMARK    1  A    between atoms: O5*_1  and  C5*_2
REMARK    2  A    between atoms: C5*_2  and  C4*_3
REMARK    3  A    between atoms: C1*_6  and  N1_12
REMARK    4  A    between atoms: C3*_9  and  O3*_11
REMARK                            x       y       z     vdW  Elec       q    Type
REMARK                         _______ _______ _______ _____ _____    ______ ____
ROOT
ATOM      1  C4*   U A   1       7.150  -4.592  22.059  0.00  0.00    +0.174 C 
ATOM      2  C3*   U A   1       7.232  -4.981  23.530  0.00  0.00    +0.150 C 
ATOM      3  C2*   U A   1       6.874  -3.722  24.287  0.00  0.00    +0.086 C 
ATOM      4  C1*   U A   1       6.618  -2.663  23.221  0.00  0.00    +0.212 C 
ATOM      5  O4*   U A   1       6.430  -3.350  21.984  0.00  0.00    -0.350 OA
ENDROOT
BRANCH   4   6
ATOM      6  N1    U A   1       7.648  -1.637  23.087  0.00  0.00    -0.259 N 
ATOM      7  C2    U A   1       7.341  -0.332  23.419  0.00  0.00    +0.310 C 
ATOM      8  O2    U A   1       6.291   0.013  23.952  0.00  0.00    -0.252 OA
ATOM      9  N3    U A   1       8.281   0.602  23.074  0.00  0.00    -0.240 N 
ATOM     10  H3    U A   1       8.059   1.556  23.316  0.00  0.00    +0.159 HD
ATOM     11  C4    U A   1       9.240   0.450  22.111  0.00  0.00    +0.222 C 
ATOM     12  O4    U A   1       9.858   1.415  21.663  0.00  0.00    -0.275 OA
ATOM     13  C5    U A   1       9.406  -0.935  21.550  0.00  0.00    +0.115 C 
ATOM     14  C6    U A   1       8.989  -1.945  22.597  0.00  0.00    +0.121 C 
ENDBRANCH   4   6
BRANCH   2  15
ATOM     15  O3*   U A   1       8.555  -5.407  23.857  0.00  0.00    -0.389 OA
ATOM     16  H3*   U A   1       8.535  -6.380  23.917  0.00  0.00    +0.210 HD
ENDBRANCH   2  15
BRANCH   1  17
ATOM     17  C5*   U A   1       6.472  -5.644  21.180  0.00  0.00    +0.190 C 
BRANCH  17  18
ATOM     18  O5*   U A   1       5.639  -6.509  21.951  0.00  0.00    -0.392 OA
ATOM     19  H5*   U A   1       5.125  -5.942  22.551  0.00  0.00    +0.210 HD
ENDBRANCH  17  18
ENDBRANCH   1  17
TORSDOF 4
ENDMDL
MODEL 8
REMARK VINA RESULT:      -5.5      2.072      2.901
REMARK  Name = 
REMARK  4 active torsions:
REMARK  status: ('A' for Active; 'I' for Inactive)
REMARK    1  A    between atoms: O5*_1  and  C5*_2
REMARK    2  A    between atoms: C5*_2  and  C4*_3
REMARK    3  A    between atoms: C1*_6  and  N1_12
REMARK    4  A    between atoms: C3*_9  and  O3*_11
REMARK                            x       y       z     vdW  Elec       q    Type
REMARK                         _______ _______ _______ _____ _____    ______ ____
ROOT
ATOM      1  C4*   U A   1       8.876  -1.488  24.650  0.00  0.00    +0.174 C 
ATOM      2  C3*   U A   1       9.281  -2.390  23.491  0.00  0.00    +0.150 C 
ATOM      3  C2*   U A   1      10.263  -1.571  22.683  0.00  0.00    +0.086 C 
ATOM      4  C1*   U A   1      10.368  -0.232  23.405  0.00  0.00    +0.212 C 
ATOM      5  O4*   U A   1       9.834  -0.419  24.715  0.00  0.00    -0.350 OA
ENDROOT
BRANCH   4   6
ATOM      6  N1    U A   1       9.720   0.897  22.742  0.00  0.00    -0.259 N 
ATOM      7  C2    U A   1      10.104   2.180  23.076  0.00  0.00    +0.310 C 
ATOM      8  O2    U A   1      11.056   2.446  23.803  0.00  0.00    -0.252 OA
ATOM      9  N3    U A   1       9.317   3.182  22.574  0.00  0.00    -0.240 N 
ATOM     10  H3    U A   1       9.596   4.121  22.816  0.00  0.00    +0.159 HD
ATOM     11  C4    U A   1       8.022   3.045  22.157  0.00  0.00    +0.222 C 
ATOM     12  O4    U A   1       7.296   4.023  21.988  0.00  0.00    -0.275 OA
ATOM     13  C5    U A   1       7.507   1.638  22.038  0.00  0.00    +0.115 C 
ATOM     14  C6    U A   1       8.667   0.710  21.748  0.00  0.00    +0.121 C 
ENDBRANCH   4   6
BRANCH   2  15
ATOM     15  O3*   U A   1       8.138  -2.727  22.702  0.00  0.00    -0.389 OA
ATOM     16  H3*   U A   1       7.857  -3.620  22.973  0.00  0.00    +0.210 HD
ENDBRANCH   2  15
BRANCH   1  17
ATOM     17  C5*   U A   1       8.804  -2.210  25.996  0.00  0.00    +0.190 C 
BRANCH  17  18
ATOM     18  O5*   U A   1       8.545  -3.603  25.827  0.00  0.00    -0.392 OA
ATOM     19  H5*   U A   1       7.738  -3.803  26.331  0.00  0.00    +0.210 HD
ENDBRANCH  17  18
ENDBRANCH   1  17
TORSDOF 4
ENDMDL
MODEL 9
REMARK VINA RESULT:      -5.5      2.319      5.672
REMARK  Name = 
REMARK  4 active torsions:
REMARK  status: ('A' for Active; 'I' for Inactive)
REMARK    1  A    between atoms: O5*_1  and  C5*_2
REMARK    2  A    between atoms: C5*_2  and  C4*_3
REMARK    3  A    between atoms: C1*_6  and  N1_12
REMARK    4  A    between atoms: C3*_9  and  O3*_11
REMARK                            x       y       z     vdW  Elec       q    Type
REMARK                         _______ _______ _______ _____ _____    ______ ____
ROOT
ATOM      1  C4*   U A   1       7.716   2.770  23.036  0.00  0.00    +0.174 C 
ATOM      2  C3*   U A   1       8.724   3.622  23.795  0.00  0.00    +0.150 C 
ATOM      3  C2*   U A   1      10.078   3.120  23.346  0.00  0.00    +0.086 C 
ATOM      4  C1*   U A   1       9.789   1.993  22.361  0.00  0.00    +0.212 C 
ATOM      5  O4*   U A   1       8.424   2.122  21.965  0.00  0.00    -0.350 OA
ENDROOT
BRANCH   4   6
ATOM      6  N1    U A   1      10.058   0.642  22.848  0.00  0.00    -0.259 N 
ATOM      7  C2    U A   1       9.773  -0.434  22.032  0.00  0.00    +0.310 C 
ATOM      8  O2    U A   1       9.429  -0.334  20.858  0.00  0.00    -0.252 OA
ATOM      9  N3    U A   1       9.853  -1.665  22.627  0.00  0.00    -0.240 N 
ATOM     10  H3    U A   1       9.646  -2.452  22.031  0.00  0.00    +0.159 HD
ATOM     11  C4    U A   1       9.771  -1.908  23.969  0.00  0.00    +0.222 C 
ATOM     12  O4    U A   1       9.568  -3.040  24.405  0.00  0.00    -0.275 OA
ATOM     13  C5    U A   1       9.820  -0.703  24.868  0.00  0.00    +0.115 C 
ATOM     14  C6    U A   1      10.603   0.394  24.180  0.00  0.00    +0.121 C 
ENDBRANCH   4   6
BRANCH   2  15
ATOM     15  O3*   U A   1       8.562   3.445  25.203  0.00  0.00    -0.389 OA
ATOM     16  H3*   U A   1       9.107   4.124  25.641  0.00  0.00    +0.210 HD
ENDBRANCH   2  15
BRANCH   1  17
ATOM     17  C5*   U A   1       6.534   3.563  22.477  0.00  0.00    +0.190 C 
BRANCH  17  18
ATOM     18  O5*   U A   1       6.971   4.733  21.787  0.00  0.00    -0.392 OA
ATOM     19  H5*   U A   1       7.909   4.595  21.568  0.00  0.00    +0.210 HD
ENDBRANCH  17  18
ENDBRANCH   1  17
TORSDOF 4
ENDMDL
