MODEL 1
REMARK VINA RESULT:      -7.2      0.000      0.000
REMARK  Name = 
REMARK  7 active torsions:
REMARK  status: ('A' for Active; 'I' for Inactive)
REMARK    1  A    between atoms: C_2  and  N_25
REMARK    2  A    between atoms: N_4  and  C_5
REMARK    3  A    between atoms: C_9  and  O_10
REMARK    4  A    between atoms: O_10  and  C_11
REMARK    5  A    between atoms: C_19  and  S_21
REMARK    6  A    between atoms: S_21  and  N_22
REMARK    7  A    between atoms: N_25  and  C_26
REMARK                            x       y       z     vdW  Elec       q    Type
REMARK                         _______ _______ _______ _____ _____    ______ ____
ROOT
ATOM      1  C   UNL     1       6.548   1.120  24.604  0.00  0.00    +0.105 C 
ATOM      2  C   UNL     1       6.927  -0.117  23.818  0.00  0.00    +0.007 A 
ATOM      3  C   UNL     1       6.206  -1.360  23.740  0.00  0.00    +0.043 A 
ATOM      4  C   UNL     1       6.792  -2.262  22.869  0.00  0.00    +0.144 A 
ATOM      5  S   UNL     1       8.247  -1.647  22.212  0.00  0.00    -0.048 S 
ATOM      6  C   UNL     1       8.056  -0.182  23.032  0.00  0.00    +0.152 A 
ATOM      7  S   UNL     1       9.203   1.113  22.725  0.00  0.00    +0.081 S 
ATOM      8  O   UNL     1      10.529   0.546  22.840  0.00  0.00    -0.149 OA
ATOM      9  O   UNL     1       8.701   1.722  21.513  0.00  0.00    -0.149 OA
ATOM     10  N   UNL     1       8.928   2.184  24.038  0.00  0.00    -0.201 N 
ATOM     11  C   UNL     1       7.494   2.365  24.461  0.00  0.00    +0.155 C 
ENDROOT
BRANCH  10  12
ATOM     12  C   UNL     1       9.639   3.436  23.838  0.00  0.00    +0.055 A 
ATOM     13  C   UNL     1      11.031   3.450  23.617  0.00  0.00    +0.070 A 
ATOM     14  C   UNL     1      11.710   4.651  23.417  0.00  0.00    +0.122 A 
ATOM     15  C   UNL     1      11.001   5.846  23.512  0.00  0.00    +0.046 A 
ATOM     16  C   UNL     1       9.634   5.846  23.806  0.00  0.00    +0.005 A 
ATOM     17  C   UNL     1       8.954   4.637  23.971  0.00  0.00    +0.025 A 
BRANCH  14  18
ATOM     18  O   UNL     1      13.041   4.773  23.129  0.00  0.00    -0.495 OA
ATOM     19  C   UNL     1      13.395   5.626  22.044  0.00  0.00    +0.277 C 
ENDBRANCH  14  18
ENDBRANCH  10  12
BRANCH   1  20
ATOM     20  N   UNL     1       5.171   1.452  24.176  0.00  0.00    -0.311 NA
ATOM     21  H   UNL     1       4.808   0.706  23.581  0.00  0.00    +0.122 HD
ATOM     22  C   UNL     1       5.067   2.723  23.465  0.00  0.00    +0.101 C 
ENDBRANCH   1  20
BRANCH   4  23
ATOM     23  S   UNL     1       6.303  -3.864  22.272  0.00  0.00    +0.062 S 
ATOM     24  O   UNL     1       7.487  -4.680  22.387  0.00  0.00    -0.153 OA
ATOM     25  O   UNL     1       5.613  -3.629  21.026  0.00  0.00    -0.153 OA
BRANCH  23  26
ATOM     26  N   UNL     1       5.185  -4.455  23.380  0.00  0.00    -0.203 NA
ATOM     27  H   UNL     1       4.428  -3.794  23.547  0.00  0.00    +0.144 HD
ATOM     28  H   UNL     1       4.888  -5.404  23.155  0.00  0.00    +0.144 HD
ENDBRANCH  23  26
ENDBRANCH   4  23
TORSDOF 5
ENDMDL
MODEL 2
REMARK VINA RESULT:      -7.1      4.110      6.014
REMARK  Name = 
REMARK  7 active torsions:
REMARK  status: ('A' for Active; 'I' for Inactive)
REMARK    1  A    between atoms: C_2  and  N_25
REMARK    2  A    between atoms: N_4  and  C_5
REMARK    3  A    between atoms: C_9  and  O_10
REMARK    4  A    between atoms: O_10  and  C_11
REMARK    5  A    between atoms: C_19  and  S_21
REMARK    6  A    between atoms: S_21  and  N_22
REMARK    7  A    between atoms: N_25  and  C_26
REMARK                            x       y       z     vdW  Elec       q    Type
REMARK                         _______ _______ _______ _____ _____    ______ ____
ROOT
ATOM      1  C   UNL     1       7.708  -4.603  23.962  0.00  0.00    +0.105 C 
ATOM      2  C   UNL     1       6.925  -4.479  25.252  0.00  0.00    +0.007 A 
ATOM      3  C   UNL     1       6.482  -5.543  26.114  0.00  0.00    +0.043 A 
ATOM      4  C   UNL     1       5.853  -5.077  27.256  0.00  0.00    +0.144 A 
ATOM      5  S   UNL     1       5.724  -3.371  27.251  0.00  0.00    -0.048 S 
ATOM      6  C   UNL     1       6.549  -3.264  25.780  0.00  0.00    +0.152 A 
ATOM      7  S   UNL     1       6.941  -1.672  25.147  0.00  0.00    +0.081 S 
ATOM      8  O   UNL     1       5.730  -0.881  25.200  0.00  0.00    -0.149 OA
ATOM      9  O   UNL     1       8.151  -1.321  25.855  0.00  0.00    -0.149 OA
ATOM     10  N   UNL     1       7.333  -2.001  23.509  0.00  0.00    -0.201 N 
ATOM     11  C   UNL     1       8.113  -3.264  23.251  0.00  0.00    +0.155 C 
ENDROOT
BRANCH  10  12
ATOM     12  C   UNL     1       7.901  -0.825  22.869  0.00  0.00    +0.055 A 
ATOM     13  C   UNL     1       7.127   0.337  22.676  0.00  0.00    +0.070 A 
ATOM     14  C   UNL     1       7.675   1.467  22.071  0.00  0.00    +0.122 A 
ATOM     15  C   UNL     1       8.982   1.405  21.593  0.00  0.00    +0.046 A 
ATOM     16  C   UNL     1       9.732   0.230  21.713  0.00  0.00    +0.005 A 
ATOM     17  C   UNL     1       9.188  -0.886  22.351  0.00  0.00    +0.025 A 
BRANCH  14  18
ATOM     18  O   UNL     1       7.037   2.663  21.896  0.00  0.00    -0.495 OA
ATOM     19  C   UNL     1       7.538   3.780  22.626  0.00  0.00    +0.277 C 
ENDBRANCH  14  18
ENDBRANCH  10  12
BRANCH   1  20
ATOM     20  N   UNL     1       8.906  -5.402  24.304  0.00  0.00    -0.311 NA
ATOM     21  H   UNL     1       8.618  -6.288  24.722  0.00  0.00    +0.122 HD
ATOM     22  C   UNL     1       9.825  -4.722  25.213  0.00  0.00    +0.101 C 
ENDBRANCH   1  20
BRANCH   4  23
ATOM     23  S   UNL     1       5.230  -5.885  28.711  0.00  0.00    +0.062 S 
ATOM     24  O   UNL     1       3.818  -5.592  28.724  0.00  0.00    -0.153 OA
ATOM     25  O   UNL     1       6.129  -5.523  29.782  0.00  0.00    -0.153 OA
BRANCH  23  26
ATOM     26  N   UNL     1       5.391  -7.536  28.436  0.00  0.00    -0.203 NA
ATOM     27  H   UNL     1       5.987  -7.982  29.131  0.00  0.00    +0.144 HD
ATOM     28  H   UNL     1       4.490  -7.988  28.285  0.00  0.00    +0.144 HD
ENDBRANCH  23  26
ENDBRANCH   4  23
TORSDOF 5
ENDMDL
MODEL 3
REMARK VINA RESULT:      -7.0      2.033      2.934
REMARK  Name = 
REMARK  7 active torsions:
REMARK  status: ('A' for Active; 'I' for Inactive)
REMARK    1  A    between atoms: C_2  and  N_25
REMARK    2  A    between atoms: N_4  and  C_5
REMARK    3  A    between atoms: C_9  and  O_10
REMARK    4  A    between atoms: O_10  and  C_11
REMARK    5  A    between atoms: C_19  and  S_21
REMARK    6  A    between atoms: S_21  and  N_22
REMARK    7  A    between atoms: N_25  and  C_26
REMARK                            x       y       z     vdW  Elec       q    Type
REMARK                         _______ _______ _______ _____ _____    ______ ____
ROOT
ATOM      1  C   UNL     1       9.046  -0.524  21.642  0.00  0.00    +0.105 C 
ATOM      2  C   UNL     1       7.927  -1.053  22.513  0.00  0.00    +0.007 A 
ATOM      3  C   UNL     1       7.287  -2.340  22.432  0.00  0.00    +0.043 A 
ATOM      4  C   UNL     1       6.349  -2.533  23.431  0.00  0.00    +0.144 A 
ATOM      5  S   UNL     1       6.180  -1.142  24.413  0.00  0.00    -0.048 S 
ATOM      6  C   UNL     1       7.384  -0.327  23.550  0.00  0.00    +0.152 A 
ATOM      7  S   UNL     1       7.895   1.259  24.107  0.00  0.00    +0.081 S 
ATOM      8  O   UNL     1       6.697   2.042  24.325  0.00  0.00    -0.149 OA
ATOM      9  O   UNL     1       8.845   0.954  25.154  0.00  0.00    -0.149 OA
ATOM     10  N   UNL     1       8.743   1.883  22.752  0.00  0.00    -0.201 N 
ATOM     11  C   UNL     1       9.598   0.903  21.992  0.00  0.00    +0.155 C 
ENDROOT
BRANCH  10  12
ATOM     12  C   UNL     1       9.435   3.113  23.101  0.00  0.00    +0.055 A 
ATOM     13  C   UNL     1      10.843   3.173  23.110  0.00  0.00    +0.070 A 
ATOM     14  C   UNL     1      11.505   4.356  23.435  0.00  0.00    +0.122 A 
ATOM     15  C   UNL     1      10.752   5.462  23.824  0.00  0.00    +0.046 A 
ATOM     16  C   UNL     1       9.356   5.388  23.891  0.00  0.00    +0.005 A 
ATOM     17  C   UNL     1       8.699   4.211  23.530  0.00  0.00    +0.025 A 
BRANCH  14  18
ATOM     18  O   UNL     1      12.859   4.542  23.410  0.00  0.00    -0.495 OA
ATOM     19  C   UNL     1      13.363   5.527  22.513  0.00  0.00    +0.277 C 
ENDBRANCH  14  18
ENDBRANCH  10  12
BRANCH   1  20
ATOM     20  N   UNL     1      10.119  -1.539  21.719  0.00  0.00    -0.311 NA
ATOM     21  H   UNL     1       9.787  -2.419  21.322  0.00  0.00    +0.122 HD
ATOM     22  C   UNL     1      10.603  -1.780  23.075  0.00  0.00    +0.101 C 
ENDBRANCH   1  20
BRANCH   4  23
ATOM     23  S   UNL     1       5.362  -3.931  23.914  0.00  0.00    +0.062 S 
ATOM     24  O   UNL     1       4.330  -3.383  24.758  0.00  0.00    -0.153 OA
ATOM     25  O   UNL     1       6.295  -4.944  24.349  0.00  0.00    -0.153 OA
BRANCH  23  26
ATOM     26  N   UNL     1       4.616  -4.483  22.513  0.00  0.00    -0.203 NA
ATOM     27  H   UNL     1       4.746  -5.485  22.381  0.00  0.00    +0.144 HD
ATOM     28  H   UNL     1       3.652  -4.159  22.439  0.00  0.00    +0.144 HD
ENDBRANCH  23  26
ENDBRANCH   4  23
TORSDOF 5
ENDMDL
MODEL 4
REMARK VINA RESULT:      -6.9      4.110      5.664
REMARK  Name = 
REMARK  7 active torsions:
REMARK  status: ('A' for Active; 'I' for Inactive)
REMARK    1  A    between atoms: C_2  and  N_25
REMARK    2  A    between atoms: N_4  and  C_5
REMARK    3  A    between atoms: C_9  and  O_10
REMARK    4  A    between atoms: O_10  and  C_11
REMARK    5  A    between atoms: C_19  and  S_21
REMARK    6  A    between atoms: S_21  and  N_22
REMARK    7  A    between atoms: N_25  and  C_26
REMARK                            x       y       z     vdW  Elec       q    Type
REMARK                         _______ _______ _______ _____ _____    ______ ____
ROOT
ATOM      1  C   UNL     1       8.036  -4.320  24.075  0.00  0.00    +0.105 C 
ATOM      2  C   UNL     1       6.976  -4.393  25.154  0.00  0.00    +0.007 A 
ATOM      3  C   UNL     1       6.245  -5.554  25.585  0.00  0.00    +0.043 A 
ATOM      4  C   UNL     1       5.401  -5.288  26.650  0.00  0.00    +0.144 A 
ATOM      5  S   UNL     1       5.428  -3.630  27.074  0.00  0.00    -0.048 S 
ATOM      6  C   UNL     1       6.593  -3.298  25.895  0.00  0.00    +0.152 A 
ATOM      7  S   UNL     1       7.266  -1.677  25.807  0.00  0.00    +0.081 S 
ATOM      8  O   UNL     1       6.153  -0.751  25.811  0.00  0.00    -0.149 OA
ATOM      9  O   UNL     1       8.294  -1.688  26.824  0.00  0.00    -0.149 OA
ATOM     10  N   UNL     1       8.014  -1.659  24.263  0.00  0.00    -0.201 N 
ATOM     11  C   UNL     1       8.718  -2.925  23.849  0.00  0.00    +0.155 C 
ENDROOT
BRANCH  10  12
ATOM     12  C   UNL     1       8.822  -0.461  24.096  0.00  0.00    +0.055 A 
ATOM     13  C   UNL     1       8.328   0.650  23.384  0.00  0.00    +0.070 A 
ATOM     14  C   UNL     1       9.100   1.801  23.233  0.00  0.00    +0.122 A 
ATOM     15  C   UNL     1      10.399   1.809  23.736  0.00  0.00    +0.046 A 
ATOM     16  C   UNL     1      10.924   0.682  24.378  0.00  0.00    +0.005 A 
ATOM     17  C   UNL     1      10.133  -0.455  24.556  0.00  0.00    +0.025 A 
BRANCH  14  18
ATOM     18  O   UNL     1       8.696   2.955  22.623  0.00  0.00    -0.495 OA
ATOM     19  C   UNL     1       7.350   3.008  22.158  0.00  0.00    +0.277 C 
ENDBRANCH  14  18
ENDBRANCH  10  12
BRANCH   1  20
ATOM     20  N   UNL     1       9.039  -5.345  24.437  0.00  0.00    -0.311 NA
ATOM     21  H   UNL     1       8.567  -6.226  24.648  0.00  0.00    +0.122 HD
ATOM     22  C   UNL     1       9.878  -4.970  25.571  0.00  0.00    +0.101 C 
ENDBRANCH   1  20
BRANCH   4  23
ATOM     23  S   UNL     1       4.373  -6.319  27.670  0.00  0.00    +0.062 S 
ATOM     24  O   UNL     1       3.498  -6.999  26.749  0.00  0.00    -0.153 OA
ATOM     25  O   UNL     1       3.902  -5.473  28.742  0.00  0.00    -0.153 OA
BRANCH  23  26
ATOM     26  N   UNL     1       5.390  -7.480  28.337  0.00  0.00    -0.203 NA
ATOM     27  H   UNL     1       6.220  -7.633  27.766  0.00  0.00    +0.144 HD
ATOM     28  H   UNL     1       5.571  -7.308  29.325  0.00  0.00    +0.144 HD
ENDBRANCH  23  26
ENDBRANCH   4  23
TORSDOF 5
ENDMDL
MODEL 5
REMARK VINA RESULT:      -6.8      3.784      8.286
REMARK  Name = 
REMARK  7 active torsions:
REMARK  status: ('A' for Active; 'I' for Inactive)
REMARK    1  A    between atoms: C_2  and  N_25
REMARK    2  A    between atoms: N_4  and  C_5
REMARK    3  A    between atoms: C_9  and  O_10
REMARK    4  A    between atoms: O_10  and  C_11
REMARK    5  A    between atoms: C_19  and  S_21
REMARK    6  A    between atoms: S_21  and  N_22
REMARK    7  A    between atoms: N_25  and  C_26
REMARK                            x       y       z     vdW  Elec       q    Type
REMARK                         _______ _______ _______ _____ _____    ______ ____
ROOT
ATOM      1  C   UNL     1      10.243  -0.844  23.673  0.00  0.00    +0.105 C 
ATOM      2  C   UNL     1       9.671   0.489  24.107  0.00  0.00    +0.007 A 
ATOM      3  C   UNL     1      10.168   1.802  23.786  0.00  0.00    +0.043 A 
ATOM      4  C   UNL     1       9.363   2.813  24.283  0.00  0.00    +0.144 A 
ATOM      5  S   UNL     1       8.062   2.187  25.201  0.00  0.00    -0.048 S 
ATOM      6  C   UNL     1       8.538   0.596  24.882  0.00  0.00    +0.152 A 
ATOM      7  S   UNL     1       7.517  -0.719  25.444  0.00  0.00    +0.081 S 
ATOM      8  O   UNL     1       7.220  -0.463  26.838  0.00  0.00    -0.149 OA
ATOM      9  O   UNL     1       6.501  -0.813  24.420  0.00  0.00    -0.149 OA
ATOM     10  N   UNL     1       8.554  -2.081  25.326  0.00  0.00    -0.201 N 
ATOM     11  C   UNL     1       9.459  -2.127  24.123  0.00  0.00    +0.155 C 
ENDROOT
BRANCH  10  12
ATOM     12  C   UNL     1       7.811  -3.313  25.544  0.00  0.00    +0.055 A 
ATOM     13  C   UNL     1       7.966  -4.049  26.736  0.00  0.00    +0.070 A 
ATOM     14  C   UNL     1       7.247  -5.224  26.947  0.00  0.00    +0.122 A 
ATOM     15  C   UNL     1       6.425  -5.700  25.928  0.00  0.00    +0.046 A 
ATOM     16  C   UNL     1       6.324  -5.016  24.712  0.00  0.00    +0.005 A 
ATOM     17  C   UNL     1       7.020  -3.821  24.521  0.00  0.00    +0.025 A 
BRANCH  14  18
ATOM     18  O   UNL     1       7.270  -5.976  28.088  0.00  0.00    -0.495 OA
ATOM     19  C   UNL     1       6.026  -6.199  28.745  0.00  0.00    +0.277 C 
ENDBRANCH  14  18
ENDBRANCH  10  12
BRANCH   1  20
ATOM     20  N   UNL     1      10.335  -0.772  22.198  0.00  0.00    -0.311 NA
ATOM     21  H   UNL     1      10.602   0.174  21.918  0.00  0.00    +0.122 HD
ATOM     22  C   UNL     1       9.099  -1.141  21.514  0.00  0.00    +0.101 C 
ENDBRANCH   1  20
BRANCH   4  23
ATOM     23  S   UNL     1       9.387   4.581  24.102  0.00  0.00    +0.062 S 
ATOM     24  O   UNL     1      10.738   4.895  23.705  0.00  0.00    -0.153 OA
ATOM     25  O   UNL     1       8.761   5.110  25.291  0.00  0.00    -0.153 OA
BRANCH  23  26
ATOM     26  N   UNL     1       8.392   4.931  22.793  0.00  0.00    -0.203 NA
ATOM     27  H   UNL     1       8.511   5.889  22.469  0.00  0.00    +0.144 HD
ATOM     28  H   UNL     1       8.451   4.219  22.066  0.00  0.00    +0.144 HD
ENDBRANCH  23  26
ENDBRANCH   4  23
TORSDOF 5
ENDMDL
MODEL 6
REMARK VINA RESULT:      -6.8      3.308      7.824
REMARK  Name = 
REMARK  7 active torsions:
REMARK  status: ('A' for Active; 'I' for Inactive)
REMARK    1  A    between atoms: C_2  and  N_25
REMARK    2  A    between atoms: N_4  and  C_5
REMARK    3  A    between atoms: C_9  and  O_10
REMARK    4  A    between atoms: O_10  and  C_11
REMARK    5  A    between atoms: C_19  and  S_21
REMARK    6  A    between atoms: S_21  and  N_22
REMARK    7  A    between atoms: N_25  and  C_26
REMARK                            x       y       z     vdW  Elec       q    Type
REMARK                         _______ _______ _______ _____ _____    ______ ____
ROOT
ATOM      1  C   UNL     1      10.119   1.245  22.906  0.00  0.00    +0.105 C 
ATOM      2  C   UNL     1       9.418   2.187  23.860  0.00  0.00    +0.007 A 
ATOM      3  C   UNL     1       9.539   3.620  23.923  0.00  0.00    +0.043 A 
ATOM      4  C   UNL     1       8.699   4.185  24.867  0.00  0.00    +0.144 A 
ATOM      5  S   UNL     1       7.828   2.991  25.730  0.00  0.00    -0.048 S 
ATOM      6  C   UNL     1       8.521   1.753  24.811  0.00  0.00    +0.152 A 
ATOM      7  S   UNL     1       7.966   0.105  25.061  0.00  0.00    +0.081 S 
ATOM      8  O   UNL     1       7.987  -0.141  26.488  0.00  0.00    -0.149 OA
ATOM      9  O   UNL     1       6.765   0.032  24.260  0.00  0.00    -0.149 OA
ATOM     10  N   UNL     1       9.193  -0.828  24.306  0.00  0.00    -0.201 N 
ATOM     11  C   UNL     1       9.754  -0.278  23.022  0.00  0.00    +0.155 C 
ENDROOT
BRANCH  10  12
ATOM     12  C   UNL     1       8.797  -2.225  24.219  0.00  0.00    +0.055 A 
ATOM     13  C   UNL     1       8.052  -2.698  23.120  0.00  0.00    +0.070 A 
ATOM     14  C   UNL     1       7.681  -4.038  23.033  0.00  0.00    +0.122 A 
ATOM     15  C   UNL     1       7.996  -4.892  24.088  0.00  0.00    +0.046 A 
ATOM     16  C   UNL     1       8.669  -4.414  25.217  0.00  0.00    +0.005 A 
ATOM     17  C   UNL     1       9.068  -3.077  25.282  0.00  0.00    +0.025 A 
BRANCH  14  18
ATOM     18  O   UNL     1       7.019  -4.614  21.984  0.00  0.00    -0.495 OA
ATOM     19  C   UNL     1       7.187  -6.016  21.801  0.00  0.00    +0.277 C 
ENDBRANCH  14  18
ENDBRANCH  10  12
BRANCH   1  20
ATOM     20  N   UNL     1       9.817   1.758  21.551  0.00  0.00    -0.311 NA
ATOM     21  H   UNL     1       9.980   2.766  21.523  0.00  0.00    +0.122 HD
ATOM     22  C   UNL     1       8.453   1.483  21.110  0.00  0.00    +0.101 C 
ENDBRANCH   1  20
BRANCH   4  23
ATOM     23  S   UNL     1       8.316   5.867  25.297  0.00  0.00    +0.062 S 
ATOM     24  O   UNL     1       8.692   5.991  26.684  0.00  0.00    -0.153 OA
ATOM     25  O   UNL     1       6.979   6.107  24.809  0.00  0.00    -0.153 OA
BRANCH  23  26
ATOM     26  N   UNL     1       9.371   6.829  24.410  0.00  0.00    -0.203 NA
ATOM     27  H   UNL     1      10.280   6.386  24.288  0.00  0.00    +0.144 HD
ATOM     28  H   UNL     1       8.942   7.179  23.554  0.00  0.00    +0.144 HD
ENDBRANCH  23  26
ENDBRANCH   4  23
TORSDOF 5
ENDMDL
MODEL 7
REMARK VINA RESULT:      -6.7      2.944      7.669
REMARK  Name = 
REMARK  7 active torsions:
REMARK  status: ('A' for Active; 'I' for Inactive)
REMARK    1  A    between atoms: C_2  and  N_25
REMARK    2  A    between atoms: N_4  and  C_5
REMARK    3  A    between atoms: C_9  and  O_10
REMARK    4  A    between atoms: O_10  and  C_11
REMARK    5  A    between atoms: C_19  and  S_21
REMARK    6  A    between atoms: S_21  and  N_22
REMARK    7  A    between atoms: N_25  and  C_26
REMARK                            x       y       z     vdW  Elec       q    Type
REMARK                         _______ _______ _______ _____ _____    ______ ____
ROOT
ATOM      1  C   UNL     1       7.194   1.615  25.932  0.00  0.00    +0.105 C 
ATOM      2  C   UNL     1       8.174   2.418  25.103  0.00  0.00    +0.007 A 
ATOM      3  C   UNL     1       8.258   3.851  24.989  0.00  0.00    +0.043 A 
ATOM      4  C   UNL     1       9.321   4.262  24.204  0.00  0.00    +0.144 A 
ATOM      5  S   UNL     1      10.166   2.930  23.541  0.00  0.00    -0.048 S 
ATOM      6  C   UNL     1       9.161   1.832  24.342  0.00  0.00    +0.152 A 
ATOM      7  S   UNL     1       9.528   0.117  24.232  0.00  0.00    +0.081 S 
ATOM      8  O   UNL     1       9.731  -0.187  22.831  0.00  0.00    -0.149 OA
ATOM      9  O   UNL     1      10.546  -0.071  25.241  0.00  0.00    -0.149 OA
ATOM     10  N   UNL     1       8.073  -0.618  24.767  0.00  0.00    -0.201 N 
ATOM     11  C   UNL     1       7.369   0.056  25.916  0.00  0.00    +0.155 C 
ENDROOT
BRANCH  10  12
ATOM     12  C   UNL     1       8.258  -2.048  24.955  0.00  0.00    +0.055 A 
ATOM     13  C   UNL     1       8.086  -2.947  23.883  0.00  0.00    +0.070 A 
ATOM     14  C   UNL     1       8.273  -4.316  24.062  0.00  0.00    +0.122 A 
ATOM     15  C   UNL     1       8.561  -4.793  25.339  0.00  0.00    +0.046 A 
ATOM     16  C   UNL     1       8.658  -3.915  26.425  0.00  0.00    +0.005 A 
ATOM     17  C   UNL     1       8.504  -2.541  26.230  0.00  0.00    +0.025 A 
BRANCH  14  18
ATOM     18  O   UNL     1       8.199  -5.264  23.080  0.00  0.00    -0.495 OA
ATOM     19  C   UNL     1       6.926  -5.475  22.475  0.00  0.00    +0.277 C 
ENDBRANCH  14  18
ENDBRANCH  10  12
BRANCH   1  20
ATOM     20  N   UNL     1       7.314   2.146  27.308  0.00  0.00    -0.311 NA
ATOM     21  H   UNL     1       8.233   2.575  27.430  0.00  0.00    +0.122 HD
ATOM     22  C   UNL     1       7.117   1.138  28.345  0.00  0.00    +0.101 C 
ENDBRANCH   1  20
BRANCH   4  23
ATOM     23  S   UNL     1       9.994   5.861  23.817  0.00  0.00    +0.062 S 
ATOM     24  O   UNL     1      10.406   6.408  25.086  0.00  0.00    -0.153 OA
ATOM     25  O   UNL     1       9.032   6.497  22.948  0.00  0.00    -0.153 OA
BRANCH  23  26
ATOM     26  N   UNL     1      11.390   5.577  22.924  0.00  0.00    -0.203 NA
ATOM     27  H   UNL     1      11.825   4.690  23.168  0.00  0.00    +0.144 HD
ATOM     28  H   UNL     1      11.243   5.726  21.926  0.00  0.00    +0.144 HD
ENDBRANCH  23  26
ENDBRANCH   4  23
TORSDOF 5
ENDMDL
MODEL 8
REMARK VINA RESULT:      -6.7      3.585      8.034
REMARK  Name = 
REMARK  7 active torsions:
REMARK  status: ('A' for Active; 'I' for Inactive)
REMARK    1  A    between atoms: C_2  and  N_25
REMARK    2  A    between atoms: N_4  and  C_5
REMARK    3  A    between atoms: C_9  and  O_10
REMARK    4  A    between atoms: O_10  and  C_11
REMARK    5  A    between atoms: C_19  and  S_21
REMARK    6  A    between atoms: S_21  and  N_22
REMARK    7  A    between atoms: N_25  and  C_26
REMARK                            x       y       z     vdW  Elec       q    Type
REMARK                         _______ _______ _______ _____ _____    ______ ____
ROOT
ATOM      1  C   UNL     1      10.296   0.490  23.284  0.00  0.00    +0.105 C 
ATOM      2  C   UNL     1       9.580   1.645  23.952  0.00  0.00    +0.007 A 
ATOM      3  C   UNL     1       9.824   3.052  23.765  0.00  0.00    +0.043 A 
ATOM      4  C   UNL     1       8.938   3.845  24.474  0.00  0.00    +0.144 A 
ATOM      5  S   UNL     1       7.871   2.902  25.424  0.00  0.00    -0.048 S 
ATOM      6  C   UNL     1       8.547   1.465  24.844  0.00  0.00    +0.152 A 
ATOM      7  S   UNL     1       7.820  -0.062  25.320  0.00  0.00    +0.081 S 
ATOM      8  O   UNL     1       7.658  -0.028  26.758  0.00  0.00    -0.149 OA
ATOM      9  O   UNL     1       6.714  -0.206  24.400  0.00  0.00    -0.149 OA
ATOM     10  N   UNL     1       9.034  -1.204  24.912  0.00  0.00    -0.201 N 
ATOM     11  C   UNL     1       9.783  -0.952  23.630  0.00  0.00    +0.155 C 
ENDROOT
BRANCH  10  12
ATOM     12  C   UNL     1       8.524  -2.561  25.033  0.00  0.00    +0.055 A 
ATOM     13  C   UNL     1       8.399  -3.177  26.295  0.00  0.00    +0.070 A 
ATOM     14  C   UNL     1       7.901  -4.474  26.409  0.00  0.00    +0.122 A 
ATOM     15  C   UNL     1       7.599  -5.182  25.248  0.00  0.00    +0.046 A 
ATOM     16  C   UNL     1       7.793  -4.605  23.988  0.00  0.00    +0.005 A 
ATOM     17  C   UNL     1       8.258  -3.293  23.883  0.00  0.00    +0.025 A 
BRANCH  14  18
ATOM     18  O   UNL     1       7.676  -5.138  27.582  0.00  0.00    -0.495 OA
ATOM     19  C   UNL     1       6.330  -5.501  27.876  0.00  0.00    +0.277 C 
ENDBRANCH  14  18
ENDBRANCH  10  12
BRANCH   1  20
ATOM     20  N   UNL     1      10.195   0.751  21.831  0.00  0.00    -0.311 NA
ATOM     21  H   UNL     1      10.136   1.758  21.667  0.00  0.00    +0.122 HD
ATOM     22  C   UNL     1       9.056   0.097  21.194  0.00  0.00    +0.101 C 
ENDBRANCH   1  20
BRANCH   4  23
ATOM     23  S   UNL     1       8.664   5.600  24.536  0.00  0.00    +0.062 S 
ATOM     24  O   UNL     1       9.565   6.081  25.554  0.00  0.00    -0.153 OA
ATOM     25  O   UNL     1       7.232   5.776  24.590  0.00  0.00    -0.153 OA
BRANCH  23  26
ATOM     26  N   UNL     1       9.206   6.210  23.066  0.00  0.00    -0.203 NA
ATOM     27  H   UNL     1       9.310   5.479  22.365  0.00  0.00    +0.144 HD
ATOM     28  H   UNL     1       8.667   7.022  22.767  0.00  0.00    +0.144 HD
ENDBRANCH  23  26
ENDBRANCH   4  23
TORSDOF 5
ENDMDL
MODEL 9
REMARK VINA RESULT:      -6.7      1.958      2.325
REMARK  Name = 
REMARK  7 active torsions:
REMARK  status: ('A' for Active; 'I' for Inactive)
REMARK    1  A    between atoms: C_2  and  N_25
REMARK    2  A    between atoms: N_4  and  C_5
REMARK    3  A    between atoms: C_9  and  O_10
REMARK    4  A    between atoms: O_10  and  C_11
REMARK    5  A    between atoms: C_19  and  S_21
REMARK    6  A    between atoms: S_21  and  N_22
REMARK    7  A    between atoms: N_25  and  C_26
REMARK                            x       y       z     vdW  Elec       q    Type
REMARK                         _______ _______ _______ _____ _____    ______ ____
ROOT
ATOM      1  C   UNL     1       8.279  -1.557  25.827  0.00  0.00    +0.105 C 
ATOM      2  C   UNL     1       7.859  -2.344  24.604  0.00  0.00    +0.007 A 
ATOM      3  C   UNL     1       7.375  -3.699  24.558  0.00  0.00    +0.043 A 
ATOM      4  C   UNL     1       7.006  -4.090  23.282  0.00  0.00    +0.144 A 
ATOM      5  S   UNL     1       7.319  -2.862  22.133  0.00  0.00    -0.048 S 
ATOM      6  C   UNL     1       7.876  -1.812  23.334  0.00  0.00    +0.152 A 
ATOM      7  S   UNL     1       8.295  -0.165  22.887  0.00  0.00    +0.081 S 
ATOM      8  O   UNL     1       9.159  -0.243  21.728  0.00  0.00    -0.149 OA
ATOM      9  O   UNL     1       7.018   0.514  22.881  0.00  0.00    -0.149 OA
ATOM     10  N   UNL     1       9.204   0.376  24.238  0.00  0.00    -0.201 N 
ATOM     11  C   UNL     1       8.714  -0.067  25.592  0.00  0.00    +0.155 C 
ENDROOT
BRANCH  10  12
ATOM     12  C   UNL     1       9.457   1.805  24.149  0.00  0.00    +0.055 A 
ATOM     13  C   UNL     1      10.678   2.294  23.643  0.00  0.00    +0.070 A 
ATOM     14  C   UNL     1      10.915   3.665  23.550  0.00  0.00    +0.122 A 
ATOM     15  C   UNL     1       9.952   4.547  24.034  0.00  0.00    +0.046 A 
ATOM     16  C   UNL     1       8.769   4.069  24.608  0.00  0.00    +0.005 A 
ATOM     17  C   UNL     1       8.523   2.696  24.666  0.00  0.00    +0.025 A 
BRANCH  14  18
ATOM     18  O   UNL     1      12.032   4.244  23.015  0.00  0.00    -0.495 OA
ATOM     19  C   UNL     1      12.419   5.511  23.537  0.00  0.00    +0.277 C 
ENDBRANCH  14  18
ENDBRANCH  10  12
BRANCH   1  20
ATOM     20  N   UNL     1       7.131  -1.631  26.757  0.00  0.00    -0.311 NA
ATOM     21  H   UNL     1       6.745  -2.576  26.749  0.00  0.00    +0.122 HD
ATOM     22  C   UNL     1       6.066  -0.679  26.452  0.00  0.00    +0.101 C 
ENDBRANCH   1  20
BRANCH   4  23
ATOM     23  S   UNL     1       6.235  -5.557  22.640  0.00  0.00    +0.062 S 
ATOM     24  O   UNL     1       7.328  -6.440  22.316  0.00  0.00    -0.153 OA
ATOM     25  O   UNL     1       5.263  -5.104  21.673  0.00  0.00    -0.153 OA
BRANCH  23  26
ATOM     26  N   UNL     1       5.402  -6.250  23.925  0.00  0.00    -0.203 NA
ATOM     27  H   UNL     1       5.554  -5.743  24.795  0.00  0.00    +0.144 HD
ATOM     28  H   UNL     1       4.426  -6.432  23.695  0.00  0.00    +0.144 HD
ENDBRANCH  23  26
ENDBRANCH   4  23
TORSDOF 5
ENDMDL
