MODEL 1
REMARK VINA RESULT:      -6.8      0.000      0.000
REMARK  Name = 
REMARK  7 active torsions:
REMARK  status: ('A' for Active; 'I' for Inactive)
REMARK    1  A    between atoms: C_2  and  C_17
REMARK    2  A    between atoms: C_7  and  C_9
REMARK    3  A    between atoms: C_9  and  C_10
REMARK    4  A    between atoms: C_10  and  C_11
REMARK    5  A    between atoms: N_19  and  C_20
REMARK    6  A    between atoms: C_20  and  C_21
REMARK    7  A    between atoms: C_24  and  C_27
REMARK                            x       y       z     vdW  Elec       q    Type
REMARK                         _______ _______ _______ _____ _____    ______ ____
ROOT
ATOM      1  C   UNL     1       7.885  -2.698  23.592  0.00  0.00    +0.234 C 
ATOM      2  N   UNL     1       9.246  -2.518  23.694  0.00  0.00    -0.310 N 
ATOM      3  H   UNL     1       9.723  -2.855  24.521  0.00  0.00    +0.149 HD
ATOM      4  O   UNL     1       7.247  -2.347  22.600  0.00  0.00    -0.274 OA
ENDROOT
BRANCH   1   5
ATOM      5  C   UNL     1       7.192  -3.354  24.807  0.00  0.00    +0.162 C 
ATOM      6  N   UNL     1       5.731  -3.204  24.833  0.00  0.00    -0.290 N 
ATOM      7  C   UNL     1       5.007  -2.191  25.428  0.00  0.00    +0.216 C 
ATOM      8  O   UNL     1       3.784  -2.262  25.544  0.00  0.00    -0.276 OA
ATOM      9  C   UNL     1       5.067  -4.439  24.445  0.00  0.00    +0.108 C 
ATOM     10  C   UNL     1       6.182  -5.373  24.000  0.00  0.00    +0.021 C 
ATOM     11  C   UNL     1       7.395  -4.870  24.775  0.00  0.00    +0.033 C 
BRANCH   7  12
ATOM     12  C   UNL     1       5.792  -0.970  25.888  0.00  0.00    +0.096 C 
BRANCH  12  13
ATOM     13  C   UNL     1       5.551   0.241  24.984  0.00  0.00    +0.013 C 
BRANCH  13  14
ATOM     14  C   UNL     1       6.842   0.817  24.361  0.00  0.00    -0.011 C 
ATOM     15  C   UNL     1       7.433   1.925  25.254  0.00  0.00    +0.003 C 
ATOM     16  C   UNL     1       6.606   3.211  25.237  0.00  0.00    +0.000 C 
ATOM     17  C   UNL     1       6.344   3.710  23.818  0.00  0.00    +0.000 C 
ATOM     18  C   UNL     1       5.778   2.621  22.910  0.00  0.00    +0.000 C 
ATOM     19  C   UNL     1       6.650   1.368  22.938  0.00  0.00    +0.003 C 
ENDBRANCH  13  14
ENDBRANCH  12  13
ENDBRANCH   7  12
ENDBRANCH   1   5
BRANCH   2  20
ATOM     20  C   UNL     1       9.994  -1.891  22.631  0.00  0.00    +0.139 C 
BRANCH  20  21
ATOM     21  C   UNL     1      10.127  -0.410  22.852  0.00  0.00    -0.030 A 
ATOM     22  C   UNL     1      10.566   0.089  24.087  0.00  0.00    +0.006 A 
ATOM     23  C   UNL     1      10.736   1.464  24.279  0.00  0.00    +0.016 A 
ATOM     24  C   UNL     1      10.476   2.355  23.232  0.00  0.00    +0.065 A 
ATOM     25  C   UNL     1      10.017   1.867  22.005  0.00  0.00    +0.016 A 
ATOM     26  C   UNL     1       9.851   0.492  21.815  0.00  0.00    +0.006 A 
BRANCH  24  27
ATOM     27  C   UNL     1      10.706   3.814  23.432  0.00  0.00    +0.308 C 
ATOM     28  N   UNL     1       9.834   4.595  23.990  0.00  0.00    -0.099 NA
ATOM     29  H   UNL     1       8.972   4.093  24.216  0.00  0.00    +0.363 HD
ATOM     30  N   UNL     1      11.866   4.399  23.022  0.00  0.00    -0.247 N 
ATOM     31  H   UNL     1      11.943   5.342  23.396  0.00  0.00    +0.288 HD
ATOM     32  H   UNL     1      12.710   3.857  23.161  0.00  0.00    +0.288 HD
ENDBRANCH  24  27
ENDBRANCH  20  21
ENDBRANCH   2  20
TORSDOF 7
ENDMDL
MODEL 2
REMARK VINA RESULT:      -6.5      2.047      5.226
REMARK  Name = 
REMARK  7 active torsions:
REMARK  status: ('A' for Active; 'I' for Inactive)
REMARK    1  A    between atoms: C_2  and  C_17
REMARK    2  A    between atoms: C_7  and  C_9
REMARK    3  A    between atoms: C_9  and  C_10
REMARK    4  A    between atoms: C_10  and  C_11
REMARK    5  A    between atoms: N_19  and  C_20
REMARK    6  A    between atoms: C_20  and  C_21
REMARK    7  A    between atoms: C_24  and  C_27
REMARK                            x       y       z     vdW  Elec       q    Type
REMARK                         _______ _______ _______ _____ _____    ______ ____
ROOT
ATOM      1  C   UNL     1       6.608   0.567  24.284  0.00  0.00    +0.234 C 
ATOM      2  N   UNL     1       7.695   1.280  23.830  0.00  0.00    -0.310 N 
ATOM      3  H   UNL     1       8.600   0.827  23.803  0.00  0.00    +0.149 HD
ATOM      4  O   UNL     1       5.473   1.041  24.309  0.00  0.00    -0.274 OA
ENDROOT
BRANCH   1   5
ATOM      5  C   UNL     1       6.895  -0.868  24.779  0.00  0.00    +0.162 C 
ATOM      6  N   UNL     1       8.302  -1.279  24.682  0.00  0.00    -0.290 N 
ATOM      7  C   UNL     1       8.914  -1.914  23.620  0.00  0.00    +0.216 C 
ATOM      8  O   UNL     1      10.051  -2.374  23.720  0.00  0.00    -0.276 OA
ATOM      9  C   UNL     1       8.949  -1.257  25.985  0.00  0.00    +0.108 C 
ATOM     10  C   UNL     1       7.927  -0.646  26.932  0.00  0.00    +0.021 C 
ATOM     11  C   UNL     1       6.593  -0.980  26.275  0.00  0.00    +0.033 C 
BRANCH   7  12
ATOM     12  C   UNL     1       8.130  -1.974  22.317  0.00  0.00    +0.096 C 
BRANCH  12  13
ATOM     13  C   UNL     1       7.031  -3.037  22.356  0.00  0.00    +0.013 C 
BRANCH  13  14
ATOM     14  C   UNL     1       7.500  -4.395  22.925  0.00  0.00    -0.011 C 
ATOM     15  C   UNL     1       7.179  -5.539  21.944  0.00  0.00    +0.003 C 
ATOM     16  C   UNL     1       5.685  -5.856  21.862  0.00  0.00    +0.000 C 
ATOM     17  C   UNL     1       5.072  -6.105  23.238  0.00  0.00    +0.000 C 
ATOM     18  C   UNL     1       5.396  -4.993  24.233  0.00  0.00    +0.000 C 
ATOM     19  C   UNL     1       6.899  -4.730  24.301  0.00  0.00    +0.003 C 
ENDBRANCH  13  14
ENDBRANCH  12  13
ENDBRANCH   7  12
ENDBRANCH   1   5
BRANCH   2  20
ATOM     20  C   UNL     1       7.550   2.640  23.369  0.00  0.00    +0.139 C 
BRANCH  20  21
ATOM     21  C   UNL     1       8.860   3.377  23.411  0.00  0.00    -0.030 A 
ATOM     22  C   UNL     1       8.895   4.749  23.700  0.00  0.00    +0.006 A 
ATOM     23  C   UNL     1      10.116   5.426  23.786  0.00  0.00    +0.016 A 
ATOM     24  C   UNL     1      11.317   4.734  23.593  0.00  0.00    +0.065 A 
ATOM     25  C   UNL     1      11.288   3.371  23.283  0.00  0.00    +0.016 A 
ATOM     26  C   UNL     1      10.067   2.696  23.201  0.00  0.00    +0.006 A 
BRANCH  24  27
ATOM     27  C   UNL     1      12.613   5.454  23.734  0.00  0.00    +0.308 C 
ATOM     28  N   UNL     1      13.708   5.052  23.168  0.00  0.00    -0.099 NA
ATOM     29  H   UNL     1      13.571   4.167  22.673  0.00  0.00    +0.363 HD
ATOM     30  N   UNL     1      12.702   6.589  24.483  0.00  0.00    -0.247 N 
ATOM     31  H   UNL     1      13.593   7.053  24.325  0.00  0.00    +0.288 HD
ATOM     32  H   UNL     1      11.917   7.225  24.422  0.00  0.00    +0.288 HD
ENDBRANCH  24  27
ENDBRANCH  20  21
ENDBRANCH   2  20
TORSDOF 7
ENDMDL
MODEL 3
REMARK VINA RESULT:      -6.5      2.739      7.693
REMARK  Name = 
REMARK  7 active torsions:
REMARK  status: ('A' for Active; 'I' for Inactive)
REMARK    1  A    between atoms: C_2  and  C_17
REMARK    2  A    between atoms: C_7  and  C_9
REMARK    3  A    between atoms: C_9  and  C_10
REMARK    4  A    between atoms: C_10  and  C_11
REMARK    5  A    between atoms: N_19  and  C_20
REMARK    6  A    between atoms: C_20  and  C_21
REMARK    7  A    between atoms: C_24  and  C_27
REMARK                            x       y       z     vdW  Elec       q    Type
REMARK                         _______ _______ _______ _____ _____    ______ ____
ROOT
ATOM      1  C   UNL     1       8.780  -0.821  25.949  0.00  0.00    +0.234 C 
ATOM      2  N   UNL     1       7.494  -1.043  25.512  0.00  0.00    -0.310 N 
ATOM      3  H   UNL     1       7.320  -1.108  24.516  0.00  0.00    +0.149 HD
ATOM      4  O   UNL     1       9.069  -0.767  27.144  0.00  0.00    -0.274 OA
ENDROOT
BRANCH   1   5
ATOM      5  C   UNL     1       9.847  -0.625  24.849  0.00  0.00    +0.162 C 
ATOM      6  N   UNL     1       9.315  -0.577  23.481  0.00  0.00    -0.290 N 
ATOM      7  C   UNL     1       9.143  -1.639  22.616  0.00  0.00    +0.216 C 
ATOM      8  O   UNL     1       8.860  -1.458  21.432  0.00  0.00    -0.276 OA
ATOM      9  C   UNL     1       9.290   0.786  22.972  0.00  0.00    +0.108 C 
ATOM     10  C   UNL     1       9.686   1.662  24.151  0.00  0.00    +0.021 C 
ATOM     11  C   UNL     1      10.532   0.734  25.014  0.00  0.00    +0.033 C 
BRANCH   7  12
ATOM     12  C   UNL     1       9.276  -3.033  23.211  0.00  0.00    +0.096 C 
BRANCH  12  13
ATOM     13  C   UNL     1       7.913  -3.667  23.498  0.00  0.00    +0.013 C 
BRANCH  13  14
ATOM     14  C   UNL     1       7.193  -4.190  22.235  0.00  0.00    -0.011 C 
ATOM     15  C   UNL     1       5.880  -3.420  21.996  0.00  0.00    +0.003 C 
ATOM     16  C   UNL     1       4.790  -3.767  23.011  0.00  0.00    +0.000 C 
ATOM     17  C   UNL     1       4.552  -5.272  23.110  0.00  0.00    +0.000 C 
ATOM     18  C   UNL     1       5.844  -6.056  23.325  0.00  0.00    +0.000 C 
ATOM     19  C   UNL     1       6.891  -5.698  22.274  0.00  0.00    +0.003 C 
ENDBRANCH  13  14
ENDBRANCH  12  13
ENDBRANCH   7  12
ENDBRANCH   1   5
BRANCH   2  20
ATOM     20  C   UNL     1       6.410  -1.212  26.450  0.00  0.00    +0.139 C 
BRANCH  20  21
ATOM     21  C   UNL     1       6.011  -2.656  26.575  0.00  0.00    -0.030 A 
ATOM     22  C   UNL     1       6.986  -3.652  26.735  0.00  0.00    +0.006 A 
ATOM     23  C   UNL     1       6.615  -4.990  26.900  0.00  0.00    +0.016 A 
ATOM     24  C   UNL     1       5.262  -5.346  26.916  0.00  0.00    +0.065 A 
ATOM     25  C   UNL     1       4.285  -4.361  26.736  0.00  0.00    +0.016 A 
ATOM     26  C   UNL     1       4.659  -3.024  26.574  0.00  0.00    +0.006 A 
BRANCH  24  27
ATOM     27  C   UNL     1       4.875  -6.767  27.139  0.00  0.00    +0.308 C 
ATOM     28  N   UNL     1       4.110  -7.426  26.326  0.00  0.00    -0.099 NA
ATOM     29  H   UNL     1       3.776  -6.833  25.562  0.00  0.00    +0.363 HD
ATOM     30  N   UNL     1       5.318  -7.445  28.235  0.00  0.00    -0.247 N 
ATOM     31  H   UNL     1       5.125  -8.440  28.143  0.00  0.00    +0.288 HD
ATOM     32  H   UNL     1       6.273  -7.261  28.517  0.00  0.00    +0.288 HD
ENDBRANCH  24  27
ENDBRANCH  20  21
ENDBRANCH   2  20
TORSDOF 7
ENDMDL
MODEL 4
REMARK VINA RESULT:      -6.3      1.671      4.138
REMARK  Name = 
REMARK  7 active torsions:
REMARK  status: ('A' for Active; 'I' for Inactive)
REMARK    1  A    between atoms: C_2  and  C_17
REMARK    2  A    between atoms: C_7  and  C_9
REMARK    3  A    between atoms: C_9  and  C_10
REMARK    4  A    between atoms: C_10  and  C_11
REMARK    5  A    between atoms: N_19  and  C_20
REMARK    6  A    between atoms: C_20  and  C_21
REMARK    7  A    between atoms: C_24  and  C_27
REMARK                            x       y       z     vdW  Elec       q    Type
REMARK                         _______ _______ _______ _____ _____    ______ ____
ROOT
ATOM      1  C   UNL     1       5.631  -2.539  25.897  0.00  0.00    +0.234 C 
ATOM      2  N   UNL     1       6.582  -1.644  26.331  0.00  0.00    -0.310 N 
ATOM      3  H   UNL     1       7.558  -1.911  26.291  0.00  0.00    +0.149 HD
ATOM      4  O   UNL     1       4.430  -2.269  25.882  0.00  0.00    -0.274 OA
ENDROOT
BRANCH   1   5
ATOM      5  C   UNL     1       6.153  -3.920  25.441  0.00  0.00    +0.162 C 
ATOM      6  N   UNL     1       7.617  -4.048  25.433  0.00  0.00    -0.290 N 
ATOM      7  C   UNL     1       8.471  -3.783  24.381  0.00  0.00    +0.216 C 
ATOM      8  O   UNL     1       9.659  -4.099  24.429  0.00  0.00    -0.276 OA
ATOM      9  C   UNL     1       8.085  -4.826  26.570  0.00  0.00    +0.108 C 
ATOM     10  C   UNL     1       6.851  -5.067  27.427  0.00  0.00    +0.021 C 
ATOM     11  C   UNL     1       5.705  -5.004  26.423  0.00  0.00    +0.033 C 
BRANCH   7  12
ATOM     12  C   UNL     1       7.878  -3.045  23.189  0.00  0.00    +0.096 C 
BRANCH  12  13
ATOM     13  C   UNL     1       8.301  -1.575  23.157  0.00  0.00    +0.013 C 
BRANCH  13  14
ATOM     14  C   UNL     1       9.606  -1.321  22.369  0.00  0.00    -0.011 C 
ATOM     15  C   UNL     1      10.681  -0.696  23.278  0.00  0.00    +0.003 C 
ATOM     16  C   UNL     1      10.380   0.757  23.649  0.00  0.00    +0.000 C 
ATOM     17  C   UNL     1      10.108   1.622  22.420  0.00  0.00    +0.000 C 
ATOM     18  C   UNL     1       9.061   1.009  21.494  0.00  0.00    +0.000 C 
ATOM     19  C   UNL     1       9.416  -0.430  21.129  0.00  0.00    +0.003 C 
ENDBRANCH  13  14
ENDBRANCH  12  13
ENDBRANCH   7  12
ENDBRANCH   1   5
BRANCH   2  20
ATOM     20  C   UNL     1       6.207  -0.334  26.806  0.00  0.00    +0.139 C 
BRANCH  20  21
ATOM     21  C   UNL     1       6.521   0.730  25.791  0.00  0.00    -0.030 A 
ATOM     22  C   UNL     1       5.813   0.791  24.582  0.00  0.00    +0.006 A 
ATOM     23  C   UNL     1       6.070   1.809  23.658  0.00  0.00    +0.016 A 
ATOM     24  C   UNL     1       7.035   2.783  23.938  0.00  0.00    +0.065 A 
ATOM     25  C   UNL     1       7.760   2.716  25.132  0.00  0.00    +0.016 A 
ATOM     26  C   UNL     1       7.498   1.699  26.055  0.00  0.00    +0.006 A 
BRANCH  24  27
ATOM     27  C   UNL     1       7.269   3.890  22.969  0.00  0.00    +0.308 C 
ATOM     28  N   UNL     1       8.293   4.682  23.037  0.00  0.00    -0.099 NA
ATOM     29  H   UNL     1       8.869   4.480  23.858  0.00  0.00    +0.363 HD
ATOM     30  N   UNL     1       6.394   4.120  21.950  0.00  0.00    -0.247 N 
ATOM     31  H   UNL     1       6.788   4.776  21.281  0.00  0.00    +0.288 HD
ATOM     32  H   UNL     1       6.003   3.299  21.505  0.00  0.00    +0.288 HD
ENDBRANCH  24  27
ENDBRANCH  20  21
ENDBRANCH   2  20
TORSDOF 7
ENDMDL
MODEL 5
REMARK VINA RESULT:      -6.2      1.912      2.597
REMARK  Name = 
REMARK  7 active torsions:
REMARK  status: ('A' for Active; 'I' for Inactive)
REMARK    1  A    between atoms: C_2  and  C_17
REMARK    2  A    between atoms: C_7  and  C_9
REMARK    3  A    between atoms: C_9  and  C_10
REMARK    4  A    between atoms: C_10  and  C_11
REMARK    5  A    between atoms: N_19  and  C_20
REMARK    6  A    between atoms: C_20  and  C_21
REMARK    7  A    between atoms: C_24  and  C_27
REMARK                            x       y       z     vdW  Elec       q    Type
REMARK                         _______ _______ _______ _____ _____    ______ ____
ROOT
ATOM      1  C   UNL     1       7.866  -4.182  26.407  0.00  0.00    +0.234 C 
ATOM      2  N   UNL     1       7.957  -3.610  25.159  0.00  0.00    -0.310 N 
ATOM      3  H   UNL     1       7.124  -3.211  24.742  0.00  0.00    +0.149 HD
ATOM      4  O   UNL     1       8.844  -4.652  26.988  0.00  0.00    -0.274 OA
ENDROOT
BRANCH   1   5
ATOM      5  C   UNL     1       6.457  -4.219  27.038  0.00  0.00    +0.162 C 
ATOM      6  N   UNL     1       5.364  -3.887  26.114  0.00  0.00    -0.290 N 
ATOM      7  C   UNL     1       4.827  -2.638  25.874  0.00  0.00    +0.216 C 
ATOM      8  O   UNL     1       3.795  -2.502  25.217  0.00  0.00    -0.276 OA
ATOM      9  C   UNL     1       4.642  -5.080  25.699  0.00  0.00    +0.108 C 
ATOM     10  C   UNL     1       5.428  -6.247  26.277  0.00  0.00    +0.021 C 
ATOM     11  C   UNL     1       6.119  -5.640  27.493  0.00  0.00    +0.033 C 
BRANCH   7  12
ATOM     12  C   UNL     1       5.598  -1.445  26.422  0.00  0.00    +0.096 C 
BRANCH  12  13
ATOM     13  C   UNL     1       5.934  -0.428  25.329  0.00  0.00    +0.013 C 
BRANCH  13  14
ATOM     14  C   UNL     1       5.275   0.953  25.541  0.00  0.00    -0.011 C 
ATOM     15  C   UNL     1       5.422   1.828  24.282  0.00  0.00    +0.003 C 
ATOM     16  C   UNL     1       6.853   2.316  24.056  0.00  0.00    +0.000 C 
ATOM     17  C   UNL     1       7.430   3.005  25.291  0.00  0.00    +0.000 C 
ATOM     18  C   UNL     1       7.275   2.163  26.555  0.00  0.00    +0.000 C 
ATOM     19  C   UNL     1       5.827   1.721  26.754  0.00  0.00    +0.003 C 
ENDBRANCH  13  14
ENDBRANCH  12  13
ENDBRANCH   7  12
ENDBRANCH   1   5
BRANCH   2  20
ATOM     20  C   UNL     1       9.219  -3.545  24.461  0.00  0.00    +0.139 C 
BRANCH  20  21
ATOM     21  C   UNL     1       9.533  -2.143  24.022  0.00  0.00    -0.030 A 
ATOM     22  C   UNL     1       9.730  -1.849  22.664  0.00  0.00    +0.006 A 
ATOM     23  C   UNL     1       9.975  -0.536  22.249  0.00  0.00    +0.016 A 
ATOM     24  C   UNL     1      10.018   0.500  23.189  0.00  0.00    +0.065 A 
ATOM     25  C   UNL     1       9.844   0.212  24.546  0.00  0.00    +0.016 A 
ATOM     26  C   UNL     1       9.596  -1.101  24.958  0.00  0.00    +0.006 A 
BRANCH  24  27
ATOM     27  C   UNL     1      10.233   1.902  22.731  0.00  0.00    +0.308 C 
ATOM     28  N   UNL     1       9.986   2.294  21.521  0.00  0.00    -0.099 NA
ATOM     29  H   UNL     1       9.685   1.516  20.928  0.00  0.00    +0.363 HD
ATOM     30  N   UNL     1      10.712   2.848  23.587  0.00  0.00    -0.247 N 
ATOM     31  H   UNL     1      10.622   3.776  23.181  0.00  0.00    +0.288 HD
ATOM     32  H   UNL     1      10.364   2.805  24.537  0.00  0.00    +0.288 HD
ENDBRANCH  24  27
ENDBRANCH  20  21
ENDBRANCH   2  20
TORSDOF 7
ENDMDL
MODEL 6
REMARK VINA RESULT:      -6.1      2.048      5.271
REMARK  Name = 
REMARK  7 active torsions:
REMARK  status: ('A' for Active; 'I' for Inactive)
REMARK    1  A    between atoms: C_2  and  C_17
REMARK    2  A    between atoms: C_7  and  C_9
REMARK    3  A    between atoms: C_9  and  C_10
REMARK    4  A    between atoms: C_10  and  C_11
REMARK    5  A    between atoms: N_19  and  C_20
REMARK    6  A    between atoms: C_20  and  C_21
REMARK    7  A    between atoms: C_24  and  C_27
REMARK                            x       y       z     vdW  Elec       q    Type
REMARK                         _______ _______ _______ _____ _____    ______ ____
ROOT
ATOM      1  C   UNL     1       7.931   0.271  24.605  0.00  0.00    +0.234 C 
ATOM      2  N   UNL     1       8.069   1.092  23.509  0.00  0.00    -0.310 N 
ATOM      3  H   UNL     1       8.343   0.683  22.624  0.00  0.00    +0.149 HD
ATOM      4  O   UNL     1       7.565   0.694  25.702  0.00  0.00    -0.274 OA
ENDROOT
BRANCH   1   5
ATOM      5  C   UNL     1       8.278  -1.218  24.389  0.00  0.00    +0.162 C 
ATOM      6  N   UNL     1       7.789  -1.783  23.124  0.00  0.00    -0.290 N 
ATOM      7  C   UNL     1       6.579  -2.409  22.904  0.00  0.00    +0.216 C 
ATOM      8  O   UNL     1       6.349  -3.005  21.852  0.00  0.00    -0.276 OA
ATOM      9  C   UNL     1       8.867  -1.928  22.158  0.00  0.00    +0.108 C 
ATOM     10  C   UNL     1      10.077  -1.269  22.804  0.00  0.00    +0.021 C 
ATOM     11  C   UNL     1       9.795  -1.398  24.296  0.00  0.00    +0.033 C 
BRANCH   7  12
ATOM     12  C   UNL     1       5.535  -2.286  24.005  0.00  0.00    +0.096 C 
BRANCH  12  13
ATOM     13  C   UNL     1       5.255  -3.629  24.684  0.00  0.00    +0.013 C 
BRANCH  13  14
ATOM     14  C   UNL     1       3.939  -4.294  24.223  0.00  0.00    -0.011 C 
ATOM     15  C   UNL     1       3.120  -4.782  25.434  0.00  0.00    +0.003 C 
ATOM     16  C   UNL     1       3.736  -6.001  26.122  0.00  0.00    +0.000 C 
ATOM     17  C   UNL     1       4.020  -7.135  25.139  0.00  0.00    +0.000 C 
ATOM     18  C   UNL     1       4.812  -6.669  23.920  0.00  0.00    +0.000 C 
ATOM     19  C   UNL     1       4.146  -5.469  23.251  0.00  0.00    +0.003 C 
ENDBRANCH  13  14
ENDBRANCH  12  13
ENDBRANCH   7  12
ENDBRANCH   1   5
BRANCH   2  20
ATOM     20  C   UNL     1       7.799   2.506  23.601  0.00  0.00    +0.139 C 
BRANCH  20  21
ATOM     21  C   UNL     1       9.068   3.312  23.577  0.00  0.00    -0.030 A 
ATOM     22  C   UNL     1       9.042   4.689  23.840  0.00  0.00    +0.006 A 
ATOM     23  C   UNL     1      10.228   5.431  23.865  0.00  0.00    +0.016 A 
ATOM     24  C   UNL     1      11.455   4.799  23.635  0.00  0.00    +0.065 A 
ATOM     25  C   UNL     1      11.486   3.430  23.350  0.00  0.00    +0.016 A 
ATOM     26  C   UNL     1      10.300   2.691  23.329  0.00  0.00    +0.006 A 
BRANCH  24  27
ATOM     27  C   UNL     1      12.716   5.588  23.711  0.00  0.00    +0.308 C 
ATOM     28  N   UNL     1      13.803   5.240  23.095  0.00  0.00    -0.099 NA
ATOM     29  H   UNL     1      13.690   4.346  22.612  0.00  0.00    +0.363 HD
ATOM     30  N   UNL     1      12.779   6.732  24.449  0.00  0.00    -0.247 N 
ATOM     31  H   UNL     1      13.635   7.242  24.246  0.00  0.00    +0.288 HD
ATOM     32  H   UNL     1      11.959   7.325  24.422  0.00  0.00    +0.288 HD
ENDBRANCH  24  27
ENDBRANCH  20  21
ENDBRANCH   2  20
TORSDOF 7
ENDMDL
MODEL 7
REMARK VINA RESULT:      -6.0      3.095      5.335
REMARK  Name = 
REMARK  7 active torsions:
REMARK  status: ('A' for Active; 'I' for Inactive)
REMARK    1  A    between atoms: C_2  and  C_17
REMARK    2  A    between atoms: C_7  and  C_9
REMARK    3  A    between atoms: C_9  and  C_10
REMARK    4  A    between atoms: C_10  and  C_11
REMARK    5  A    between atoms: N_19  and  C_20
REMARK    6  A    between atoms: C_20  and  C_21
REMARK    7  A    between atoms: C_24  and  C_27
REMARK                            x       y       z     vdW  Elec       q    Type
REMARK                         _______ _______ _______ _____ _____    ______ ____
ROOT
ATOM      1  C   UNL     1       6.747  -5.117  27.414  0.00  0.00    +0.234 C 
ATOM      2  N   UNL     1       7.200  -4.244  26.450  0.00  0.00    -0.310 N 
ATOM      3  H   UNL     1       6.578  -3.519  26.116  0.00  0.00    +0.149 HD
ATOM      4  O   UNL     1       7.461  -5.998  27.892  0.00  0.00    -0.274 OA
ENDROOT
BRANCH   1   5
ATOM      5  C   UNL     1       5.277  -4.940  27.854  0.00  0.00    +0.162 C 
ATOM      6  N   UNL     1       4.416  -6.100  27.591  0.00  0.00    -0.290 N 
ATOM      7  C   UNL     1       3.666  -6.341  26.457  0.00  0.00    +0.216 C 
ATOM      8  O   UNL     1       2.840  -7.253  26.419  0.00  0.00    -0.276 OA
ATOM      9  C   UNL     1       4.148  -6.847  28.810  0.00  0.00    +0.108 C 
ATOM     10  C   UNL     1       5.022  -6.203  29.876  0.00  0.00    +0.021 C 
ATOM     11  C   UNL     1       5.198  -4.775  29.374  0.00  0.00    +0.033 C 
BRANCH   7  12
ATOM     12  C   UNL     1       3.945  -5.454  25.252  0.00  0.00    +0.096 C 
BRANCH  12  13
ATOM     13  C   UNL     1       4.921  -6.108  24.272  0.00  0.00    +0.013 C 
BRANCH  13  14
ATOM     14  C   UNL     1       4.781  -5.596  22.821  0.00  0.00    -0.011 C 
ATOM     15  C   UNL     1       5.943  -6.106  21.947  0.00  0.00    +0.003 C 
ATOM     16  C   UNL     1       7.277  -5.434  22.273  0.00  0.00    +0.000 C 
ATOM     17  C   UNL     1       7.177  -3.910  22.246  0.00  0.00    +0.000 C 
ATOM     18  C   UNL     1       6.018  -3.385  23.089  0.00  0.00    +0.000 C 
ATOM     19  C   UNL     1       4.704  -4.063  22.710  0.00  0.00    +0.003 C 
ENDBRANCH  13  14
ENDBRANCH  12  13
ENDBRANCH   7  12
ENDBRANCH   1   5
BRANCH   2  20
ATOM     20  C   UNL     1       8.549  -4.333  25.943  0.00  0.00    +0.139 C 
BRANCH  20  21
ATOM     21  C   UNL     1       8.974  -3.051  25.283  0.00  0.00    -0.030 A 
ATOM     22  C   UNL     1       9.814  -3.073  24.160  0.00  0.00    +0.006 A 
ATOM     23  C   UNL     1      10.172  -1.884  23.516  0.00  0.00    +0.016 A 
ATOM     24  C   UNL     1       9.684  -0.659  23.984  0.00  0.00    +0.065 A 
ATOM     25  C   UNL     1       8.864  -0.628  25.116  0.00  0.00    +0.016 A 
ATOM     26  C   UNL     1       8.505  -1.818  25.756  0.00  0.00    +0.006 A 
BRANCH  24  27
ATOM     27  C   UNL     1      10.033   0.597  23.263  0.00  0.00    +0.308 C 
ATOM     28  N   UNL     1       9.846   0.754  21.990  0.00  0.00    -0.099 NA
ATOM     29  H   UNL     1       9.489  -0.100  21.555  0.00  0.00    +0.363 HD
ATOM     30  N   UNL     1      10.577   1.654  23.929  0.00  0.00    -0.247 N 
ATOM     31  H   UNL     1      10.579   2.484  23.342  0.00  0.00    +0.288 HD
ATOM     32  H   UNL     1      10.208   1.835  24.854  0.00  0.00    +0.288 HD
ENDBRANCH  24  27
ENDBRANCH  20  21
ENDBRANCH   2  20
TORSDOF 7
ENDMDL
MODEL 8
REMARK VINA RESULT:      -5.9      2.498      7.049
REMARK  Name = 
REMARK  7 active torsions:
REMARK  status: ('A' for Active; 'I' for Inactive)
REMARK    1  A    between atoms: C_2  and  C_17
REMARK    2  A    between atoms: C_7  and  C_9
REMARK    3  A    between atoms: C_9  and  C_10
REMARK    4  A    between atoms: C_10  and  C_11
REMARK    5  A    between atoms: N_19  and  C_20
REMARK    6  A    between atoms: C_20  and  C_21
REMARK    7  A    between atoms: C_24  and  C_27
REMARK                            x       y       z     vdW  Elec       q    Type
REMARK                         _______ _______ _______ _____ _____    ______ ____
ROOT
ATOM      1  C   UNL     1       9.789  -1.399  23.191  0.00  0.00    +0.234 C 
ATOM      2  N   UNL     1       9.282  -1.965  24.339  0.00  0.00    -0.310 N 
ATOM      3  H   UNL     1       8.562  -1.470  24.851  0.00  0.00    +0.149 HD
ATOM      4  O   UNL     1      10.638  -1.961  22.499  0.00  0.00    -0.274 OA
ENDROOT
BRANCH   1   5
ATOM      5  C   UNL     1       9.243  -0.002  22.823  0.00  0.00    +0.162 C 
ATOM      6  N   UNL     1       8.250   0.534  23.764  0.00  0.00    -0.290 N 
ATOM      7  C   UNL     1       6.879   0.383  23.703  0.00  0.00    +0.216 C 
ATOM      8  O   UNL     1       6.133   1.026  24.441  0.00  0.00    -0.276 OA
ATOM      9  C   UNL     1       8.830   1.558  24.618  0.00  0.00    +0.108 C 
ATOM     10  C   UNL     1      10.317   1.553  24.298  0.00  0.00    +0.021 C 
ATOM     11  C   UNL     1      10.369   1.033  22.866  0.00  0.00    +0.033 C 
BRANCH   7  12
ATOM     12  C   UNL     1       6.347  -0.646  22.716  0.00  0.00    +0.096 C 
BRANCH  12  13
ATOM     13  C   UNL     1       6.055  -1.989  23.389  0.00  0.00    +0.013 C 
BRANCH  13  14
ATOM     14  C   UNL     1       5.403  -3.026  22.447  0.00  0.00    -0.011 C 
ATOM     15  C   UNL     1       4.514  -4.002  23.241  0.00  0.00    +0.003 C 
ATOM     16  C   UNL     1       5.316  -4.980  24.099  0.00  0.00    +0.000 C 
ATOM     17  C   UNL     1       6.380  -5.719  23.291  0.00  0.00    +0.000 C 
ATOM     18  C   UNL     1       7.260  -4.771  22.479  0.00  0.00    +0.000 C 
ATOM     19  C   UNL     1       6.417  -3.833  21.618  0.00  0.00    +0.003 C 
ENDBRANCH  13  14
ENDBRANCH  12  13
ENDBRANCH   7  12
ENDBRANCH   1   5
BRANCH   2  20
ATOM     20  C   UNL     1       9.740  -3.256  24.795  0.00  0.00    +0.139 C 
BRANCH  20  21
ATOM     21  C   UNL     1       8.725  -3.915  25.687  0.00  0.00    -0.030 A 
ATOM     22  C   UNL     1       8.797  -5.291  25.952  0.00  0.00    +0.006 A 
ATOM     23  C   UNL     1       7.884  -5.897  26.820  0.00  0.00    +0.016 A 
ATOM     24  C   UNL     1       6.891  -5.130  27.440  0.00  0.00    +0.065 A 
ATOM     25  C   UNL     1       6.799  -3.762  27.164  0.00  0.00    +0.016 A 
ATOM     26  C   UNL     1       7.716  -3.158  26.298  0.00  0.00    +0.006 A 
BRANCH  24  27
ATOM     27  C   UNL     1       5.952  -5.775  28.400  0.00  0.00    +0.308 C 
ATOM     28  N   UNL     1       5.323  -5.116  29.322  0.00  0.00    -0.099 NA
ATOM     29  H   UNL     1       5.599  -4.131  29.333  0.00  0.00    +0.363 HD
ATOM     30  N   UNL     1       5.713  -7.116  28.345  0.00  0.00    -0.247 N 
ATOM     31  H   UNL     1       4.920  -7.362  28.932  0.00  0.00    +0.288 HD
ATOM     32  H   UNL     1       5.649  -7.519  27.419  0.00  0.00    +0.288 HD
ENDBRANCH  24  27
ENDBRANCH  20  21
ENDBRANCH   2  20
TORSDOF 7
ENDMDL
MODEL 9
REMARK VINA RESULT:      -5.9      2.180      6.754
REMARK  Name = 
REMARK  7 active torsions:
REMARK  status: ('A' for Active; 'I' for Inactive)
REMARK    1  A    between atoms: C_2  and  C_17
REMARK    2  A    between atoms: C_7  and  C_9
REMARK    3  A    between atoms: C_9  and  C_10
REMARK    4  A    between atoms: C_10  and  C_11
REMARK    5  A    between atoms: N_19  and  C_20
REMARK    6  A    between atoms: C_20  and  C_21
REMARK    7  A    between atoms: C_24  and  C_27
REMARK                            x       y       z     vdW  Elec       q    Type
REMARK                         _______ _______ _______ _____ _____    ______ ____
ROOT
ATOM      1  C   UNL     1       9.118  -0.623  22.585  0.00  0.00    +0.234 C 
ATOM      2  N   UNL     1       9.206  -1.308  23.776  0.00  0.00    -0.310 N 
ATOM      3  H   UNL     1       8.894  -0.853  24.625  0.00  0.00    +0.149 HD
ATOM      4  O   UNL     1       9.444  -1.127  21.510  0.00  0.00    -0.274 OA
ENDROOT
BRANCH   1   5
ATOM      5  C   UNL     1       8.598   0.829  22.672  0.00  0.00    +0.162 C 
ATOM      6  N   UNL     1       8.420   1.334  24.040  0.00  0.00    -0.290 N 
ATOM      7  C   UNL     1       7.277   1.265  24.811  0.00  0.00    +0.216 C 
ATOM      8  O   UNL     1       7.185   1.881  25.872  0.00  0.00    -0.276 OA
ATOM      9  C   UNL     1       9.492   2.246  24.410  0.00  0.00    +0.108 C 
ATOM     10  C   UNL     1      10.485   2.187  23.260  0.00  0.00    +0.021 C 
ATOM     11  C   UNL     1       9.622   1.793  22.067  0.00  0.00    +0.033 C 
BRANCH   7  12
ATOM     12  C   UNL     1       6.165   0.357  24.305  0.00  0.00    +0.096 C 
BRANCH  12  13
ATOM     13  C   UNL     1       5.398  -0.305  25.452  0.00  0.00    +0.013 C 
BRANCH  13  14
ATOM     14  C   UNL     1       5.685  -1.816  25.600  0.00  0.00    -0.011 C 
ATOM     15  C   UNL     1       4.503  -2.651  25.074  0.00  0.00    +0.003 C 
ATOM     16  C   UNL     1       3.273  -2.586  25.981  0.00  0.00    +0.000 C 
ATOM     17  C   UNL     1       3.607  -2.933  27.430  0.00  0.00    +0.000 C 
ATOM     18  C   UNL     1       4.791  -2.131  27.965  0.00  0.00    +0.000 C 
ATOM     19  C   UNL     1       6.002  -2.247  27.043  0.00  0.00    +0.003 C 
ENDBRANCH  13  14
ENDBRANCH  12  13
ENDBRANCH   7  12
ENDBRANCH   1   5
BRANCH   2  20
ATOM     20  C   UNL     1       9.704  -2.662  23.818  0.00  0.00    +0.139 C 
BRANCH  20  21
ATOM     21  C   UNL     1       8.591  -3.651  24.025  0.00  0.00    -0.030 A 
ATOM     22  C   UNL     1       8.456  -4.326  25.248  0.00  0.00    +0.006 A 
ATOM     23  C   UNL     1       7.393  -5.210  25.458  0.00  0.00    +0.016 A 
ATOM     24  C   UNL     1       6.447  -5.422  24.449  0.00  0.00    +0.065 A 
ATOM     25  C   UNL     1       6.587  -4.770  23.220  0.00  0.00    +0.016 A 
ATOM     26  C   UNL     1       7.649  -3.884  23.014  0.00  0.00    +0.006 A 
BRANCH  24  27
ATOM     27  C   UNL     1       5.293  -6.330  24.700  0.00  0.00    +0.308 C 
ATOM     28  N   UNL     1       4.825  -7.140  23.802  0.00  0.00    -0.099 NA
ATOM     29  H   UNL     1       5.312  -7.031  22.909  0.00  0.00    +0.363 HD
ATOM     30  N   UNL     1       4.666  -6.342  25.910  0.00  0.00    -0.247 N 
ATOM     31  H   UNL     1       4.034  -7.136  25.977  0.00  0.00    +0.288 HD
ATOM     32  H   UNL     1       5.264  -6.252  26.721  0.00  0.00    +0.288 HD
ENDBRANCH  24  27
ENDBRANCH  20  21
ENDBRANCH   2  20
TORSDOF 7
ENDMDL
