MODEL 1
REMARK VINA RESULT:      -6.3      0.000      0.000
REMARK  Name = 
REMARK  10 active torsions:
REMARK  status: ('A' for Active; 'I' for Inactive)
REMARK    1  A    between atoms: C_5  and  C_6
REMARK    2  A    between atoms: C_6  and  O_7
REMARK    3  A    between atoms: O_7  and  C_8
REMARK    4  A    between atoms: CA_11  and  C_29
REMARK    5  A    between atoms: CA_15  and  N_17
REMARK    6  A    between atoms: C_18  and  C_20
REMARK    7  A    between atoms: C_20  and  C_24
REMARK    8  A    between atoms: N_21  and  O_22
REMARK    9  A    between atoms: O_22  and  C_23
REMARK   10  A    between atoms: C_29  and  O_30
REMARK                            x       y       z     vdW  Elec       q    Type
REMARK                         _______ _______ _______ _____ _____    ______ ____
ROOT
ATOM      1  C   UNL     1       7.960  -4.736  23.605  0.00  0.00    +0.169 C 
ATOM      2  CA  UNL     1       7.504  -3.751  22.440  0.00  0.00    +0.191 C 
ATOM      3  C   UNL     1       6.098  -4.223  22.903  0.00  0.00    +0.244 C 
ATOM      4  O   UNL     1       4.958  -4.012  22.565  0.00  0.00    -0.273 OA
ATOM      5  N   UNL     1       6.615  -4.642  24.086  0.00  0.00    -0.249 N 
ATOM      6  CA  UNL     1       6.131  -4.943  25.316  0.00  0.00    +0.125 C 
ATOM      7  C   UNL     1       6.942  -4.871  26.412  0.00  0.00    +0.006 C 
ATOM      8  C   UNL     1       8.432  -4.656  26.383  0.00  0.00    +0.107 C 
ATOM      9  S   UNL     1       9.275  -4.564  24.779  0.00  0.00    -0.131 S 
ENDROOT
BRANCH   2  10
ATOM     10  N   UNL     1       7.565  -2.254  22.283  0.00  0.00    -0.296 N 
ATOM     11  H   UNL     1       7.424  -1.891  21.341  0.00  0.00    +0.150 HD
ATOM     12  C   UNL     1       7.533  -1.161  23.160  0.00  0.00    +0.270 C 
ATOM     13  O   UNL     1       7.406  -0.041  22.672  0.00  0.00    -0.268 OA
BRANCH  12  14
ATOM     14  C   UNL     1       7.836  -1.266  24.643  0.00  0.00    +0.206 C 
ATOM     15  N   UNL     1       8.991  -1.099  25.215  0.00  0.00    -0.076 NA
BRANCH  14  16
ATOM     16  C   UNL     1       6.742  -1.359  25.601  0.00  0.00    +0.161 A 
ATOM     17  O   UNL     1       5.439  -1.495  25.206  0.00  0.00    -0.461 OA
ATOM     18  C   UNL     1       4.658  -1.174  26.279  0.00  0.00    +0.196 A 
ATOM     19  C   UNL     1       5.429  -0.891  27.380  0.00  0.00    +0.042 A 
ATOM     20  C   UNL     1       6.765  -1.066  26.962  0.00  0.00    +0.052 A 
ENDBRANCH  14  16
BRANCH  15  21
ATOM     21  O   UNL     1      10.153  -0.685  24.575  0.00  0.00    -0.396 OA
ATOM     22  C   UNL     1      10.565   0.661  24.624  0.00  0.00    +0.313 C 
ENDBRANCH  15  21
ENDBRANCH  12  14
ENDBRANCH   2  10
BRANCH   6  23
ATOM     23  C   UNL     1       4.683  -5.258  25.514  0.00  0.00    +0.351 C 
ATOM     24  OXT UNL     1       4.296  -6.402  25.675  0.00  0.00    -0.244 OA
BRANCH  23  25
ATOM     25  O   UNL     1       3.818  -4.236  25.468  0.00  0.00    -0.476 OA
ATOM     26  H   UNL     1       3.706  -3.749  24.623  0.00  0.00    +0.295 HD
ENDBRANCH  23  25
ENDBRANCH   6  23
BRANCH   7  27
ATOM     27  C   UNL     1       6.408  -4.888  27.847  0.00  0.00    +0.268 C 
BRANCH  27  28
ATOM     28  O   UNL     1       6.889  -6.038  28.575  0.00  0.00    -0.446 OA
BRANCH  28  29
ATOM     29  C   UNL     1       5.973  -6.774  29.238  0.00  0.00    +0.398 C 
ATOM     30  O   UNL     1       5.809  -6.811  30.445  0.00  0.00    -0.227 OA
ATOM     31  N   UNL     1       5.257  -7.523  28.368  0.00  0.00    -0.295 N 
ATOM     32  H   UNL     1       4.576  -8.170  28.734  0.00  0.00    +0.148 HD
ATOM     33  H   UNL     1       5.541  -7.568  27.400  0.00  0.00    +0.148 HD
ENDBRANCH  28  29
ENDBRANCH  27  28
ENDBRANCH   7  27
TORSDOF 9
ENDMDL
MODEL 2
REMARK VINA RESULT:      -6.2      3.051      7.534
REMARK  Name = 
REMARK  10 active torsions:
REMARK  status: ('A' for Active; 'I' for Inactive)
REMARK    1  A    between atoms: C_5  and  C_6
REMARK    2  A    between atoms: C_6  and  O_7
REMARK    3  A    between atoms: O_7  and  C_8
REMARK    4  A    between atoms: CA_11  and  C_29
REMARK    5  A    between atoms: CA_15  and  N_17
REMARK    6  A    between atoms: C_18  and  C_20
REMARK    7  A    between atoms: C_20  and  C_24
REMARK    8  A    between atoms: N_21  and  O_22
REMARK    9  A    between atoms: O_22  and  C_23
REMARK   10  A    between atoms: C_29  and  O_30
REMARK                            x       y       z     vdW  Elec       q    Type
REMARK                         _______ _______ _______ _____ _____    ______ ____
ROOT
ATOM      1  C   UNL     1       7.614  -1.334  23.010  0.00  0.00    +0.169 C 
ATOM      2  CA  UNL     1       8.602  -2.583  23.023  0.00  0.00    +0.191 C 
ATOM      3  C   UNL     1       9.611  -1.498  22.552  0.00  0.00    +0.244 C 
ATOM      4  O   UNL     1      10.777  -1.476  22.243  0.00  0.00    -0.273 OA
ATOM      5  N   UNL     1       8.791  -0.519  23.012  0.00  0.00    -0.249 N 
ATOM      6  CA  UNL     1       8.914   0.791  23.338  0.00  0.00    +0.125 C 
ATOM      7  C   UNL     1       8.039   1.369  24.211  0.00  0.00    +0.006 C 
ATOM      8  C   UNL     1       6.783   0.729  24.741  0.00  0.00    +0.107 C 
ATOM      9  S   UNL     1       6.310  -0.913  24.133  0.00  0.00    -0.131 S 
ENDROOT
BRANCH   2  10
ATOM     10  N   UNL     1       9.170  -3.426  24.134  0.00  0.00    -0.296 N 
ATOM     11  H   UNL     1      10.140  -3.245  24.390  0.00  0.00    +0.150 HD
ATOM     12  C   UNL     1       8.633  -4.273  25.113  0.00  0.00    +0.270 C 
ATOM     13  O   UNL     1       9.381  -4.663  26.005  0.00  0.00    -0.268 OA
BRANCH  12  14
ATOM     14  C   UNL     1       7.246  -4.884  25.025  0.00  0.00    +0.206 C 
ATOM     15  N   UNL     1       6.301  -4.801  25.913  0.00  0.00    -0.076 NA
BRANCH  14  16
ATOM     16  C   UNL     1       6.787  -5.460  23.767  0.00  0.00    +0.161 A 
ATOM     17  O   UNL     1       7.656  -5.829  22.776  0.00  0.00    -0.461 OA
ATOM     18  C   UNL     1       6.926  -5.961  21.630  0.00  0.00    +0.196 A 
ATOM     19  C   UNL     1       5.590  -5.745  21.871  0.00  0.00    +0.042 A 
ATOM     20  C   UNL     1       5.494  -5.481  23.254  0.00  0.00    +0.052 A 
ENDBRANCH  14  16
BRANCH  15  21
ATOM     21  O   UNL     1       6.354  -4.040  27.074  0.00  0.00    -0.396 OA
ATOM     22  C   UNL     1       5.432  -2.998  27.298  0.00  0.00    +0.313 C 
ENDBRANCH  15  21
ENDBRANCH  12  14
ENDBRANCH   2  10
BRANCH   6  23
ATOM     23  C   UNL     1      10.065   1.601  22.833  0.00  0.00    +0.351 C 
ATOM     24  OXT UNL     1      11.051   1.803  23.519  0.00  0.00    -0.244 OA
BRANCH  23  25
ATOM     25  O   UNL     1       9.955   2.132  21.608  0.00  0.00    -0.476 OA
ATOM     26  H   UNL     1       9.490   1.620  20.911  0.00  0.00    +0.295 HD
ENDBRANCH  23  25
ENDBRANCH   6  23
BRANCH   7  27
ATOM     27  C   UNL     1       8.288   2.732  24.863  0.00  0.00    +0.268 C 
BRANCH  27  28
ATOM     28  O   UNL     1       7.503   3.769  24.236  0.00  0.00    -0.446 OA
BRANCH  28  29
ATOM     29  C   UNL     1       8.146   4.605  23.395  0.00  0.00    +0.398 C 
ATOM     30  O   UNL     1       8.925   5.489  23.707  0.00  0.00    -0.227 OA
ATOM     31  N   UNL     1       7.774   4.359  22.118  0.00  0.00    -0.295 N 
ATOM     32  H   UNL     1       8.132   4.954  21.387  0.00  0.00    +0.148 HD
ATOM     33  H   UNL     1       7.011   3.723  21.936  0.00  0.00    +0.148 HD
ENDBRANCH  28  29
ENDBRANCH  27  28
ENDBRANCH   7  27
TORSDOF 9
ENDMDL
MODEL 3
REMARK VINA RESULT:      -6.1      2.932      7.339
REMARK  Name = 
REMARK  10 active torsions:
REMARK  status: ('A' for Active; 'I' for Inactive)
REMARK    1  A    between atoms: C_5  and  C_6
REMARK    2  A    between atoms: C_6  and  O_7
REMARK    3  A    between atoms: O_7  and  C_8
REMARK    4  A    between atoms: CA_11  and  C_29
REMARK    5  A    between atoms: CA_15  and  N_17
REMARK    6  A    between atoms: C_18  and  C_20
REMARK    7  A    between atoms: C_20  and  C_24
REMARK    8  A    between atoms: N_21  and  O_22
REMARK    9  A    between atoms: O_22  and  C_23
REMARK   10  A    between atoms: C_29  and  O_30
REMARK                            x       y       z     vdW  Elec       q    Type
REMARK                         _______ _______ _______ _____ _____    ______ ____
ROOT
ATOM      1  C   UNL     1       7.563  -1.448  23.044  0.00  0.00    +0.169 C 
ATOM      2  CA  UNL     1       8.560  -2.690  23.038  0.00  0.00    +0.191 C 
ATOM      3  C   UNL     1       9.549  -1.602  22.536  0.00  0.00    +0.244 C 
ATOM      4  O   UNL     1      10.707  -1.573  22.197  0.00  0.00    -0.273 OA
ATOM      5  N   UNL     1       8.734  -0.625  23.011  0.00  0.00    -0.249 N 
ATOM      6  CA  UNL     1       8.857   0.687  23.328  0.00  0.00    +0.125 C 
ATOM      7  C   UNL     1       8.000   1.264  24.220  0.00  0.00    +0.006 C 
ATOM      8  C   UNL     1       6.763   0.618  24.785  0.00  0.00    +0.107 C 
ATOM      9  S   UNL     1       6.285  -1.030  24.198  0.00  0.00    -0.131 S 
ENDROOT
BRANCH   2  10
ATOM     10  N   UNL     1       9.162  -3.524  24.139  0.00  0.00    -0.296 N 
ATOM     11  H   UNL     1      10.136  -3.333  24.370  0.00  0.00    +0.150 HD
ATOM     12  C   UNL     1       8.655  -4.372  25.133  0.00  0.00    +0.270 C 
ATOM     13  O   UNL     1       9.429  -4.751  26.009  0.00  0.00    -0.268 OA
BRANCH  12  14
ATOM     14  C   UNL     1       7.273  -4.995  25.080  0.00  0.00    +0.206 C 
ATOM     15  N   UNL     1       6.695  -5.523  24.043  0.00  0.00    -0.076 NA
BRANCH  14  16
ATOM     16  C   UNL     1       6.543  -5.245  26.317  0.00  0.00    +0.161 A 
ATOM     17  O   UNL     1       5.969  -6.457  26.591  0.00  0.00    -0.461 OA
ATOM     18  C   UNL     1       5.070  -6.257  27.599  0.00  0.00    +0.196 A 
ATOM     19  C   UNL     1       5.095  -4.952  28.028  0.00  0.00    +0.042 A 
ATOM     20  C   UNL     1       6.082  -4.316  27.245  0.00  0.00    +0.052 A 
ENDBRANCH  14  16
BRANCH  15  21
ATOM     21  O   UNL     1       7.290  -5.709  22.801  0.00  0.00    -0.396 OA
ATOM     22  C   UNL     1       6.517  -5.712  21.623  0.00  0.00    +0.313 C 
ENDBRANCH  15  21
ENDBRANCH  12  14
ENDBRANCH   2  10
BRANCH   6  23
ATOM     23  C   UNL     1       9.989   1.502  22.789  0.00  0.00    +0.351 C 
ATOM     24  OXT UNL     1      10.996   1.705  23.445  0.00  0.00    -0.244 OA
BRANCH  23  25
ATOM     25  O   UNL     1       9.839   2.037  21.570  0.00  0.00    -0.476 OA
ATOM     26  H   UNL     1      10.086   2.977  21.432  0.00  0.00    +0.295 HD
ENDBRANCH  23  25
ENDBRANCH   6  23
BRANCH   7  27
ATOM     27  C   UNL     1       8.257   2.632  24.858  0.00  0.00    +0.268 C 
BRANCH  27  28
ATOM     28  O   UNL     1       7.466   3.664  24.231  0.00  0.00    -0.446 OA
BRANCH  28  29
ATOM     29  C   UNL     1       8.113   4.531  23.424  0.00  0.00    +0.398 C 
ATOM     30  O   UNL     1       8.870   5.420  23.774  0.00  0.00    -0.227 OA
ATOM     31  N   UNL     1       7.774   4.308  22.133  0.00  0.00    -0.295 N 
ATOM     32  H   UNL     1       8.138   4.926  21.425  0.00  0.00    +0.148 HD
ATOM     33  H   UNL     1       7.027   3.664  21.919  0.00  0.00    +0.148 HD
ENDBRANCH  28  29
ENDBRANCH  27  28
ENDBRANCH   7  27
TORSDOF 9
ENDMDL
MODEL 4
REMARK VINA RESULT:      -6.1      2.219      3.810
REMARK  Name = 
REMARK  10 active torsions:
REMARK  status: ('A' for Active; 'I' for Inactive)
REMARK    1  A    between atoms: C_5  and  C_6
REMARK    2  A    between atoms: C_6  and  O_7
REMARK    3  A    between atoms: O_7  and  C_8
REMARK    4  A    between atoms: CA_11  and  C_29
REMARK    5  A    between atoms: CA_15  and  N_17
REMARK    6  A    between atoms: C_18  and  C_20
REMARK    7  A    between atoms: C_20  and  C_24
REMARK    8  A    between atoms: N_21  and  O_22
REMARK    9  A    between atoms: O_22  and  C_23
REMARK   10  A    between atoms: C_29  and  O_30
REMARK                            x       y       z     vdW  Elec       q    Type
REMARK                         _______ _______ _______ _____ _____    ______ ____
ROOT
ATOM      1  C   UNL     1       9.273  -1.243  25.817  0.00  0.00    +0.169 C 
ATOM      2  CA  UNL     1       9.550  -0.508  24.431  0.00  0.00    +0.191 C 
ATOM      3  C   UNL     1       9.900  -1.958  23.995  0.00  0.00    +0.244 C 
ATOM      4  O   UNL     1      10.287  -2.488  22.982  0.00  0.00    -0.273 OA
ATOM      5  N   UNL     1       9.218  -2.455  25.057  0.00  0.00    -0.249 N 
ATOM      6  CA  UNL     1       8.680  -3.650  25.406  0.00  0.00    +0.125 C 
ATOM      7  C   UNL     1       7.657  -3.709  26.307  0.00  0.00    +0.006 C 
ATOM      8  C   UNL     1       7.153  -2.555  27.132  0.00  0.00    +0.107 C 
ATOM      9  S   UNL     1       7.999  -0.954  27.014  0.00  0.00    -0.131 S 
ENDROOT
BRANCH   2  10
ATOM     10  N   UNL     1       8.647   0.170  23.435  0.00  0.00    -0.296 N 
ATOM     11  H   UNL     1       9.090   0.836  22.802  0.00  0.00    +0.150 HD
ATOM     12  C   UNL     1       7.343  -0.045  22.967  0.00  0.00    +0.270 C 
ATOM     13  O   UNL     1       6.975   0.597  21.987  0.00  0.00    -0.268 OA
BRANCH  12  14
ATOM     14  C   UNL     1       6.311  -0.873  23.710  0.00  0.00    +0.206 C 
ATOM     15  N   UNL     1       5.445  -0.443  24.577  0.00  0.00    -0.076 NA
BRANCH  14  16
ATOM     16  C   UNL     1       6.073  -2.256  23.316  0.00  0.00    +0.161 A 
ATOM     17  O   UNL     1       6.665  -2.812  22.214  0.00  0.00    -0.461 OA
ATOM     18  C   UNL     1       5.967  -3.944  21.909  0.00  0.00    +0.196 A 
ATOM     19  C   UNL     1       4.971  -4.168  22.829  0.00  0.00    +0.042 A 
ATOM     20  C   UNL     1       5.076  -3.117  23.765  0.00  0.00    +0.052 A 
ENDBRANCH  14  16
BRANCH  15  21
ATOM     21  O   UNL     1       5.233   0.891  24.907  0.00  0.00    -0.396 OA
ATOM     22  C   UNL     1       4.717   1.249  26.168  0.00  0.00    +0.313 C 
ENDBRANCH  15  21
ENDBRANCH  12  14
ENDBRANCH   2  10
BRANCH   6  23
ATOM     23  C   UNL     1       9.122  -4.913  24.738  0.00  0.00    +0.351 C 
ATOM     24  OXT UNL     1       8.559  -5.339  23.745  0.00  0.00    -0.244 OA
BRANCH  23  25
ATOM     25  O   UNL     1      10.138  -5.583  25.298  0.00  0.00    -0.476 OA
ATOM     26  H   UNL     1      10.840  -5.077  25.761  0.00  0.00    +0.295 HD
ENDBRANCH  23  25
ENDBRANCH   6  23
BRANCH   7  27
ATOM     27  C   UNL     1       6.800  -4.961  26.516  0.00  0.00    +0.268 C 
BRANCH  27  28
ATOM     28  O   UNL     1       7.304  -5.772  27.598  0.00  0.00    -0.446 OA
BRANCH  28  29
ATOM     29  C   UNL     1       6.481  -5.980  28.647  0.00  0.00    +0.398 C 
ATOM     30  O   UNL     1       5.850  -5.132  29.252  0.00  0.00    -0.227 OA
ATOM     31  N   UNL     1       6.473  -7.292  28.979  0.00  0.00    -0.295 N 
ATOM     32  H   UNL     1       5.946  -7.582  29.789  0.00  0.00    +0.148 HD
ATOM     33  H   UNL     1       7.133  -7.920  28.543  0.00  0.00    +0.148 HD
ENDBRANCH  28  29
ENDBRANCH  27  28
ENDBRANCH   7  27
TORSDOF 9
ENDMDL
MODEL 5
REMARK VINA RESULT:      -6.1      2.294      4.633
REMARK  Name = 
REMARK  10 active torsions:
REMARK  status: ('A' for Active; 'I' for Inactive)
REMARK    1  A    between atoms: C_5  and  C_6
REMARK    2  A    between atoms: C_6  and  O_7
REMARK    3  A    between atoms: O_7  and  C_8
REMARK    4  A    between atoms: CA_11  and  C_29
REMARK    5  A    between atoms: CA_15  and  N_17
REMARK    6  A    between atoms: C_18  and  C_20
REMARK    7  A    between atoms: C_20  and  C_24
REMARK    8  A    between atoms: N_21  and  O_22
REMARK    9  A    between atoms: O_22  and  C_23
REMARK   10  A    between atoms: C_29  and  O_30
REMARK                            x       y       z     vdW  Elec       q    Type
REMARK                         _______ _______ _______ _____ _____    ______ ____
ROOT
ATOM      1  C   UNL     1       7.173  -2.820  26.785  0.00  0.00    +0.169 C 
ATOM      2  CA  UNL     1       8.652  -3.080  26.254  0.00  0.00    +0.191 C 
ATOM      3  C   UNL     1       8.139  -4.547  26.230  0.00  0.00    +0.244 C 
ATOM      4  O   UNL     1       8.606  -5.623  25.947  0.00  0.00    -0.273 OA
ATOM      5  N   UNL     1       6.854  -4.111  26.255  0.00  0.00    -0.249 N 
ATOM      6  CA  UNL     1       5.636  -4.630  25.962  0.00  0.00    +0.125 C 
ATOM      7  C   UNL     1       4.598  -3.807  25.635  0.00  0.00    +0.006 C 
ATOM      8  C   UNL     1       4.606  -2.306  25.741  0.00  0.00    +0.107 C 
ATOM      9  S   UNL     1       6.065  -1.482  26.436  0.00  0.00    -0.131 S 
ENDROOT
BRANCH   2  10
ATOM     10  N   UNL     1       9.357  -2.716  24.974  0.00  0.00    -0.296 N 
ATOM     11  H   UNL     1      10.369  -2.601  25.030  0.00  0.00    +0.150 HD
ATOM     12  C   UNL     1       9.014  -2.717  23.614  0.00  0.00    +0.270 C 
ATOM     13  O   UNL     1       9.914  -2.539  22.798  0.00  0.00    -0.268 OA
BRANCH  12  14
ATOM     14  C   UNL     1       7.583  -2.734  23.110  0.00  0.00    +0.206 C 
ATOM     15  N   UNL     1       6.802  -1.708  22.948  0.00  0.00    -0.076 NA
BRANCH  14  16
ATOM     16  C   UNL     1       7.029  -3.957  22.543  0.00  0.00    +0.161 A 
ATOM     17  O   UNL     1       7.568  -5.189  22.801  0.00  0.00    -0.461 OA
ATOM     18  C   UNL     1       7.086  -6.045  21.855  0.00  0.00    +0.196 A 
ATOM     19  C   UNL     1       6.196  -5.408  21.024  0.00  0.00    +0.042 A 
ATOM     20  C   UNL     1       6.115  -4.083  21.501  0.00  0.00    +0.052 A 
ENDBRANCH  14  16
BRANCH  15  21
ATOM     21  O   UNL     1       7.178  -0.380  23.109  0.00  0.00    -0.396 OA
ATOM     22  C   UNL     1       7.958   0.274  22.134  0.00  0.00    +0.313 C 
ENDBRANCH  15  21
ENDBRANCH  12  14
ENDBRANCH   2  10
BRANCH   6  23
ATOM     23  C   UNL     1       5.431  -6.109  25.889  0.00  0.00    +0.351 C 
ATOM     24  OXT UNL     1       5.303  -6.785  26.895  0.00  0.00    -0.244 OA
BRANCH  23  25
ATOM     25  O   UNL     1       5.433  -6.673  24.674  0.00  0.00    -0.476 OA
ATOM     26  H   UNL     1       4.822  -7.422  24.500  0.00  0.00    +0.295 HD
ENDBRANCH  23  25
ENDBRANCH   6  23
BRANCH   7  27
ATOM     27  C   UNL     1       3.301  -4.315  24.997  0.00  0.00    +0.268 C 
BRANCH  27  28
ATOM     28  O   UNL     1       3.494  -4.657  23.608  0.00  0.00    -0.446 OA
BRANCH  28  29
ATOM     29  C   UNL     1       2.612  -5.518  23.059  0.00  0.00    +0.398 C 
ATOM     30  O   UNL     1       1.456  -5.278  22.758  0.00  0.00    -0.227 OA
ATOM     31  N   UNL     1       3.180  -6.738  22.915  0.00  0.00    -0.295 N 
ATOM     32  H   UNL     1       2.612  -7.498  22.572  0.00  0.00    +0.148 HD
ATOM     33  H   UNL     1       4.085  -6.917  23.324  0.00  0.00    +0.148 HD
ENDBRANCH  28  29
ENDBRANCH  27  28
ENDBRANCH   7  27
TORSDOF 9
ENDMDL
MODEL 6
REMARK VINA RESULT:      -6.1      3.370      5.354
REMARK  Name = 
REMARK  10 active torsions:
REMARK  status: ('A' for Active; 'I' for Inactive)
REMARK    1  A    between atoms: C_5  and  C_6
REMARK    2  A    between atoms: C_6  and  O_7
REMARK    3  A    between atoms: O_7  and  C_8
REMARK    4  A    between atoms: CA_11  and  C_29
REMARK    5  A    between atoms: CA_15  and  N_17
REMARK    6  A    between atoms: C_18  and  C_20
REMARK    7  A    between atoms: C_20  and  C_24
REMARK    8  A    between atoms: N_21  and  O_22
REMARK    9  A    between atoms: O_22  and  C_23
REMARK   10  A    between atoms: C_29  and  O_30
REMARK                            x       y       z     vdW  Elec       q    Type
REMARK                         _______ _______ _______ _____ _____    ______ ____
ROOT
ATOM      1  C   UNL     1       9.423  -0.250  25.019  0.00  0.00    +0.169 C 
ATOM      2  CA  UNL     1       9.679   0.529  23.654  0.00  0.00    +0.191 C 
ATOM      3  C   UNL     1       9.664  -0.919  23.090  0.00  0.00    +0.244 C 
ATOM      4  O   UNL     1       9.807  -1.428  22.005  0.00  0.00    -0.273 OA
ATOM      5  N   UNL     1       9.025  -1.358  24.204  0.00  0.00    -0.249 N 
ATOM      6  CA  UNL     1       8.295  -2.446  24.551  0.00  0.00    +0.125 C 
ATOM      7  C   UNL     1       7.398  -2.376  25.577  0.00  0.00    +0.006 C 
ATOM      8  C   UNL     1       7.249  -1.218  26.529  0.00  0.00    +0.107 C 
ATOM      9  S   UNL     1       8.390   0.184  26.391  0.00  0.00    -0.131 S 
ENDROOT
BRANCH   2  10
ATOM     10  N   UNL     1       8.825   1.457  22.829  0.00  0.00    -0.296 N 
ATOM     11  H   UNL     1       8.311   1.033  22.058  0.00  0.00    +0.150 HD
ATOM     12  C   UNL     1       8.344   2.764  22.983  0.00  0.00    +0.270 C 
ATOM     13  O   UNL     1       7.494   3.157  22.188  0.00  0.00    -0.268 OA
BRANCH  12  14
ATOM     14  C   UNL     1       8.947   3.773  23.943  0.00  0.00    +0.206 C 
ATOM     15  N   UNL     1       8.560   4.020  25.158  0.00  0.00    -0.076 NA
BRANCH  14  16
ATOM     16  C   UNL     1      10.210   4.421  23.613  0.00  0.00    +0.161 A 
ATOM     17  O   UNL     1      11.315   3.709  23.228  0.00  0.00    -0.461 OA
ATOM     18  C   UNL     1      12.393   4.534  23.365  0.00  0.00    +0.196 A 
ATOM     19  C   UNL     1      12.003   5.788  23.771  0.00  0.00    +0.042 A 
ATOM     20  C   UNL     1      10.597   5.732  23.875  0.00  0.00    +0.052 A 
ENDBRANCH  14  16
BRANCH  15  21
ATOM     21  O   UNL     1       7.575   3.319  25.845  0.00  0.00    -0.396 OA
ATOM     22  C   UNL     1       7.095   3.779  27.087  0.00  0.00    +0.313 C 
ENDBRANCH  15  21
ENDBRANCH  12  14
ENDBRANCH   2  10
BRANCH   6  23
ATOM     23  C   UNL     1       8.380  -3.711  23.758  0.00  0.00    +0.351 C 
ATOM     24  OXT UNL     1       9.043  -4.659  24.139  0.00  0.00    -0.244 OA
BRANCH  23  25
ATOM     25  O   UNL     1       7.729  -3.749  22.587  0.00  0.00    -0.476 OA
ATOM     26  H   UNL     1       7.492  -4.623  22.207  0.00  0.00    +0.295 HD
ENDBRANCH  23  25
ENDBRANCH   6  23
BRANCH   7  27
ATOM     27  C   UNL     1       6.329  -3.444  25.826  0.00  0.00    +0.268 C 
BRANCH  27  28
ATOM     28  O   UNL     1       6.606  -4.198  27.026  0.00  0.00    -0.446 OA
BRANCH  28  29
ATOM     29  C   UNL     1       6.895  -5.508  26.876  0.00  0.00    +0.398 C 
ATOM     30  O   UNL     1       6.093  -6.419  26.767  0.00  0.00    -0.227 OA
ATOM     31  N   UNL     1       8.234  -5.696  26.904  0.00  0.00    -0.295 N 
ATOM     32  H   UNL     1       8.591  -6.638  26.865  0.00  0.00    +0.148 HD
ATOM     33  H   UNL     1       8.840  -4.927  27.153  0.00  0.00    +0.148 HD
ENDBRANCH  28  29
ENDBRANCH  27  28
ENDBRANCH   7  27
TORSDOF 9
ENDMDL
MODEL 7
REMARK VINA RESULT:      -6.1      2.166      6.116
REMARK  Name = 
REMARK  10 active torsions:
REMARK  status: ('A' for Active; 'I' for Inactive)
REMARK    1  A    between atoms: C_5  and  C_6
REMARK    2  A    between atoms: C_6  and  O_7
REMARK    3  A    between atoms: O_7  and  C_8
REMARK    4  A    between atoms: CA_11  and  C_29
REMARK    5  A    between atoms: CA_15  and  N_17
REMARK    6  A    between atoms: C_18  and  C_20
REMARK    7  A    between atoms: C_20  and  C_24
REMARK    8  A    between atoms: N_21  and  O_22
REMARK    9  A    between atoms: O_22  and  C_23
REMARK   10  A    between atoms: C_29  and  O_30
REMARK                            x       y       z     vdW  Elec       q    Type
REMARK                         _______ _______ _______ _____ _____    ______ ____
ROOT
ATOM      1  C   UNL     1       7.297  -4.754  23.358  0.00  0.00    +0.169 C 
ATOM      2  CA  UNL     1       7.739  -5.565  24.655  0.00  0.00    +0.191 C 
ATOM      3  C   UNL     1       9.024  -4.711  24.471  0.00  0.00    +0.244 C 
ATOM      4  O   UNL     1      10.086  -4.611  25.035  0.00  0.00    -0.273 OA
ATOM      5  N   UNL     1       8.344  -3.836  23.688  0.00  0.00    -0.249 N 
ATOM      6  CA  UNL     1       8.519  -2.560  23.262  0.00  0.00    +0.125 C 
ATOM      7  C   UNL     1       7.445  -1.807  22.884  0.00  0.00    +0.006 C 
ATOM      8  C   UNL     1       6.039  -2.317  22.710  0.00  0.00    +0.107 C 
ATOM      9  S   UNL     1       5.713  -4.088  22.927  0.00  0.00    -0.131 S 
ENDROOT
BRANCH   2  10
ATOM     10  N   UNL     1       7.261  -5.551  26.083  0.00  0.00    -0.296 N 
ATOM     11  H   UNL     1       7.502  -6.363  26.651  0.00  0.00    +0.150 HD
ATOM     12  C   UNL     1       6.748  -4.575  26.950  0.00  0.00    +0.270 C 
ATOM     13  O   UNL     1       6.636  -4.868  28.137  0.00  0.00    -0.268 OA
BRANCH  12  14
ATOM     14  C   UNL     1       6.149  -3.264  26.476  0.00  0.00    +0.206 C 
ATOM     15  N   UNL     1       4.921  -3.056  26.107  0.00  0.00    -0.076 NA
BRANCH  14  16
ATOM     16  C   UNL     1       6.911  -2.028  26.614  0.00  0.00    +0.161 A 
ATOM     17  O   UNL     1       8.278  -2.020  26.678  0.00  0.00    -0.461 OA
ATOM     18  C   UNL     1       8.650  -0.805  27.178  0.00  0.00    +0.196 A 
ATOM     19  C   UNL     1       7.553  -0.002  27.381  0.00  0.00    +0.042 A 
ATOM     20  C   UNL     1       6.442  -0.766  26.965  0.00  0.00    +0.052 A 
ENDBRANCH  14  16
BRANCH  15  21
ATOM     21  O   UNL     1       3.892  -3.988  26.180  0.00  0.00    -0.396 OA
ATOM     22  C   UNL     1       2.681  -3.783  25.489  0.00  0.00    +0.313 C 
ENDBRANCH  15  21
ENDBRANCH  12  14
ENDBRANCH   2  10
BRANCH   6  23
ATOM     23  C   UNL     1       9.869  -1.920  23.294  0.00  0.00    +0.351 C 
ATOM     24  OXT UNL     1      10.587  -1.896  22.309  0.00  0.00    -0.244 OA
BRANCH  23  25
ATOM     25  O   UNL     1      10.280  -1.405  24.460  0.00  0.00    -0.476 OA
ATOM     26  H   UNL     1      10.975  -0.711  24.452  0.00  0.00    +0.295 HD
ENDBRANCH  23  25
ENDBRANCH   6  23
BRANCH   7  27
ATOM     27  C   UNL     1       7.516  -0.289  22.694  0.00  0.00    +0.268 C 
BRANCH  27  28
ATOM     28  O   UNL     1       7.812   0.386  23.935  0.00  0.00    -0.446 OA
BRANCH  28  29
ATOM     29  C   UNL     1       8.469   1.561  23.856  0.00  0.00    +0.398 C 
ATOM     30  O   UNL     1       8.259   2.456  23.056  0.00  0.00    -0.227 OA
ATOM     31  N   UNL     1       9.455   1.607  24.782  0.00  0.00    -0.295 N 
ATOM     32  H   UNL     1      10.069   2.407  24.794  0.00  0.00    +0.148 HD
ATOM     33  H   UNL     1       9.681   0.777  25.309  0.00  0.00    +0.148 HD
ENDBRANCH  28  29
ENDBRANCH  27  28
ENDBRANCH   7  27
TORSDOF 9
ENDMDL
MODEL 8
REMARK VINA RESULT:      -6.0      2.374      7.153
REMARK  Name = 
REMARK  10 active torsions:
REMARK  status: ('A' for Active; 'I' for Inactive)
REMARK    1  A    between atoms: C_5  and  C_6
REMARK    2  A    between atoms: C_6  and  O_7
REMARK    3  A    between atoms: O_7  and  C_8
REMARK    4  A    between atoms: CA_11  and  C_29
REMARK    5  A    between atoms: CA_15  and  N_17
REMARK    6  A    between atoms: C_18  and  C_20
REMARK    7  A    between atoms: C_20  and  C_24
REMARK    8  A    between atoms: N_21  and  O_22
REMARK    9  A    between atoms: O_22  and  C_23
REMARK   10  A    between atoms: C_29  and  O_30
REMARK                            x       y       z     vdW  Elec       q    Type
REMARK                         _______ _______ _______ _____ _____    ______ ____
ROOT
ATOM      1  C   UNL     1       7.052  -1.555  24.900  0.00  0.00    +0.169 C 
ATOM      2  CA  UNL     1       6.840  -3.132  24.814  0.00  0.00    +0.191 C 
ATOM      3  C   UNL     1       7.516  -2.917  23.432  0.00  0.00    +0.244 C 
ATOM      4  O   UNL     1       7.820  -3.618  22.497  0.00  0.00    -0.273 OA
ATOM      5  N   UNL     1       8.004  -1.718  23.843  0.00  0.00    -0.249 N 
ATOM      6  CA  UNL     1       8.986  -0.871  23.449  0.00  0.00    +0.125 C 
ATOM      7  C   UNL     1       9.537   0.006  24.337  0.00  0.00    +0.006 C 
ATOM      8  C   UNL     1       9.029   0.274  25.729  0.00  0.00    +0.107 C 
ATOM      9  S   UNL     1       7.512  -0.551  26.285  0.00  0.00    -0.131 S 
ENDROOT
BRANCH   2  10
ATOM     10  N   UNL     1       7.453  -4.288  25.560  0.00  0.00    -0.296 N 
ATOM     11  H   UNL     1       8.455  -4.232  25.740  0.00  0.00    +0.150 HD
ATOM     12  C   UNL     1       6.955  -5.363  26.309  0.00  0.00    +0.270 C 
ATOM     13  O   UNL     1       7.759  -6.029  26.956  0.00  0.00    -0.268 OA
BRANCH  12  14
ATOM     14  C   UNL     1       5.525  -5.862  26.214  0.00  0.00    +0.206 C 
ATOM     15  N   UNL     1       4.697  -6.045  27.198  0.00  0.00    -0.076 NA
BRANCH  14  16
ATOM     16  C   UNL     1       4.882  -5.973  24.910  0.00  0.00    +0.161 A 
ATOM     17  O   UNL     1       5.602  -6.072  23.750  0.00  0.00    -0.461 OA
ATOM     18  C   UNL     1       4.752  -5.779  22.723  0.00  0.00    +0.196 A 
ATOM     19  C   UNL     1       3.479  -5.552  23.189  0.00  0.00    +0.042 A 
ATOM     20  C   UNL     1       3.550  -5.733  24.587  0.00  0.00    +0.052 A 
ENDBRANCH  14  16
BRANCH  15  21
ATOM     21  O   UNL     1       4.940  -5.714  28.525  0.00  0.00    -0.396 OA
ATOM     22  C   UNL     1       4.224  -4.676  29.154  0.00  0.00    +0.313 C 
ENDBRANCH  15  21
ENDBRANCH  12  14
ENDBRANCH   2  10
BRANCH   6  23
ATOM     23  C   UNL     1       9.555  -0.948  22.069  0.00  0.00    +0.351 C 
ATOM     24  OXT UNL     1       9.187  -0.195  21.184  0.00  0.00    -0.244 OA
BRANCH  23  25
ATOM     25  O   UNL     1      10.461  -1.905  21.828  0.00  0.00    -0.476 OA
ATOM     26  H   UNL     1      10.171  -2.843  21.832  0.00  0.00    +0.295 HD
ENDBRANCH  23  25
ENDBRANCH   6  23
BRANCH   7  27
ATOM     27  C   UNL     1      10.839   0.764  24.062  0.00  0.00    +0.268 C 
BRANCH  27  28
ATOM     28  O   UNL     1      10.624   2.191  24.036  0.00  0.00    -0.446 OA
BRANCH  28  29
ATOM     29  C   UNL     1       9.815   2.674  23.070  0.00  0.00    +0.398 C 
ATOM     30  O   UNL     1       8.724   3.193  23.230  0.00  0.00    -0.227 OA
ATOM     31  N   UNL     1      10.368   2.467  21.852  0.00  0.00    -0.295 N 
ATOM     32  H   UNL     1       9.840   2.723  21.032  0.00  0.00    +0.148 HD
ATOM     33  H   UNL     1      11.196   1.894  21.773  0.00  0.00    +0.148 HD
ENDBRANCH  28  29
ENDBRANCH  27  28
ENDBRANCH   7  27
TORSDOF 9
ENDMDL
MODEL 9
REMARK VINA RESULT:      -6.0      4.043      6.848
REMARK  Name = 
REMARK  10 active torsions:
REMARK  status: ('A' for Active; 'I' for Inactive)
REMARK    1  A    between atoms: C_5  and  C_6
REMARK    2  A    between atoms: C_6  and  O_7
REMARK    3  A    between atoms: O_7  and  C_8
REMARK    4  A    between atoms: CA_11  and  C_29
REMARK    5  A    between atoms: CA_15  and  N_17
REMARK    6  A    between atoms: C_18  and  C_20
REMARK    7  A    between atoms: C_20  and  C_24
REMARK    8  A    between atoms: N_21  and  O_22
REMARK    9  A    between atoms: O_22  and  C_23
REMARK   10  A    between atoms: C_29  and  O_30
REMARK                            x       y       z     vdW  Elec       q    Type
REMARK                         _______ _______ _______ _____ _____    ______ ____
ROOT
ATOM      1  C   UNL     1       7.876   0.450  25.141  0.00  0.00    +0.169 C 
ATOM      2  CA  UNL     1       8.410   1.905  24.774  0.00  0.00    +0.191 C 
ATOM      3  C   UNL     1       9.457   1.072  23.983  0.00  0.00    +0.244 C 
ATOM      4  O   UNL     1      10.419   1.316  23.297  0.00  0.00    -0.273 OA
ATOM      5  N   UNL     1       8.641  -0.012  24.022  0.00  0.00    -0.249 N 
ATOM      6  CA  UNL     1       8.528  -1.180  23.343  0.00  0.00    +0.125 C 
ATOM      7  C   UNL     1       7.332  -1.836  23.294  0.00  0.00    +0.006 C 
ATOM      8  C   UNL     1       6.109  -1.483  24.099  0.00  0.00    +0.107 C 
ATOM      9  S   UNL     1       6.212  -0.134  25.307  0.00  0.00    -0.131 S 
ENDROOT
BRANCH   2  10
ATOM     10  N   UNL     1       7.843   3.022  23.938  0.00  0.00    -0.296 N 
ATOM     11  H   UNL     1       7.121   2.764  23.266  0.00  0.00    +0.150 HD
ATOM     12  C   UNL     1       7.875   4.423  23.996  0.00  0.00    +0.270 C 
ATOM     13  O   UNL     1       7.127   5.043  23.246  0.00  0.00    -0.268 OA
BRANCH  12  14
ATOM     14  C   UNL     1       8.909   5.206  24.785  0.00  0.00    +0.206 C 
ATOM     15  N   UNL     1       8.833   5.557  26.034  0.00  0.00    -0.076 NA
BRANCH  14  16
ATOM     16  C   UNL     1      10.227   5.446  24.213  0.00  0.00    +0.161 A 
ATOM     17  O   UNL     1      10.860   4.518  23.429  0.00  0.00    -0.461 OA
ATOM     18  C   UNL     1      12.178   4.868  23.377  0.00  0.00    +0.196 A 
ATOM     19  C   UNL     1      12.403   6.040  24.060  0.00  0.00    +0.042 A 
ATOM     20  C   UNL     1      11.140   6.441  24.547  0.00  0.00    +0.052 A 
ENDBRANCH  14  16
BRANCH  15  21
ATOM     21  O   UNL     1       7.824   5.184  26.914  0.00  0.00    -0.396 OA
ATOM     22  C   UNL     1       6.910   6.134  27.411  0.00  0.00    +0.313 C 
ENDBRANCH  15  21
ENDBRANCH  12  14
ENDBRANCH   2  10
BRANCH   6  23
ATOM     23  C   UNL     1       9.675  -1.719  22.550  0.00  0.00    +0.351 C 
ATOM     24  OXT UNL     1      10.410  -2.581  22.999  0.00  0.00    -0.244 OA
BRANCH  23  25
ATOM     25  O   UNL     1       9.890  -1.190  21.338  0.00  0.00    -0.476 OA
ATOM     26  H   UNL     1      10.569  -0.488  21.242  0.00  0.00    +0.295 HD
ENDBRANCH  23  25
ENDBRANCH   6  23
BRANCH   7  27
ATOM     27  C   UNL     1       7.043  -2.973  22.310  0.00  0.00    +0.268 C 
BRANCH  27  28
ATOM     28  O   UNL     1       6.669  -4.185  22.998  0.00  0.00    -0.446 OA
BRANCH  28  29
ATOM     29  C   UNL     1       7.578  -5.182  23.027  0.00  0.00    +0.398 C 
ATOM     30  O   UNL     1       8.550  -5.255  23.758  0.00  0.00    -0.227 OA
ATOM     31  N   UNL     1       7.286  -6.106  22.082  0.00  0.00    -0.295 N 
ATOM     32  H   UNL     1       7.921  -6.878  21.950  0.00  0.00    +0.148 HD
ATOM     33  H   UNL     1       6.562  -5.915  21.406  0.00  0.00    +0.148 HD
ENDBRANCH  28  29
ENDBRANCH  27  28
ENDBRANCH   7  27
TORSDOF 9
ENDMDL
