MODEL 1
REMARK VINA RESULT:      -6.2      0.000      0.000
REMARK  Name = 
REMARK  7 active torsions:
REMARK  status: ('A' for Active; 'I' for Inactive)
REMARK    1  A    between atoms: C_1  and  C_2
REMARK    2  A    between atoms: C_2  and  C_3
REMARK    3  A    between atoms: C_11  and  C_12
REMARK    4  A    between atoms: C_11  and  C_14
REMARK    5  A    between atoms: C_12  and  C_13
REMARK    6  A    between atoms: C_14  and  C_15
REMARK    7  A    between atoms: C_15  and  O_16
REMARK                            x       y       z     vdW  Elec       q    Type
REMARK                         _______ _______ _______ _____ _____    ______ ____
ROOT
ATOM      1  C   UNL     1      10.351   5.566  23.882  0.00  0.00    -0.024 A 
ATOM      2  C   UNL     1       9.598   6.748  23.759  0.00  0.00    +0.005 A 
ATOM      3  C   UNL     1       8.242   6.723  23.433  0.00  0.00    +0.001 A 
ATOM      4  C   UNL     1       7.578   5.510  23.229  0.00  0.00    +0.010 A 
ATOM      5  C   UNL     1       8.293   4.305  23.357  0.00  0.00    +0.004 A 
ATOM      6  C   UNL     1       7.943   2.929  23.269  0.00  0.00    -0.014 A 
ATOM      7  C   UNL     1       6.631   2.273  23.046  0.00  0.00    +0.065 C 
ATOM      8  C   UNL     1       6.803   0.749  22.927  0.00  0.00    +0.166 C 
ATOM      9  O   UNL     1       7.817   0.193  23.802  0.00  0.00    -0.366 OA
ATOM     10  C   UNL     1       9.171   0.692  23.588  0.00  0.00    +0.119 C 
ATOM     11  C   UNL     1       9.076   2.188  23.524  0.00  0.00    +0.053 A 
ATOM     12  N   UNL     1      10.106   3.061  23.742  0.00  0.00    -0.355 N 
ATOM     13  H   UNL     1      11.052   2.810  23.989  0.00  0.00    +0.166 HD
ATOM     14  C   UNL     1       9.653   4.362  23.674  0.00  0.00    +0.050 A 
ENDROOT
BRANCH   1  16
ATOM     15  C   UNL     1      12.716   5.455  23.031  0.00  0.00    +0.009 C 
ATOM     16  C   UNL     1      11.814   5.627  24.246  0.00  0.00    +0.034 C 
ENDBRANCH   1  16
BRANCH  10  17
ATOM     17  C   UNL     1      10.053   0.226  24.777  0.00  0.00    +0.038 C 
ATOM     18  C   UNL     1       9.303  -0.491  25.896  0.00  0.00    +0.007 C 
ENDBRANCH  10  17
BRANCH  10  19
ATOM     19  C   UNL     1       9.720   0.140  22.259  0.00  0.00    +0.161 C 
BRANCH  19  20
ATOM     20  C   UNL     1       9.824  -1.363  22.192  0.00  0.00    +0.308 C 
ATOM     21  O   UNL     1      10.892  -1.952  22.308  0.00  0.00    -0.251 OA
BRANCH  20  22
ATOM     22  O   UNL     1       8.680  -2.022  21.910  0.00  0.00    -0.481 OA
ATOM     23  H   UNL     1       7.868  -1.476  22.017  0.00  0.00    +0.295 HD
ENDBRANCH  20  22
ENDBRANCH  19  20
ENDBRANCH  10  19
TORSDOF 5
ENDMDL
MODEL 2
REMARK VINA RESULT:      -6.1      3.703      6.007
REMARK  Name = 
REMARK  7 active torsions:
REMARK  status: ('A' for Active; 'I' for Inactive)
REMARK    1  A    between atoms: C_1  and  C_2
REMARK    2  A    between atoms: C_2  and  C_3
REMARK    3  A    between atoms: C_11  and  C_12
REMARK    4  A    between atoms: C_11  and  C_14
REMARK    5  A    between atoms: C_12  and  C_13
REMARK    6  A    between atoms: C_14  and  C_15
REMARK    7  A    between atoms: C_15  and  O_16
REMARK                            x       y       z     vdW  Elec       q    Type
REMARK                         _______ _______ _______ _____ _____    ______ ____
ROOT
ATOM      1  C   UNL     1       9.172   0.567  22.640  0.00  0.00    -0.024 A 
ATOM      2  C   UNL     1      10.166   1.262  23.354  0.00  0.00    +0.005 A 
ATOM      3  C   UNL     1      10.641   0.805  24.582  0.00  0.00    +0.001 A 
ATOM      4  C   UNL     1      10.152  -0.378  25.144  0.00  0.00    +0.010 A 
ATOM      5  C   UNL     1       9.168  -1.111  24.453  0.00  0.00    +0.004 A 
ATOM      6  C   UNL     1       8.496  -2.341  24.693  0.00  0.00    -0.014 A 
ATOM      7  C   UNL     1       8.650  -3.335  25.784  0.00  0.00    +0.065 C 
ATOM      8  C   UNL     1       7.604  -4.455  25.644  0.00  0.00    +0.166 C 
ATOM      9  O   UNL     1       7.316  -4.835  24.275  0.00  0.00    -0.366 OA
ATOM     10  C   UNL     1       6.773  -3.775  23.432  0.00  0.00    +0.119 C 
ATOM     11  C   UNL     1       7.647  -2.572  23.633  0.00  0.00    +0.053 A 
ATOM     12  N   UNL     1       7.761  -1.518  22.769  0.00  0.00    -0.355 N 
ATOM     13  H   UNL     1       7.286  -1.425  21.883  0.00  0.00    +0.166 HD
ATOM     14  C   UNL     1       8.703  -0.622  23.230  0.00  0.00    +0.050 A 
ENDROOT
BRANCH   1  16
ATOM     15  C   UNL     1       7.685   2.219  21.462  0.00  0.00    +0.009 C 
ATOM     16  C   UNL     1       8.686   1.082  21.307  0.00  0.00    +0.034 C 
ENDBRANCH   1  16
BRANCH  10  17
ATOM     17  C   UNL     1       6.804  -4.263  21.959  0.00  0.00    +0.038 C 
ATOM     18  C   UNL     1       7.203  -5.725  21.771  0.00  0.00    +0.007 C 
ENDBRANCH  10  17
BRANCH  10  19
ATOM     19  C   UNL     1       5.330  -3.458  23.867  0.00  0.00    +0.161 C 
BRANCH  19  20
ATOM     20  C   UNL     1       4.376  -4.625  23.797  0.00  0.00    +0.308 C 
ATOM     21  O   UNL     1       3.520  -4.720  22.926  0.00  0.00    -0.251 OA
BRANCH  20  22
ATOM     22  O   UNL     1       4.465  -5.521  24.802  0.00  0.00    -0.481 OA
ATOM     23  H   UNL     1       4.384  -6.458  24.510  0.00  0.00    +0.295 HD
ENDBRANCH  20  22
ENDBRANCH  19  20
ENDBRANCH  10  19
TORSDOF 5
ENDMDL
MODEL 3
REMARK VINA RESULT:      -5.9      4.050      6.139
REMARK  Name = 
REMARK  7 active torsions:
REMARK  status: ('A' for Active; 'I' for Inactive)
REMARK    1  A    between atoms: C_1  and  C_2
REMARK    2  A    between atoms: C_2  and  C_3
REMARK    3  A    between atoms: C_11  and  C_12
REMARK    4  A    between atoms: C_11  and  C_14
REMARK    5  A    between atoms: C_12  and  C_13
REMARK    6  A    between atoms: C_14  and  C_15
REMARK    7  A    between atoms: C_15  and  O_16
REMARK                            x       y       z     vdW  Elec       q    Type
REMARK                         _______ _______ _______ _____ _____    ______ ____
ROOT
ATOM      1  C   UNL     1       9.133   0.301  23.866  0.00  0.00    -0.024 A 
ATOM      2  C   UNL     1       9.693   0.714  22.643  0.00  0.00    +0.005 A 
ATOM      3  C   UNL     1       9.685  -0.109  21.518  0.00  0.00    +0.001 A 
ATOM      4  C   UNL     1       9.100  -1.378  21.564  0.00  0.00    +0.010 A 
ATOM      5  C   UNL     1       8.514  -1.822  22.765  0.00  0.00    +0.004 A 
ATOM      6  C   UNL     1       7.811  -2.996  23.152  0.00  0.00    -0.014 A 
ATOM      7  C   UNL     1       7.401  -4.185  22.366  0.00  0.00    +0.065 C 
ATOM      8  C   UNL     1       6.751  -5.238  23.280  0.00  0.00    +0.166 C 
ATOM      9  O   UNL     1       5.935  -4.684  24.343  0.00  0.00    -0.366 OA
ATOM     10  C   UNL     1       6.638  -3.822  25.287  0.00  0.00    +0.119 C 
ATOM     11  C   UNL     1       7.442  -2.851  24.471  0.00  0.00    +0.053 A 
ATOM     12  N   UNL     1       7.913  -1.643  24.907  0.00  0.00    -0.355 N 
ATOM     13  H   UNL     1       7.765  -1.246  25.824  0.00  0.00    +0.166 HD
ATOM     14  C   UNL     1       8.549  -0.979  23.879  0.00  0.00    +0.050 A 
ENDROOT
BRANCH   1  16
ATOM     15  C   UNL     1       8.851   2.664  24.682  0.00  0.00    +0.009 C 
ATOM     16  C   UNL     1       9.149   1.220  25.063  0.00  0.00    +0.034 C 
ENDBRANCH   1  16
BRANCH  10  17
ATOM     17  C   UNL     1       5.581  -3.094  26.160  0.00  0.00    +0.038 C 
ATOM     18  C   UNL     1       4.182  -3.023  25.555  0.00  0.00    +0.007 C 
ENDBRANCH  10  17
BRANCH  10  19
ATOM     19  C   UNL     1       7.573  -4.673  26.166  0.00  0.00    +0.161 C 
BRANCH  19  20
ATOM     20  C   UNL     1       6.873  -5.688  27.037  0.00  0.00    +0.308 C 
ATOM     21  O   UNL     1       7.188  -5.877  28.205  0.00  0.00    -0.251 OA
BRANCH  20  22
ATOM     22  O   UNL     1       5.931  -6.438  26.427  0.00  0.00    -0.481 OA
ATOM     23  H   UNL     1       5.569  -6.035  25.605  0.00  0.00    +0.295 HD
ENDBRANCH  20  22
ENDBRANCH  19  20
ENDBRANCH  10  19
TORSDOF 5
ENDMDL
MODEL 4
REMARK VINA RESULT:      -5.8      3.609      7.481
REMARK  Name = 
REMARK  7 active torsions:
REMARK  status: ('A' for Active; 'I' for Inactive)
REMARK    1  A    between atoms: C_1  and  C_2
REMARK    2  A    between atoms: C_2  and  C_3
REMARK    3  A    between atoms: C_11  and  C_12
REMARK    4  A    between atoms: C_11  and  C_14
REMARK    5  A    between atoms: C_12  and  C_13
REMARK    6  A    between atoms: C_14  and  C_15
REMARK    7  A    between atoms: C_15  and  O_16
REMARK                            x       y       z     vdW  Elec       q    Type
REMARK                         _______ _______ _______ _____ _____    ______ ____
ROOT
ATOM      1  C   UNL     1       6.201  -4.566  23.195  0.00  0.00    -0.024 A 
ATOM      2  C   UNL     1       5.798  -5.585  24.077  0.00  0.00    +0.005 A 
ATOM      3  C   UNL     1       6.074  -5.524  25.442  0.00  0.00    +0.001 A 
ATOM      4  C   UNL     1       6.753  -4.431  25.987  0.00  0.00    +0.010 A 
ATOM      5  C   UNL     1       7.159  -3.382  25.140  0.00  0.00    +0.004 A 
ATOM      6  C   UNL     1       7.809  -2.134  25.347  0.00  0.00    -0.014 A 
ATOM      7  C   UNL     1       8.257  -1.468  26.594  0.00  0.00    +0.065 C 
ATOM      8  C   UNL     1       9.009  -0.165  26.270  0.00  0.00    +0.166 C 
ATOM      9  O   UNL     1       8.472   0.568  25.140  0.00  0.00    -0.366 OA
ATOM     10  C   UNL     1       8.488  -0.143  23.867  0.00  0.00    +0.119 C 
ATOM     11  C   UNL     1       7.915  -1.506  24.126  0.00  0.00    +0.053 A 
ATOM     12  N   UNL     1       7.374  -2.335  23.181  0.00  0.00    -0.355 N 
ATOM     13  H   UNL     1       7.277  -2.127  22.197  0.00  0.00    +0.166 HD
ATOM     14  C   UNL     1       6.879  -3.477  23.774  0.00  0.00    +0.050 A 
ENDROOT
BRANCH   1  16
ATOM     15  C   UNL     1       6.342  -5.973  21.114  0.00  0.00    +0.009 C 
ATOM     16  C   UNL     1       5.878  -4.657  21.724  0.00  0.00    +0.034 C 
ENDBRANCH   1  16
BRANCH  10  17
ATOM     17  C   UNL     1       7.624   0.655  22.854  0.00  0.00    +0.038 C 
ATOM     18  C   UNL     1       8.385   1.695  22.036  0.00  0.00    +0.007 C 
ENDBRANCH  10  17
BRANCH  10  19
ATOM     19  C   UNL     1       9.937  -0.267  23.363  0.00  0.00    +0.161 C 
BRANCH  19  20
ATOM     20  C   UNL     1      10.240  -1.540  22.611  0.00  0.00    +0.308 C 
ATOM     21  O   UNL     1      10.761  -2.509  23.148  0.00  0.00    -0.251 OA
BRANCH  20  22
ATOM     22  O   UNL     1       9.980  -1.519  21.286  0.00  0.00    -0.481 OA
ATOM     23  H   UNL     1       9.993  -0.617  20.891  0.00  0.00    +0.295 HD
ENDBRANCH  20  22
ENDBRANCH  19  20
ENDBRANCH  10  19
TORSDOF 5
ENDMDL
MODEL 5
REMARK VINA RESULT:      -5.6      3.414      5.629
REMARK  Name = 
REMARK  7 active torsions:
REMARK  status: ('A' for Active; 'I' for Inactive)
REMARK    1  A    between atoms: C_1  and  C_2
REMARK    2  A    between atoms: C_2  and  C_3
REMARK    3  A    between atoms: C_11  and  C_12
REMARK    4  A    between atoms: C_11  and  C_14
REMARK    5  A    between atoms: C_12  and  C_13
REMARK    6  A    between atoms: C_14  and  C_15
REMARK    7  A    between atoms: C_15  and  O_16
REMARK                            x       y       z     vdW  Elec       q    Type
REMARK                         _______ _______ _______ _____ _____    ______ ____
ROOT
ATOM      1  C   UNL     1       7.507   1.578  22.645  0.00  0.00    -0.024 A 
ATOM      2  C   UNL     1       8.590   2.187  21.985  0.00  0.00    +0.005 A 
ATOM      3  C   UNL     1       9.838   1.571  21.903  0.00  0.00    +0.001 A 
ATOM      4  C   UNL     1      10.052   0.310  22.468  0.00  0.00    +0.010 A 
ATOM      5  C   UNL     1       8.989  -0.339  23.124  0.00  0.00    +0.004 A 
ATOM      6  C   UNL     1       8.836  -1.605  23.753  0.00  0.00    -0.014 A 
ATOM      7  C   UNL     1       9.782  -2.739  23.895  0.00  0.00    +0.065 C 
ATOM      8  C   UNL     1       9.165  -3.850  24.762  0.00  0.00    +0.166 C 
ATOM      9  O   UNL     1       7.741  -4.039  24.566  0.00  0.00    -0.366 OA
ATOM     10  C   UNL     1       6.907  -2.883  24.876  0.00  0.00    +0.119 C 
ATOM     11  C   UNL     1       7.536  -1.702  24.196  0.00  0.00    +0.053 A 
ATOM     12  N   UNL     1       6.898  -0.533  23.880  0.00  0.00    -0.355 N 
ATOM     13  H   UNL     1       5.924  -0.326  24.048  0.00  0.00    +0.166 HD
ATOM     14  C   UNL     1       7.753   0.309  23.200  0.00  0.00    +0.050 A 
ENDROOT
BRANCH   1  16
ATOM     15  C   UNL     1       6.275   3.763  22.444  0.00  0.00    +0.009 C 
ATOM     16  C   UNL     1       6.165   2.267  22.707  0.00  0.00    +0.034 C 
ENDBRANCH   1  16
BRANCH  10  17
ATOM     17  C   UNL     1       5.478  -3.157  24.338  0.00  0.00    +0.038 C 
ATOM     18  C   UNL     1       5.346  -4.396  23.457  0.00  0.00    +0.007 C 
ENDBRANCH  10  17
BRANCH  10  19
ATOM     19  C   UNL     1       6.879  -2.662  26.400  0.00  0.00    +0.161 C 
BRANCH  19  20
ATOM     20  C   UNL     1       6.372  -3.836  27.201  0.00  0.00    +0.308 C 
ATOM     21  O   UNL     1       5.231  -3.884  27.642  0.00  0.00    -0.251 OA
BRANCH  20  22
ATOM     22  O   UNL     1       7.279  -4.796  27.477  0.00  0.00    -0.481 OA
ATOM     23  H   UNL     1       8.140  -4.450  27.805  0.00  0.00    +0.295 HD
ENDBRANCH  20  22
ENDBRANCH  19  20
ENDBRANCH  10  19
TORSDOF 5
ENDMDL
MODEL 6
REMARK VINA RESULT:      -5.6      3.650      7.592
REMARK  Name = 
REMARK  7 active torsions:
REMARK  status: ('A' for Active; 'I' for Inactive)
REMARK    1  A    between atoms: C_1  and  C_2
REMARK    2  A    between atoms: C_2  and  C_3
REMARK    3  A    between atoms: C_11  and  C_12
REMARK    4  A    between atoms: C_11  and  C_14
REMARK    5  A    between atoms: C_12  and  C_13
REMARK    6  A    between atoms: C_14  and  C_15
REMARK    7  A    between atoms: C_15  and  O_16
REMARK                            x       y       z     vdW  Elec       q    Type
REMARK                         _______ _______ _______ _____ _____    ______ ____
ROOT
ATOM      1  C   UNL     1       5.171  -3.687  23.802  0.00  0.00    -0.024 A 
ATOM      2  C   UNL     1       5.440  -5.010  23.406  0.00  0.00    +0.005 A 
ATOM      3  C   UNL     1       6.552  -5.331  22.629  0.00  0.00    +0.001 A 
ATOM      4  C   UNL     1       7.454  -4.340  22.227  0.00  0.00    +0.010 A 
ATOM      5  C   UNL     1       7.228  -3.006  22.616  0.00  0.00    +0.004 A 
ATOM      6  C   UNL     1       7.935  -1.786  22.434  0.00  0.00    -0.014 A 
ATOM      7  C   UNL     1       9.237  -1.507  21.779  0.00  0.00    +0.065 C 
ATOM      8  C   UNL     1       9.514   0.006  21.752  0.00  0.00    +0.166 C 
ATOM      9  O   UNL     1       9.065   0.716  22.934  0.00  0.00    -0.366 OA
ATOM     10  C   UNL     1       7.631   0.651  23.196  0.00  0.00    +0.119 C 
ATOM     11  C   UNL     1       7.234  -0.791  23.079  0.00  0.00    +0.053 A 
ATOM     12  N   UNL     1       6.116  -1.357  23.627  0.00  0.00    -0.355 N 
ATOM     13  H   UNL     1       5.428  -0.880  24.192  0.00  0.00    +0.166 HD
ATOM     14  C   UNL     1       6.098  -2.714  23.384  0.00  0.00    +0.050 A 
ENDROOT
BRANCH   1  16
ATOM     15  C   UNL     1       2.985  -4.540  24.710  0.00  0.00    +0.009 C 
ATOM     16  C   UNL     1       3.963  -3.374  24.652  0.00  0.00    +0.034 C 
ENDBRANCH   1  16
BRANCH  10  17
ATOM     17  C   UNL     1       7.374   1.199  24.625  0.00  0.00    +0.038 C 
ATOM     18  C   UNL     1       8.263   0.605  25.714  0.00  0.00    +0.007 C 
ENDBRANCH  10  17
BRANCH  10  19
ATOM     19  C   UNL     1       6.876   1.493  22.150  0.00  0.00    +0.161 C 
BRANCH  19  20
ATOM     20  C   UNL     1       7.172   2.972  22.194  0.00  0.00    +0.308 C 
ATOM     21  O   UNL     1       6.288   3.813  22.293  0.00  0.00    -0.251 OA
BRANCH  20  22
ATOM     22  O   UNL     1       8.466   3.320  22.034  0.00  0.00    -0.481 OA
ATOM     23  H   UNL     1       8.884   3.688  22.846  0.00  0.00    +0.295 HD
ENDBRANCH  20  22
ENDBRANCH  19  20
ENDBRANCH  10  19
TORSDOF 5
ENDMDL
MODEL 7
REMARK VINA RESULT:      -5.6      3.799      7.311
REMARK  Name = 
REMARK  7 active torsions:
REMARK  status: ('A' for Active; 'I' for Inactive)
REMARK    1  A    between atoms: C_1  and  C_2
REMARK    2  A    between atoms: C_2  and  C_3
REMARK    3  A    between atoms: C_11  and  C_12
REMARK    4  A    between atoms: C_11  and  C_14
REMARK    5  A    between atoms: C_12  and  C_13
REMARK    6  A    between atoms: C_14  and  C_15
REMARK    7  A    between atoms: C_15  and  O_16
REMARK                            x       y       z     vdW  Elec       q    Type
REMARK                         _______ _______ _______ _____ _____    ______ ____
ROOT
ATOM      1  C   UNL     1       5.404  -4.408  22.629  0.00  0.00    -0.024 A 
ATOM      2  C   UNL     1       4.260  -4.917  23.270  0.00  0.00    +0.005 A 
ATOM      3  C   UNL     1       3.716  -4.302  24.396  0.00  0.00    +0.001 A 
ATOM      4  C   UNL     1       4.286  -3.138  24.922  0.00  0.00    +0.010 A 
ATOM      5  C   UNL     1       5.422  -2.588  24.299  0.00  0.00    +0.004 A 
ATOM      6  C   UNL     1       6.213  -1.428  24.524  0.00  0.00    -0.014 A 
ATOM      7  C   UNL     1       6.068  -0.330  25.513  0.00  0.00    +0.065 C 
ATOM      8  C   UNL     1       7.254   0.644  25.414  0.00  0.00    +0.166 C 
ATOM      9  O   UNL     1       7.735   0.866  24.065  0.00  0.00    -0.366 OA
ATOM     10  C   UNL     1       8.229  -0.320  23.373  0.00  0.00    +0.119 C 
ATOM     11  C   UNL     1       7.194  -1.391  23.558  0.00  0.00    +0.053 A 
ATOM     12  N   UNL     1       7.043  -2.498  22.768  0.00  0.00    -0.355 N 
ATOM     13  H   UNL     1       7.596  -2.723  21.953  0.00  0.00    +0.166 HD
ATOM     14  C   UNL     1       5.952  -3.234  23.180  0.00  0.00    +0.050 A 
ENDROOT
BRANCH   1  16
ATOM     15  C   UNL     1       7.156  -5.979  21.738  0.00  0.00    +0.009 C 
ATOM     16  C   UNL     1       5.963  -5.092  21.406  0.00  0.00    +0.034 C 
ENDBRANCH   1  16
BRANCH  10  17
ATOM     17  C   UNL     1       8.418   0.036  21.875  0.00  0.00    +0.038 C 
ATOM     18  C   UNL     1       8.907   1.457  21.605  0.00  0.00    +0.007 C 
ENDBRANCH  10  17
BRANCH  10  19
ATOM     19  C   UNL     1       9.565  -0.763  23.997  0.00  0.00    +0.161 C 
BRANCH  19  20
ATOM     20  C   UNL     1      10.175  -1.996  23.379  0.00  0.00    +0.308 C 
ATOM     21  O   UNL     1      10.122  -3.094  23.919  0.00  0.00    -0.251 OA
BRANCH  20  22
ATOM     22  O   UNL     1      10.859  -1.804  22.232  0.00  0.00    -0.481 OA
ATOM     23  H   UNL     1      10.293  -1.555  21.466  0.00  0.00    +0.295 HD
ENDBRANCH  20  22
ENDBRANCH  19  20
ENDBRANCH  10  19
TORSDOF 5
ENDMDL
MODEL 8
REMARK VINA RESULT:      -5.6      2.855      4.659
REMARK  Name = 
REMARK  7 active torsions:
REMARK  status: ('A' for Active; 'I' for Inactive)
REMARK    1  A    between atoms: C_1  and  C_2
REMARK    2  A    between atoms: C_2  and  C_3
REMARK    3  A    between atoms: C_11  and  C_12
REMARK    4  A    between atoms: C_11  and  C_14
REMARK    5  A    between atoms: C_12  and  C_13
REMARK    6  A    between atoms: C_14  and  C_15
REMARK    7  A    between atoms: C_15  and  O_16
REMARK                            x       y       z     vdW  Elec       q    Type
REMARK                         _______ _______ _______ _____ _____    ______ ____
ROOT
ATOM      1  C   UNL     1       5.609   2.741  23.512  0.00  0.00    -0.024 A 
ATOM      2  C   UNL     1       6.009   3.977  22.973  0.00  0.00    +0.005 A 
ATOM      3  C   UNL     1       7.183   4.109  22.233  0.00  0.00    +0.001 A 
ATOM      4  C   UNL     1       8.003   3.002  21.988  0.00  0.00    +0.010 A 
ATOM      5  C   UNL     1       7.629   1.745  22.498  0.00  0.00    +0.004 A 
ATOM      6  C   UNL     1       8.178   0.435  22.409  0.00  0.00    -0.014 A 
ATOM      7  C   UNL     1       9.362  -0.074  21.675  0.00  0.00    +0.065 C 
ATOM      8  C   UNL     1       9.595  -1.561  21.992  0.00  0.00    +0.166 C 
ATOM      9  O   UNL     1       8.379  -2.335  22.148  0.00  0.00    -0.366 OA
ATOM     10  C   UNL     1       7.498  -1.906  23.228  0.00  0.00    +0.119 C 
ATOM     11  C   UNL     1       7.344  -0.419  23.096  0.00  0.00    +0.053 A 
ATOM     12  N   UNL     1       6.320   0.325  23.617  0.00  0.00    -0.355 N 
ATOM     13  H   UNL     1       5.534  -0.034  24.140  0.00  0.00    +0.166 HD
ATOM     14  C   UNL     1       6.453   1.646  23.246  0.00  0.00    +0.050 A 
ENDROOT
BRANCH   1  16
ATOM     15  C   UNL     1       4.560   2.765  25.799  0.00  0.00    +0.009 C 
ATOM     16  C   UNL     1       4.327   2.629  24.300  0.00  0.00    +0.034 C 
ENDBRANCH   1  16
BRANCH  10  17
ATOM     17  C   UNL     1       6.139  -2.637  23.065  0.00  0.00    +0.038 C 
ATOM     18  C   UNL     1       5.985  -3.433  21.772  0.00  0.00    +0.007 C 
ENDBRANCH  10  17
BRANCH  10  19
ATOM     19  C   UNL     1       8.139  -2.251  24.585  0.00  0.00    +0.161 C 
BRANCH  19  20
ATOM     20  C   UNL     1       8.480  -3.709  24.772  0.00  0.00    +0.308 C 
ATOM     21  O   UNL     1       7.712  -4.497  25.310  0.00  0.00    -0.251 OA
BRANCH  20  22
ATOM     22  O   UNL     1       9.719  -4.080  24.388  0.00  0.00    -0.481 OA
ATOM     23  H   UNL     1       9.730  -4.799  23.715  0.00  0.00    +0.295 HD
ENDBRANCH  20  22
ENDBRANCH  19  20
ENDBRANCH  10  19
TORSDOF 5
ENDMDL
MODEL 9
REMARK VINA RESULT:      -5.5      3.869      5.384
REMARK  Name = 
REMARK  7 active torsions:
REMARK  status: ('A' for Active; 'I' for Inactive)
REMARK    1  A    between atoms: C_1  and  C_2
REMARK    2  A    between atoms: C_2  and  C_3
REMARK    3  A    between atoms: C_11  and  C_12
REMARK    4  A    between atoms: C_11  and  C_14
REMARK    5  A    between atoms: C_12  and  C_13
REMARK    6  A    between atoms: C_14  and  C_15
REMARK    7  A    between atoms: C_15  and  O_16
REMARK                            x       y       z     vdW  Elec       q    Type
REMARK                         _______ _______ _______ _____ _____    ______ ____
ROOT
ATOM      1  C   UNL     1       8.869   0.554  24.097  0.00  0.00    -0.024 A 
ATOM      2  C   UNL     1       8.597   1.703  24.862  0.00  0.00    +0.005 A 
ATOM      3  C   UNL     1       7.454   1.802  25.654  0.00  0.00    +0.001 A 
ATOM      4  C   UNL     1       6.539   0.746  25.726  0.00  0.00    +0.010 A 
ATOM      5  C   UNL     1       6.784  -0.426  24.987  0.00  0.00    +0.004 A 
ATOM      6  C   UNL     1       6.117  -1.676  24.859  0.00  0.00    -0.014 A 
ATOM      7  C   UNL     1       4.904  -2.203  25.532  0.00  0.00    +0.065 C 
ATOM      8  C   UNL     1       4.528  -3.581  24.962  0.00  0.00    +0.166 C 
ATOM      9  O   UNL     1       5.662  -4.419  24.627  0.00  0.00    -0.366 OA
ATOM     10  C   UNL     1       6.560  -3.881  23.611  0.00  0.00    +0.119 C 
ATOM     11  C   UNL     1       6.855  -2.462  24.002  0.00  0.00    +0.053 A 
ATOM     12  N   UNL     1       7.934  -1.730  23.587  0.00  0.00    -0.355 N 
ATOM     13  H   UNL     1       8.673  -2.057  22.981  0.00  0.00    +0.166 HD
ATOM     14  C   UNL     1       7.932  -0.491  24.193  0.00  0.00    +0.050 A 
ENDROOT
BRANCH   1  16
ATOM     15  C   UNL     1       9.945   1.139  21.899  0.00  0.00    +0.009 C 
ATOM     16  C   UNL     1      10.121   0.474  23.258  0.00  0.00    +0.034 C 
ENDBRANCH   1  16
BRANCH  10  17
ATOM     17  C   UNL     1       7.847  -4.747  23.593  0.00  0.00    +0.038 C 
ATOM     18  C   UNL     1       8.424  -5.077  24.967  0.00  0.00    +0.007 C 
ENDBRANCH  10  17
BRANCH  10  19
ATOM     19  C   UNL     1       5.865  -3.916  22.238  0.00  0.00    +0.161 C 
BRANCH  19  20
ATOM     20  C   UNL     1       5.673  -5.297  21.660  0.00  0.00    +0.308 C 
ATOM     21  O   UNL     1       6.096  -5.608  20.554  0.00  0.00    -0.251 OA
BRANCH  20  22
ATOM     22  O   UNL     1       4.932  -6.148  22.400  0.00  0.00    -0.481 OA
ATOM     23  H   UNL     1       4.182  -5.719  22.872  0.00  0.00    +0.295 HD
ENDBRANCH  20  22
ENDBRANCH  19  20
ENDBRANCH  10  19
TORSDOF 5
ENDMDL
