MODEL 1
REMARK VINA RESULT:      -7.7      0.000      0.000
REMARK  Name = 
REMARK  6 active torsions:
REMARK  status: ('A' for Active; 'I' for Inactive)
REMARK    1  A    between atoms: C_2  and  C_3
REMARK    2  A    between atoms: C_9  and  O_11
REMARK    3  A    between atoms: C_12  and  O_14
REMARK    4  A    between atoms: C_20  and  O_21
REMARK    5  A    between atoms: O_21  and  C_22
REMARK    6  A    between atoms: C_24  and  O_25
REMARK                            x       y       z     vdW  Elec       q    Type
REMARK                         _______ _______ _______ _____ _____    ______ ____
ROOT
ATOM      1  C   UNL     1       7.065   2.646  24.043  0.00  0.00    +0.177 C 
ATOM      2  O   UNL     1       6.992   1.074  23.803  0.00  0.00    -0.458 OA
ATOM      3  C   UNL     1       6.276   0.104  24.618  0.00  0.00    +0.344 C 
ATOM      4  O   UNL     1       5.780   0.478  25.679  0.00  0.00    -0.245 OA
ATOM      5  C   UNL     1       5.987  -1.470  24.100  0.00  0.00    +0.108 A 
ATOM      6  C   UNL     1       6.803  -2.138  23.168  0.00  0.00    -0.004 A 
ATOM      7  C   UNL     1       6.263  -3.106  22.281  0.00  0.00    +0.054 A 
ATOM      8  C   UNL     1       5.234  -3.982  22.719  0.00  0.00    +0.124 A 
ATOM      9  C   UNL     1       4.705  -3.675  23.961  0.00  0.00    +0.091 A 
ATOM     10  C   UNL     1       7.911  -2.875  23.963  0.00  0.00    +0.005 C 
ATOM     11  C   UNL     1       9.151  -2.872  23.463  0.00  0.00    -0.024 C 
ATOM     12  C   UNL     1       9.987  -1.823  24.127  0.00  0.00    +0.061 C 
ATOM     13  C   UNL     1       9.649  -0.538  23.350  0.00  0.00    +0.154 C 
ATOM     14  C   UNL     1      10.309   0.660  23.997  0.00  0.00    +0.213 C 
ATOM     15  C   UNL     1      10.281   1.836  22.992  0.00  0.00    +0.187 C 
ATOM     16  O   UNL     1       9.858   1.794  21.834  0.00  0.00    -0.290 OA
ATOM     17  C   UNL     1      10.744   3.144  23.572  0.00  0.00    +0.045 C 
ATOM     18  C   UNL     1       9.584   3.810  23.593  0.00  0.00    -0.020 C 
ATOM     19  C   UNL     1       5.121  -2.468  24.679  0.00  0.00    +0.135 A 
ATOM     20  C   UNL     1       8.396   3.482  24.527  0.00  0.00    +0.071 C 
ATOM     21  C   UNL     1       6.572   3.430  22.796  0.00  0.00    +0.052 C 
ENDROOT
BRANCH   8  22
ATOM     22  O   UNL     1       5.086  -5.054  21.920  0.00  0.00    -0.495 OA
ATOM     23  C   UNL     1       6.117  -5.643  21.171  0.00  0.00    +0.277 C 
ENDBRANCH   8  22
BRANCH  13  24
ATOM     24  O   UNL     1       9.990  -0.699  21.969  0.00  0.00    -0.388 OA
ATOM     25  H   UNL     1      10.938  -0.457  21.916  0.00  0.00    +0.210 HD
ENDBRANCH  13  24
BRANCH  14  26
ATOM     26  O   UNL     1       9.641   0.885  25.240  0.00  0.00    -0.381 OA
ATOM     27  H   UNL     1       8.680   0.846  25.109  0.00  0.00    +0.210 HD
ENDBRANCH  14  26
BRANCH  19  28
ATOM     28  O   UNL     1       5.054  -2.608  26.061  0.00  0.00    -0.506 OA
ATOM     29  H   UNL     1       4.151  -2.306  26.316  0.00  0.00    +0.292 HD
ENDBRANCH  19  28
TORSDOF 4
ENDMDL
MODEL 2
REMARK VINA RESULT:      -7.2      1.587      1.948
REMARK  Name = 
REMARK  6 active torsions:
REMARK  status: ('A' for Active; 'I' for Inactive)
REMARK    1  A    between atoms: C_2  and  C_3
REMARK    2  A    between atoms: C_9  and  O_11
REMARK    3  A    between atoms: C_12  and  O_14
REMARK    4  A    between atoms: C_20  and  O_21
REMARK    5  A    between atoms: O_21  and  C_22
REMARK    6  A    between atoms: C_24  and  O_25
REMARK                            x       y       z     vdW  Elec       q    Type
REMARK                         _______ _______ _______ _____ _____    ______ ____
ROOT
ATOM      1  C   UNL     1       6.224   1.931  25.247  0.00  0.00    +0.177 C 
ATOM      2  O   UNL     1       6.805   0.567  24.666  0.00  0.00    -0.458 OA
ATOM      3  C   UNL     1       7.071  -0.652  25.416  0.00  0.00    +0.344 C 
ATOM      4  O   UNL     1       6.980  -0.621  26.641  0.00  0.00    -0.245 OA
ATOM      5  C   UNL     1       7.365  -2.127  24.662  0.00  0.00    +0.108 A 
ATOM      6  C   UNL     1       7.896  -2.238  23.364  0.00  0.00    -0.004 A 
ATOM      7  C   UNL     1       7.551  -3.327  22.521  0.00  0.00    +0.054 A 
ATOM      8  C   UNL     1       7.369  -4.625  23.068  0.00  0.00    +0.124 A 
ATOM      9  C   UNL     1       7.363  -4.673  24.452  0.00  0.00    +0.091 A 
ATOM     10  C   UNL     1       9.440  -2.287  23.495  0.00  0.00    +0.005 C 
ATOM     11  C   UNL     1      10.169  -1.614  22.598  0.00  0.00    -0.024 C 
ATOM     12  C   UNL     1      10.604  -0.294  23.154  0.00  0.00    +0.061 C 
ATOM     13  C   UNL     1       9.400   0.628  22.898  0.00  0.00    +0.154 C 
ATOM     14  C   UNL     1       9.623   1.980  23.539  0.00  0.00    +0.213 C 
ATOM     15  C   UNL     1       8.607   2.981  22.939  0.00  0.00    +0.187 C 
ATOM     16  O   UNL     1       7.795   2.743  22.041  0.00  0.00    -0.290 OA
ATOM     17  C   UNL     1       8.598   4.322  23.619  0.00  0.00    +0.045 C 
ATOM     18  C   UNL     1       7.405   4.267  24.222  0.00  0.00    -0.020 C 
ATOM     19  C   UNL     1       7.426  -3.444  25.247  0.00  0.00    +0.135 A 
ATOM     20  C   UNL     1       7.060   3.338  25.409  0.00  0.00    +0.071 C 
ATOM     21  C   UNL     1       4.930   2.357  24.499  0.00  0.00    +0.052 C 
ENDROOT
BRANCH   8  22
ATOM     22  O   UNL     1       7.410  -5.595  22.136  0.00  0.00    -0.495 OA
ATOM     23  C   UNL     1       6.421  -5.816  21.166  0.00  0.00    +0.277 C 
ENDBRANCH   8  22
BRANCH  13  24
ATOM     24  O   UNL     1       9.131   0.701  21.494  0.00  0.00    -0.388 OA
ATOM     25  H   UNL     1       8.305   1.225  21.424  0.00  0.00    +0.210 HD
ENDBRANCH  13  24
BRANCH  14  26
ATOM     26  O   UNL     1       9.550   1.790  24.953  0.00  0.00    -0.381 OA
ATOM     27  H   UNL     1       9.228   2.601  25.378  0.00  0.00    +0.210 HD
ENDBRANCH  14  26
BRANCH  19  28
ATOM     28  O   UNL     1       8.047  -3.626  26.479  0.00  0.00    -0.506 OA
ATOM     29  H   UNL     1       8.553  -4.468  26.400  0.00  0.00    +0.292 HD
ENDBRANCH  19  28
TORSDOF 4
ENDMDL
MODEL 3
REMARK VINA RESULT:      -7.2      1.107      1.249
REMARK  Name = 
REMARK  6 active torsions:
REMARK  status: ('A' for Active; 'I' for Inactive)
REMARK    1  A    between atoms: C_2  and  C_3
REMARK    2  A    between atoms: C_9  and  O_11
REMARK    3  A    between atoms: C_12  and  O_14
REMARK    4  A    between atoms: C_20  and  O_21
REMARK    5  A    between atoms: O_21  and  C_22
REMARK    6  A    between atoms: C_24  and  O_25
REMARK                            x       y       z     vdW  Elec       q    Type
REMARK                         _______ _______ _______ _____ _____    ______ ____
ROOT
ATOM      1  C   UNL     1       7.167   2.035  24.248  0.00  0.00    +0.177 C 
ATOM      2  O   UNL     1       6.837   0.486  24.084  0.00  0.00    -0.458 OA
ATOM      3  C   UNL     1       6.083  -0.344  25.012  0.00  0.00    +0.344 C 
ATOM      4  O   UNL     1       5.771   0.128  26.104  0.00  0.00    -0.245 OA
ATOM      5  C   UNL     1       5.509  -1.869  24.595  0.00  0.00    +0.108 A 
ATOM      6  C   UNL     1       6.107  -2.676  23.609  0.00  0.00    -0.004 A 
ATOM      7  C   UNL     1       5.333  -3.574  22.828  0.00  0.00    +0.054 A 
ATOM      8  C   UNL     1       4.243  -4.273  23.411  0.00  0.00    +0.124 A 
ATOM      9  C   UNL     1       3.908  -3.858  24.689  0.00  0.00    +0.091 A 
ATOM     10  C   UNL     1       7.176  -3.551  24.310  0.00  0.00    +0.005 C 
ATOM     11  C   UNL     1       8.340  -3.748  23.679  0.00  0.00    -0.024 C 
ATOM     12  C   UNL     1       9.390  -2.821  24.204  0.00  0.00    +0.061 C 
ATOM     13  C   UNL     1       9.159  -1.520  23.415  0.00  0.00    +0.154 C 
ATOM     14  C   UNL     1      10.058  -0.419  23.935  0.00  0.00    +0.213 C 
ATOM     15  C   UNL     1      10.089   0.722  22.891  0.00  0.00    +0.187 C 
ATOM     16  O   UNL     1       9.536   0.714  21.788  0.00  0.00    -0.290 OA
ATOM     17  C   UNL     1      10.802   1.959  23.361  0.00  0.00    +0.045 C 
ATOM     18  C   UNL     1       9.762   2.793  23.480  0.00  0.00    -0.020 C 
ATOM     19  C   UNL     1       4.576  -2.709  25.306  0.00  0.00    +0.135 A 
ATOM     20  C   UNL     1       8.653   2.672  24.549  0.00  0.00    +0.071 C 
ATOM     21  C   UNL     1       6.657   2.852  23.030  0.00  0.00    +0.052 C 
ENDROOT
BRANCH   8  22
ATOM     22  O   UNL     1       3.849  -5.330  22.678  0.00  0.00    -0.495 OA
ATOM     23  C   UNL     1       2.828  -6.222  23.044  0.00  0.00    +0.277 C 
ENDBRANCH   8  22
BRANCH  13  24
ATOM     24  O   UNL     1       9.314  -1.766  22.013  0.00  0.00    -0.388 OA
ATOM     25  H   UNL     1      10.272  -1.653  21.844  0.00  0.00    +0.210 HD
ENDBRANCH  13  24
BRANCH  14  26
ATOM     26  O   UNL     1       9.575  -0.064  25.232  0.00  0.00    -0.381 OA
ATOM     27  H   UNL     1      10.121  -0.488  25.914  0.00  0.00    +0.210 HD
ENDBRANCH  14  26
BRANCH  19  28
ATOM     28  O   UNL     1       4.647  -2.802  26.692  0.00  0.00    -0.506 OA
ATOM     29  H   UNL     1       4.786  -3.757  26.888  0.00  0.00    +0.292 HD
ENDBRANCH  19  28
TORSDOF 4
ENDMDL
MODEL 4
REMARK VINA RESULT:      -7.2      1.938      6.437
REMARK  Name = 
REMARK  6 active torsions:
REMARK  status: ('A' for Active; 'I' for Inactive)
REMARK    1  A    between atoms: C_2  and  C_3
REMARK    2  A    between atoms: C_9  and  O_11
REMARK    3  A    between atoms: C_12  and  O_14
REMARK    4  A    between atoms: C_20  and  O_21
REMARK    5  A    between atoms: O_21  and  C_22
REMARK    6  A    between atoms: C_24  and  O_25
REMARK                            x       y       z     vdW  Elec       q    Type
REMARK                         _______ _______ _______ _____ _____    ______ ____
ROOT
ATOM      1  C   UNL     1       5.739  -1.510  25.607  0.00  0.00    +0.177 C 
ATOM      2  O   UNL     1       6.874  -0.637  24.911  0.00  0.00    -0.458 OA
ATOM      3  C   UNL     1       6.691   0.626  24.211  0.00  0.00    +0.344 C 
ATOM      4  O   UNL     1       5.547   1.021  24.000  0.00  0.00    -0.245 OA
ATOM      5  C   UNL     1       7.982   1.625  23.805  0.00  0.00    +0.108 A 
ATOM      6  C   UNL     1       9.291   1.151  23.602  0.00  0.00    -0.004 A 
ATOM      7  C   UNL     1      10.419   1.959  23.904  0.00  0.00    +0.054 A 
ATOM      8  C   UNL     1      10.382   3.358  23.663  0.00  0.00    +0.124 A 
ATOM      9  C   UNL     1       9.136   3.851  23.314  0.00  0.00    +0.091 A 
ATOM     10  C   UNL     1       9.429   0.791  22.101  0.00  0.00    +0.005 C 
ATOM     11  C   UNL     1      10.105  -0.317  21.779  0.00  0.00    -0.024 C 
ATOM     12  C   UNL     1       9.167  -1.451  21.512  0.00  0.00    +0.061 C 
ATOM     13  C   UNL     1       8.866  -2.016  22.912  0.00  0.00    +0.154 C 
ATOM     14  C   UNL     1       7.804  -3.091  22.831  0.00  0.00    +0.213 C 
ATOM     15  C   UNL     1       7.817  -3.893  24.154  0.00  0.00    +0.187 C 
ATOM     16  O   UNL     1       8.601  -3.735  25.093  0.00  0.00    -0.290 OA
ATOM     17  C   UNL     1       6.688  -4.878  24.281  0.00  0.00    +0.045 C 
ATOM     18  C   UNL     1       5.974  -4.288  25.246  0.00  0.00    -0.020 C 
ATOM     19  C   UNL     1       7.955   2.984  23.320  0.00  0.00    +0.135 A 
ATOM     20  C   UNL     1       5.188  -2.967  25.078  0.00  0.00    +0.071 C 
ATOM     21  C   UNL     1       6.061  -1.761  27.106  0.00  0.00    +0.052 C 
ENDROOT
BRANCH   8  22
ATOM     22  O   UNL     1      11.605   3.918  23.647  0.00  0.00    -0.495 OA
ATOM     23  C   UNL     1      11.874   5.244  23.274  0.00  0.00    +0.277 C 
ENDBRANCH   8  22
BRANCH  13  24
ATOM     24  O   UNL     1      10.078  -2.459  23.530  0.00  0.00    -0.388 OA
ATOM     25  H   UNL     1      10.767  -2.341  22.843  0.00  0.00    +0.210 HD
ENDBRANCH  13  24
BRANCH  14  26
ATOM     26  O   UNL     1       6.574  -2.441  22.508  0.00  0.00    -0.381 OA
ATOM     27  H   UNL     1       6.317  -2.655  21.596  0.00  0.00    +0.210 HD
ENDBRANCH  14  26
BRANCH  19  28
ATOM     28  O   UNL     1       6.995   3.367  22.388  0.00  0.00    -0.506 OA
ATOM     29  H   UNL     1       7.490   3.548  21.556  0.00  0.00    +0.292 HD
ENDBRANCH  19  28
TORSDOF 4
ENDMDL
MODEL 5
REMARK VINA RESULT:      -7.1      2.294      6.725
REMARK  Name = 
REMARK  6 active torsions:
REMARK  status: ('A' for Active; 'I' for Inactive)
REMARK    1  A    between atoms: C_2  and  C_3
REMARK    2  A    between atoms: C_9  and  O_11
REMARK    3  A    between atoms: C_12  and  O_14
REMARK    4  A    between atoms: C_20  and  O_21
REMARK    5  A    between atoms: O_21  and  C_22
REMARK    6  A    between atoms: C_24  and  O_25
REMARK                            x       y       z     vdW  Elec       q    Type
REMARK                         _______ _______ _______ _____ _____    ______ ____
ROOT
ATOM      1  C   UNL     1       5.640  -4.789  23.608  0.00  0.00    +0.177 C 
ATOM      2  O   UNL     1       6.380  -3.379  23.610  0.00  0.00    -0.458 OA
ATOM      3  C   UNL     1       7.550  -3.012  22.826  0.00  0.00    +0.344 C 
ATOM      4  O   UNL     1       8.132  -3.889  22.190  0.00  0.00    -0.245 OA
ATOM      5  C   UNL     1       8.051  -1.416  22.648  0.00  0.00    +0.108 A 
ATOM      6  C   UNL     1       7.774  -0.411  23.593  0.00  0.00    -0.004 A 
ATOM      7  C   UNL     1       7.598   0.941  23.196  0.00  0.00    +0.054 A 
ATOM      8  C   UNL     1       8.384   1.485  22.146  0.00  0.00    +0.124 A 
ATOM      9  C   UNL     1       9.148   0.559  21.456  0.00  0.00    +0.091 A 
ATOM     10  C   UNL     1       8.940  -0.396  24.613  0.00  0.00    +0.005 C 
ATOM     11  C   UNL     1       8.644  -0.224  25.906  0.00  0.00    -0.024 C 
ATOM     12  C   UNL     1       8.618  -1.538  26.622  0.00  0.00    +0.061 C 
ATOM     13  C   UNL     1       7.203  -2.078  26.347  0.00  0.00    +0.154 C 
ATOM     14  C   UNL     1       7.060  -3.484  26.887  0.00  0.00    +0.213 C 
ATOM     15  C   UNL     1       5.554  -3.833  26.952  0.00  0.00    +0.187 C 
ATOM     16  O   UNL     1       4.620  -3.076  26.679  0.00  0.00    -0.290 OA
ATOM     17  C   UNL     1       5.276  -5.269  27.301  0.00  0.00    +0.045 C 
ATOM     18  C   UNL     1       4.798  -5.702  26.129  0.00  0.00    -0.020 C 
ATOM     19  C   UNL     1       9.035  -0.872  21.745  0.00  0.00    +0.135 A 
ATOM     20  C   UNL     1       5.639  -5.874  24.844  0.00  0.00    +0.071 C 
ATOM     21  C   UNL     1       4.136  -4.635  23.253  0.00  0.00    +0.052 C 
ENDROOT
BRANCH   8  22
ATOM     22  O   UNL     1       8.373   2.831  22.129  0.00  0.00    -0.495 OA
ATOM     23  C   UNL     1       7.213   3.622  22.098  0.00  0.00    +0.277 C 
ENDBRANCH   8  22
BRANCH  13  24
ATOM     24  O   UNL     1       6.225  -1.168  26.863  0.00  0.00    -0.388 OA
ATOM     25  H   UNL     1       5.586  -1.048  26.130  0.00  0.00    +0.210 HD
ENDBRANCH  13  24
BRANCH  14  26
ATOM     26  O   UNL     1       7.862  -4.332  26.063  0.00  0.00    -0.381 OA
ATOM     27  H   UNL     1       7.354  -4.608  25.282  0.00  0.00    +0.210 HD
ENDBRANCH  14  26
BRANCH  19  28
ATOM     28  O   UNL     1      10.217  -1.568  21.509  0.00  0.00    -0.506 OA
ATOM     29  H   UNL     1      10.821  -0.925  21.071  0.00  0.00    +0.292 HD
ENDBRANCH  19  28
TORSDOF 4
ENDMDL
MODEL 6
REMARK VINA RESULT:      -7.1      2.427      4.159
REMARK  Name = 
REMARK  6 active torsions:
REMARK  status: ('A' for Active; 'I' for Inactive)
REMARK    1  A    between atoms: C_2  and  C_3
REMARK    2  A    between atoms: C_9  and  O_11
REMARK    3  A    between atoms: C_12  and  O_14
REMARK    4  A    between atoms: C_20  and  O_21
REMARK    5  A    between atoms: O_21  and  C_22
REMARK    6  A    between atoms: C_24  and  O_25
REMARK                            x       y       z     vdW  Elec       q    Type
REMARK                         _______ _______ _______ _____ _____    ______ ____
ROOT
ATOM      1  C   UNL     1       9.241  -0.954  21.910  0.00  0.00    +0.177 C 
ATOM      2  O   UNL     1       8.576  -1.661  23.173  0.00  0.00    -0.458 OA
ATOM      3  C   UNL     1       7.536  -2.679  23.149  0.00  0.00    +0.344 C 
ATOM      4  O   UNL     1       7.000  -2.948  22.077  0.00  0.00    -0.245 OA
ATOM      5  C   UNL     1       7.141  -3.593  24.505  0.00  0.00    +0.108 A 
ATOM      6  C   UNL     1       7.342  -3.145  25.824  0.00  0.00    -0.004 A 
ATOM      7  C   UNL     1       7.632  -4.057  26.872  0.00  0.00    +0.054 A 
ATOM      8  C   UNL     1       7.016  -5.336  26.898  0.00  0.00    +0.124 A 
ATOM      9  C   UNL     1       6.303  -5.658  25.755  0.00  0.00    +0.091 A 
ATOM     10  C   UNL     1       6.055  -2.402  26.264  0.00  0.00    +0.005 C 
ATOM     11  C   UNL     1       6.190  -1.282  26.982  0.00  0.00    -0.024 C 
ATOM     12  C   UNL     1       6.060  -0.074  26.109  0.00  0.00    +0.061 C 
ATOM     13  C   UNL     1       7.470   0.108  25.521  0.00  0.00    +0.154 C 
ATOM     14  C   UNL     1       7.474   1.215  24.489  0.00  0.00    +0.213 C 
ATOM     15  C   UNL     1       8.940   1.630  24.221  0.00  0.00    +0.187 C 
ATOM     16  O   UNL     1       9.938   1.188  24.797  0.00  0.00    -0.290 OA
ATOM     17  C   UNL     1       9.102   2.597  23.082  0.00  0.00    +0.045 C 
ATOM     18  C   UNL     1       9.705   1.804  22.190  0.00  0.00    -0.020 C 
ATOM     19  C   UNL     1       6.308  -4.768  24.591  0.00  0.00    +0.135 A 
ATOM     20  C   UNL     1       9.030   0.616  21.468  0.00  0.00    +0.071 C 
ATOM     21  C   UNL     1      10.784  -1.130  21.914  0.00  0.00    +0.052 C 
ENDROOT
BRANCH   8  22
ATOM     22  O   UNL     1       7.094  -5.929  28.104  0.00  0.00    -0.495 OA
ATOM     23  C   UNL     1       5.991  -6.259  28.907  0.00  0.00    +0.277 C 
ENDBRANCH   8  22
BRANCH  13  24
ATOM     24  O   UNL     1       8.416   0.311  26.576  0.00  0.00    -0.388 OA
ATOM     25  H   UNL     1       9.231  -0.140  26.271  0.00  0.00    +0.210 HD
ENDBRANCH  13  24
BRANCH  14  26
ATOM     26  O   UNL     1       6.746   0.734  23.358  0.00  0.00    -0.381 OA
ATOM     27  H   UNL     1       6.861  -0.226  23.275  0.00  0.00    +0.210 HD
ENDBRANCH  14  26
BRANCH  19  28
ATOM     28  O   UNL     1       5.135  -4.841  23.847  0.00  0.00    -0.506 OA
ATOM     29  H   UNL     1       4.616  -5.581  24.241  0.00  0.00    +0.292 HD
ENDBRANCH  19  28
TORSDOF 4
ENDMDL
MODEL 7
REMARK VINA RESULT:      -7.0      2.776      4.012
REMARK  Name = 
REMARK  6 active torsions:
REMARK  status: ('A' for Active; 'I' for Inactive)
REMARK    1  A    between atoms: C_2  and  C_3
REMARK    2  A    between atoms: C_9  and  O_11
REMARK    3  A    between atoms: C_12  and  O_14
REMARK    4  A    between atoms: C_20  and  O_21
REMARK    5  A    between atoms: O_21  and  C_22
REMARK    6  A    between atoms: C_24  and  O_25
REMARK                            x       y       z     vdW  Elec       q    Type
REMARK                         _______ _______ _______ _____ _____    ______ ____
ROOT
ATOM      1  C   UNL     1       8.786  -0.367  25.826  0.00  0.00    +0.177 C 
ATOM      2  O   UNL     1       7.848  -1.648  25.702  0.00  0.00    -0.458 OA
ATOM      3  C   UNL     1       7.997  -2.905  26.421  0.00  0.00    +0.344 C 
ATOM      4  O   UNL     1       9.009  -3.081  27.096  0.00  0.00    -0.245 OA
ATOM      5  C   UNL     1       6.778  -4.063  26.471  0.00  0.00    +0.108 A 
ATOM      6  C   UNL     1       5.800  -4.198  25.468  0.00  0.00    -0.004 A 
ATOM      7  C   UNL     1       4.492  -4.656  25.776  0.00  0.00    +0.054 A 
ATOM      8  C   UNL     1       4.300  -5.662  26.760  0.00  0.00    +0.124 A 
ATOM      9  C   UNL     1       5.434  -5.984  27.487  0.00  0.00    +0.091 A 
ATOM     10  C   UNL     1       6.349  -5.190  24.412  0.00  0.00    +0.005 C 
ATOM     11  C   UNL     1       6.126  -4.922  23.121  0.00  0.00    -0.024 C 
ATOM     12  C   UNL     1       7.327  -4.281  22.499  0.00  0.00    +0.061 C 
ATOM     13  C   UNL     1       7.175  -2.792  22.856  0.00  0.00    +0.154 C 
ATOM     14  C   UNL     1       8.398  -2.016  22.420  0.00  0.00    +0.213 C 
ATOM     15  C   UNL     1       8.051  -0.508  22.429  0.00  0.00    +0.187 C 
ATOM     16  O   UNL     1       6.947  -0.017  22.680  0.00  0.00    -0.290 OA
ATOM     17  C   UNL     1       9.231   0.391  22.189  0.00  0.00    +0.045 C 
ATOM     18  C   UNL     1       9.354   0.939  23.404  0.00  0.00    -0.020 C 
ATOM     19  C   UNL     1       6.681  -5.239  27.301  0.00  0.00    +0.135 A 
ATOM     20  C   UNL     1       9.817   0.183  24.669  0.00  0.00    +0.071 C 
ATOM     21  C   UNL     1       7.968   0.894  26.219  0.00  0.00    +0.052 C 
ENDROOT
BRANCH   8  22
ATOM     22  O   UNL     1       3.087  -6.242  26.684  0.00  0.00    -0.495 OA
ATOM     23  C   UNL     1       2.525  -6.770  25.511  0.00  0.00    +0.277 C 
ENDBRANCH   8  22
BRANCH  13  24
ATOM     24  O   UNL     1       5.953  -2.281  22.311  0.00  0.00    -0.388 OA
ATOM     25  H   UNL     1       6.101  -2.260  21.343  0.00  0.00    +0.210 HD
ENDBRANCH  13  24
BRANCH  14  26
ATOM     26  O   UNL     1       9.472  -2.413  23.274  0.00  0.00    -0.381 OA
ATOM     27  H   UNL     1       9.169  -2.432  24.196  0.00  0.00    +0.210 HD
ENDBRANCH  14  26
BRANCH  19  28
ATOM     28  O   UNL     1       7.814  -6.008  27.546  0.00  0.00    -0.506 OA
ATOM     29  H   UNL     1       7.632  -6.490  28.385  0.00  0.00    +0.292 HD
ENDBRANCH  19  28
TORSDOF 4
ENDMDL
MODEL 8
REMARK VINA RESULT:      -6.8      2.804      4.486
REMARK  Name = 
REMARK  6 active torsions:
REMARK  status: ('A' for Active; 'I' for Inactive)
REMARK    1  A    between atoms: C_2  and  C_3
REMARK    2  A    between atoms: C_9  and  O_11
REMARK    3  A    between atoms: C_12  and  O_14
REMARK    4  A    between atoms: C_20  and  O_21
REMARK    5  A    between atoms: O_21  and  C_22
REMARK    6  A    between atoms: C_24  and  O_25
REMARK                            x       y       z     vdW  Elec       q    Type
REMARK                         _______ _______ _______ _____ _____    ______ ____
ROOT
ATOM      1  C   UNL     1       7.104  -1.818  26.675  0.00  0.00    +0.177 C 
ATOM      2  O   UNL     1       6.318  -2.941  25.865  0.00  0.00    -0.458 OA
ATOM      3  C   UNL     1       5.914  -4.248  26.362  0.00  0.00    +0.344 C 
ATOM      4  O   UNL     1       6.317  -4.608  27.466  0.00  0.00    -0.245 OA
ATOM      5  C   UNL     1       4.809  -5.220  25.546  0.00  0.00    +0.108 A 
ATOM      6  C   UNL     1       4.600  -5.152  24.157  0.00  0.00    -0.004 A 
ATOM      7  C   UNL     1       3.329  -5.435  23.591  0.00  0.00    +0.054 A 
ATOM      8  C   UNL     1       2.515  -6.461  24.141  0.00  0.00    +0.124 A 
ATOM      9  C   UNL     1       2.975  -6.986  25.337  0.00  0.00    +0.091 A 
ATOM     10  C   UNL     1       5.582  -6.146  23.489  0.00  0.00    +0.005 C 
ATOM     11  C   UNL     1       6.184  -5.771  22.354  0.00  0.00    -0.024 C 
ATOM     12  C   UNL     1       7.568  -5.272  22.629  0.00  0.00    +0.061 C 
ATOM     13  C   UNL     1       7.356  -3.801  23.028  0.00  0.00    +0.154 C 
ATOM     14  C   UNL     1       8.660  -3.184  23.484  0.00  0.00    +0.213 C 
ATOM     15  C   UNL     1       8.497  -1.645  23.492  0.00  0.00    +0.187 C 
ATOM     16  O   UNL     1       7.500  -1.017  23.125  0.00  0.00    -0.290 OA
ATOM     17  C   UNL     1       9.661  -0.912  24.098  0.00  0.00    +0.045 C 
ATOM     18  C   UNL     1       9.090  -0.462  25.221  0.00  0.00    -0.020 C 
ATOM     19  C   UNL     1       4.148  -6.418  26.005  0.00  0.00    +0.135 A 
ATOM     20  C   UNL     1       8.658  -1.353  26.409  0.00  0.00    +0.071 C 
ATOM     21  C   UNL     1       6.316  -0.479  26.690  0.00  0.00    +0.052 C 
ENDROOT
BRANCH   8  22
ATOM     22  O   UNL     1       1.537  -6.855  23.304  0.00  0.00    -0.495 OA
ATOM     23  C   UNL     1       0.752  -5.990  22.526  0.00  0.00    +0.277 C 
ENDBRANCH   8  22
BRANCH  13  24
ATOM     24  O   UNL     1       6.733  -3.088  21.953  0.00  0.00    -0.388 OA
ATOM     25  H   UNL     1       6.273  -3.777  21.431  0.00  0.00    +0.210 HD
ENDBRANCH  13  24
BRANCH  14  26
ATOM     26  O   UNL     1       8.990  -3.782  24.738  0.00  0.00    -0.381 OA
ATOM     27  H   UNL     1       8.872  -3.136  25.453  0.00  0.00    +0.210 HD
ENDBRANCH  14  26
BRANCH  19  28
ATOM     28  O   UNL     1       4.855  -7.355  26.751  0.00  0.00    -0.506 OA
ATOM     29  H   UNL     1       4.995  -6.941  27.634  0.00  0.00    +0.292 HD
ENDBRANCH  19  28
TORSDOF 4
ENDMDL
MODEL 9
REMARK VINA RESULT:      -6.7      2.183      6.952
REMARK  Name = 
REMARK  6 active torsions:
REMARK  status: ('A' for Active; 'I' for Inactive)
REMARK    1  A    between atoms: C_2  and  C_3
REMARK    2  A    between atoms: C_9  and  O_11
REMARK    3  A    between atoms: C_12  and  O_14
REMARK    4  A    between atoms: C_20  and  O_21
REMARK    5  A    between atoms: O_21  and  C_22
REMARK    6  A    between atoms: C_24  and  O_25
REMARK                            x       y       z     vdW  Elec       q    Type
REMARK                         _______ _______ _______ _____ _____    ______ ____
ROOT
ATOM      1  C   UNL     1       5.587  -5.588  23.977  0.00  0.00    +0.177 C 
ATOM      2  O   UNL     1       6.259  -4.150  23.851  0.00  0.00    -0.458 OA
ATOM      3  C   UNL     1       7.663  -3.870  23.588  0.00  0.00    +0.344 C 
ATOM      4  O   UNL     1       8.461  -4.804  23.592  0.00  0.00    -0.245 OA
ATOM      5  C   UNL     1       8.208  -2.340  23.146  0.00  0.00    +0.108 A 
ATOM      6  C   UNL     1       7.539  -1.152  23.494  0.00  0.00    -0.004 A 
ATOM      7  C   UNL     1       7.582  -0.012  22.650  0.00  0.00    +0.054 A 
ATOM      8  C   UNL     1       8.769   0.307  21.938  0.00  0.00    +0.124 A 
ATOM      9  C   UNL     1       9.754  -0.665  21.993  0.00  0.00    +0.091 A 
ATOM     10  C   UNL     1       8.106  -0.681  24.857  0.00  0.00    +0.005 C 
ATOM     11  C   UNL     1       7.250  -0.184  25.757  0.00  0.00    -0.024 C 
ATOM     12  C   UNL     1       6.883  -1.224  26.768  0.00  0.00    +0.061 C 
ATOM     13  C   UNL     1       5.747  -2.010  26.091  0.00  0.00    +0.154 C 
ATOM     14  C   UNL     1       5.355  -3.204  26.933  0.00  0.00    +0.213 C 
ATOM     15  C   UNL     1       3.983  -3.724  26.439  0.00  0.00    +0.187 C 
ATOM     16  O   UNL     1       3.288  -3.215  25.556  0.00  0.00    -0.290 OA
ATOM     17  C   UNL     1       3.559  -5.020  27.071  0.00  0.00    +0.045 C 
ATOM     18  C   UNL     1       3.669  -5.837  26.017  0.00  0.00    -0.020 C 
ATOM     19  C   UNL     1       9.504  -1.953  22.645  0.00  0.00    +0.135 A 
ATOM     20  C   UNL     1       5.004  -6.257  25.363  0.00  0.00    +0.071 C 
ATOM     21  C   UNL     1       4.416  -5.753  22.970  0.00  0.00    +0.052 C 
ENDROOT
BRANCH   8  22
ATOM     22  O   UNL     1       8.782   1.575  21.487  0.00  0.00    -0.495 OA
ATOM     23  C   UNL     1       7.934   2.595  21.943  0.00  0.00    +0.277 C 
ENDBRANCH   8  22
BRANCH  13  24
ATOM     24  O   UNL     1       4.652  -1.134  25.802  0.00  0.00    -0.388 OA
ATOM     25  H   UNL     1       4.582  -0.553  26.588  0.00  0.00    +0.210 HD
ENDBRANCH  13  24
BRANCH  14  26
ATOM     26  O   UNL     1       6.435  -4.136  26.865  0.00  0.00    -0.381 OA
ATOM     27  H   UNL     1       7.259  -3.670  26.649  0.00  0.00    +0.210 HD
ENDBRANCH  14  26
BRANCH  19  28
ATOM     28  O   UNL     1      10.653  -2.517  23.190  0.00  0.00    -0.506 OA
ATOM     29  H   UNL     1      11.116  -2.955  22.438  0.00  0.00    +0.292 HD
ENDBRANCH  19  28
TORSDOF 4
ENDMDL
