MODEL 1
REMARK VINA RESULT:      -7.2      0.000      0.000
REMARK  Name = 
REMARK  10 active torsions:
REMARK  status: ('A' for Active; 'I' for Inactive)
REMARK    1  A    between atoms: C_1  and  C_2
REMARK    2  A    between atoms: C_2  and  C_3
REMARK    3  A    between atoms: C_2  and  O_4
REMARK    4  A    between atoms: C_2  and  C_23
REMARK    5  A    between atoms: O_4  and  C_5
REMARK    6  A    between atoms: C_8  and  C_9
REMARK    7  A    between atoms: C_9  and  C_10
REMARK    8  A    between atoms: C_10  and  N_11
REMARK    9  A    between atoms: C_12  and  C_14
REMARK   10  A    between atoms: C_23  and  O_24
REMARK                            x       y       z     vdW  Elec       q    Type
REMARK                         _______ _______ _______ _____ _____    ______ ____
ROOT
ATOM      1  C   UNL     1      10.067   2.509  23.298  0.00  0.00    +0.122 A 
ATOM      2  C   UNL     1      10.398   1.669  24.355  0.00  0.00    +0.046 A 
ATOM      3  C   UNL     1      10.431   0.282  24.169  0.00  0.00    +0.007 A 
ATOM      4  C   UNL     1      10.199  -0.284  22.907  0.00  0.00    -0.046 A 
ATOM      5  C   UNL     1       9.942   0.579  21.836  0.00  0.00    +0.007 A 
ATOM      6  C   UNL     1       9.891   1.960  22.030  0.00  0.00    +0.046 A 
ENDROOT
BRANCH   1   7
ATOM      7  O   UNL     1       9.909   3.860  23.359  0.00  0.00    -0.475 OA
BRANCH   7   9
ATOM      8  C   UNL     1       7.421   3.895  22.880  0.00  0.00    +0.067 C 
ATOM      9  C   UNL     1       8.628   4.473  23.634  0.00  0.00    +0.200 C 
ATOM     10  C   UNL     1       8.423   4.551  25.146  0.00  0.00    +0.067 C 
BRANCH   9  11
ATOM     11  C   UNL     1       8.772   5.929  23.132  0.00  0.00    +0.348 C 
ATOM     12  O   UNL     1       9.401   6.805  23.712  0.00  0.00    -0.247 OA
BRANCH  11  13
ATOM     13  O   UNL     1       8.131   6.166  21.959  0.00  0.00    -0.478 OA
ATOM     14  H   UNL     1       8.293   5.413  21.349  0.00  0.00    +0.295 HD
ENDBRANCH  11  13
ENDBRANCH   9  11
ENDBRANCH   7   9
ENDBRANCH   1   7
BRANCH   4  15
ATOM     15  C   UNL     1      10.152  -1.790  22.758  0.00  0.00    +0.054 C 
BRANCH  15  16
ATOM     16  C   UNL     1       9.745  -2.549  24.026  0.00  0.00    +0.109 C 
BRANCH  16  17
ATOM     17  N   UNL     1       8.475  -3.232  23.878  0.00  0.00    -0.311 N 
ATOM     18  H   UNL     1       7.643  -2.669  23.775  0.00  0.00    +0.149 HD
ATOM     19  C   UNL     1       8.364  -4.586  24.137  0.00  0.00    +0.244 C 
ATOM     20  O   UNL     1       9.306  -5.300  24.449  0.00  0.00    -0.270 OA
BRANCH  19  21
ATOM     21  C   UNL     1       6.989  -5.150  24.064  0.00  0.00    +0.037 A 
ATOM     22  C   UNL     1       6.424  -5.367  22.801  0.00  0.00    +0.014 A 
ATOM     23  C   UNL     1       5.139  -5.907  22.690  0.00  0.00    +0.021 A 
ATOM     24  C   UNL     1       4.419  -6.216  23.843  0.00  0.00    +0.041 A 
ATOM     25 CL   UNL     1       2.837  -6.879  23.712  0.00  0.00    -0.084 Cl
ATOM     26  C   UNL     1       4.968  -5.987  25.105  0.00  0.00    +0.021 A 
ATOM     27  C   UNL     1       6.253  -5.450  25.219  0.00  0.00    +0.014 A 
ENDBRANCH  19  21
ENDBRANCH  16  17
ENDBRANCH  15  16
ENDBRANCH   4  15
TORSDOF 8
ENDMDL
MODEL 2
REMARK VINA RESULT:      -6.9      1.389      1.672
REMARK  Name = 
REMARK  10 active torsions:
REMARK  status: ('A' for Active; 'I' for Inactive)
REMARK    1  A    between atoms: C_1  and  C_2
REMARK    2  A    between atoms: C_2  and  C_3
REMARK    3  A    between atoms: C_2  and  O_4
REMARK    4  A    between atoms: C_2  and  C_23
REMARK    5  A    between atoms: O_4  and  C_5
REMARK    6  A    between atoms: C_8  and  C_9
REMARK    7  A    between atoms: C_9  and  C_10
REMARK    8  A    between atoms: C_10  and  N_11
REMARK    9  A    between atoms: C_12  and  C_14
REMARK   10  A    between atoms: C_23  and  O_24
REMARK                            x       y       z     vdW  Elec       q    Type
REMARK                         _______ _______ _______ _____ _____    ______ ____
ROOT
ATOM      1  C   UNL     1      10.084   2.414  23.384  0.00  0.00    +0.122 A 
ATOM      2  C   UNL     1      10.333   1.518  24.417  0.00  0.00    +0.046 A 
ATOM      3  C   UNL     1      10.301   0.139  24.177  0.00  0.00    +0.007 A 
ATOM      4  C   UNL     1      10.085  -0.365  22.887  0.00  0.00    -0.046 A 
ATOM      5  C   UNL     1       9.910   0.550  21.843  0.00  0.00    +0.007 A 
ATOM      6  C   UNL     1       9.924   1.924  22.090  0.00  0.00    +0.046 A 
ENDROOT
BRANCH   1   7
ATOM      7  O   UNL     1       9.994   3.768  23.493  0.00  0.00    -0.475 OA
BRANCH   7   9
ATOM      8  C   UNL     1       7.528   3.946  22.942  0.00  0.00    +0.067 C 
ATOM      9  C   UNL     1       8.737   4.437  23.750  0.00  0.00    +0.200 C 
ATOM     10  C   UNL     1       8.489   4.479  25.257  0.00  0.00    +0.067 C 
BRANCH   9  11
ATOM     11  C   UNL     1       8.971   5.899  23.300  0.00  0.00    +0.348 C 
ATOM     12  O   UNL     1       9.730   6.683  23.854  0.00  0.00    -0.247 OA
BRANCH  11  13
ATOM     13  O   UNL     1       8.250   6.253  22.206  0.00  0.00    -0.478 OA
ATOM     14  H   UNL     1       7.425   5.719  22.182  0.00  0.00    +0.295 HD
ENDBRANCH  11  13
ENDBRANCH   9  11
ENDBRANCH   7   9
ENDBRANCH   1   7
BRANCH   4  15
ATOM     15  C   UNL     1       9.965  -1.860  22.676  0.00  0.00    +0.054 C 
BRANCH  15  16
ATOM     16  C   UNL     1       8.563  -2.345  22.292  0.00  0.00    +0.109 C 
BRANCH  16  17
ATOM     17  N   UNL     1       7.893  -3.023  23.385  0.00  0.00    -0.311 N 
ATOM     18  H   UNL     1       8.012  -2.652  24.317  0.00  0.00    +0.149 HD
ATOM     19  C   UNL     1       7.335  -4.275  23.207  0.00  0.00    +0.244 C 
ATOM     20  O   UNL     1       7.317  -4.867  22.138  0.00  0.00    -0.270 OA
BRANCH  19  21
ATOM     21  C   UNL     1       6.778  -4.917  24.428  0.00  0.00    +0.037 A 
ATOM     22  C   UNL     1       5.612  -5.685  24.305  0.00  0.00    +0.014 A 
ATOM     23  C   UNL     1       5.065  -6.314  25.427  0.00  0.00    +0.021 A 
ATOM     24  C   UNL     1       5.678  -6.163  26.670  0.00  0.00    +0.041 A 
ATOM     25 CL   UNL     1       5.006  -6.933  28.054  0.00  0.00    -0.084 Cl
ATOM     26  C   UNL     1       6.828  -5.385  26.804  0.00  0.00    +0.021 A 
ATOM     27  C   UNL     1       7.380  -4.758  25.684  0.00  0.00    +0.014 A 
ENDBRANCH  19  21
ENDBRANCH  16  17
ENDBRANCH  15  16
ENDBRANCH   4  15
TORSDOF 8
ENDMDL
MODEL 3
REMARK VINA RESULT:      -6.9      4.033      9.540
REMARK  Name = 
REMARK  10 active torsions:
REMARK  status: ('A' for Active; 'I' for Inactive)
REMARK    1  A    between atoms: C_1  and  C_2
REMARK    2  A    between atoms: C_2  and  C_3
REMARK    3  A    between atoms: C_2  and  O_4
REMARK    4  A    between atoms: C_2  and  C_23
REMARK    5  A    between atoms: O_4  and  C_5
REMARK    6  A    between atoms: C_8  and  C_9
REMARK    7  A    between atoms: C_9  and  C_10
REMARK    8  A    between atoms: C_10  and  N_11
REMARK    9  A    between atoms: C_12  and  C_14
REMARK   10  A    between atoms: C_23  and  O_24
REMARK                            x       y       z     vdW  Elec       q    Type
REMARK                         _______ _______ _______ _____ _____    ______ ____
ROOT
ATOM      1  C   UNL     1       7.298  -5.148  25.076  0.00  0.00    +0.122 A 
ATOM      2  C   UNL     1       6.734  -5.030  23.812  0.00  0.00    +0.046 A 
ATOM      3  C   UNL     1       7.196  -4.053  22.921  0.00  0.00    +0.007 A 
ATOM      4  C   UNL     1       8.275  -3.222  23.256  0.00  0.00    -0.046 A 
ATOM      5  C   UNL     1       8.882  -3.403  24.504  0.00  0.00    +0.007 A 
ATOM      6  C   UNL     1       8.406  -4.366  25.396  0.00  0.00    +0.046 A 
ENDROOT
BRANCH   1   7
ATOM      7  O   UNL     1       6.890  -5.986  26.068  0.00  0.00    -0.475 OA
BRANCH   7   9
ATOM      8  C   UNL     1       5.109  -4.374  26.874  0.00  0.00    +0.067 C 
ATOM      9  C   UNL     1       5.624  -5.815  26.746  0.00  0.00    +0.200 C 
ATOM     10  C   UNL     1       4.599  -6.779  26.149  0.00  0.00    +0.067 C 
BRANCH   9  11
ATOM     11  C   UNL     1       5.885  -6.292  28.194  0.00  0.00    +0.348 C 
ATOM     12  O   UNL     1       5.683  -7.429  28.599  0.00  0.00    -0.247 OA
BRANCH  11  13
ATOM     13  O   UNL     1       6.377  -5.321  29.006  0.00  0.00    -0.478 OA
ATOM     14  H   UNL     1       7.335  -5.203  28.819  0.00  0.00    +0.295 HD
ENDBRANCH  11  13
ENDBRANCH   9  11
ENDBRANCH   7   9
ENDBRANCH   1   7
BRANCH   4  15
ATOM     15  C   UNL     1       8.692  -2.117  22.310  0.00  0.00    +0.054 C 
BRANCH  15  16
ATOM     16  C   UNL     1       9.968  -1.371  22.715  0.00  0.00    +0.109 C 
BRANCH  16  17
ATOM     17  N   UNL     1       9.748   0.052  22.887  0.00  0.00    -0.311 N 
ATOM     18  H   UNL     1       9.488   0.592  22.074  0.00  0.00    +0.149 HD
ATOM     19  C   UNL     1      10.137   0.694  24.048  0.00  0.00    +0.244 C 
ATOM     20  O   UNL     1      10.632   0.125  25.009  0.00  0.00    -0.270 OA
BRANCH  19  21
ATOM     21  C   UNL     1       9.965   2.172  24.060  0.00  0.00    +0.037 A 
ATOM     22  C   UNL     1      10.969   2.965  23.489  0.00  0.00    +0.014 A 
ATOM     23  C   UNL     1      10.838   4.357  23.471  0.00  0.00    +0.021 A 
ATOM     24  C   UNL     1       9.710   4.952  24.034  0.00  0.00    +0.041 A 
ATOM     25 CL   UNL     1       9.546   6.664  24.015  0.00  0.00    -0.084 Cl
ATOM     26  C   UNL     1       8.714   4.170  24.621  0.00  0.00    +0.021 A 
ATOM     27  C   UNL     1       8.840   2.778  24.638  0.00  0.00    +0.014 A 
ENDBRANCH  19  21
ENDBRANCH  16  17
ENDBRANCH  15  16
ENDBRANCH   4  15
TORSDOF 8
ENDMDL
MODEL 4
REMARK VINA RESULT:      -6.8      3.221      7.793
REMARK  Name = 
REMARK  10 active torsions:
REMARK  status: ('A' for Active; 'I' for Inactive)
REMARK    1  A    between atoms: C_1  and  C_2
REMARK    2  A    between atoms: C_2  and  C_3
REMARK    3  A    between atoms: C_2  and  O_4
REMARK    4  A    between atoms: C_2  and  C_23
REMARK    5  A    between atoms: O_4  and  C_5
REMARK    6  A    between atoms: C_8  and  C_9
REMARK    7  A    between atoms: C_9  and  C_10
REMARK    8  A    between atoms: C_10  and  N_11
REMARK    9  A    between atoms: C_12  and  C_14
REMARK   10  A    between atoms: C_23  and  O_24
REMARK                            x       y       z     vdW  Elec       q    Type
REMARK                         _______ _______ _______ _____ _____    ______ ____
ROOT
ATOM      1  C   UNL     1       9.819  -2.178  23.390  0.00  0.00    +0.122 A 
ATOM      2  C   UNL     1       9.276  -1.928  22.135  0.00  0.00    +0.046 A 
ATOM      3  C   UNL     1       9.231  -0.622  21.633  0.00  0.00    +0.007 A 
ATOM      4  C   UNL     1       9.789   0.447  22.349  0.00  0.00    -0.046 A 
ATOM      5  C   UNL     1      10.399   0.169  23.577  0.00  0.00    +0.007 A 
ATOM      6  C   UNL     1      10.425  -1.132  24.083  0.00  0.00    +0.046 A 
ENDROOT
BRANCH   1   7
ATOM      7  O   UNL     1       9.845  -3.376  24.035  0.00  0.00    -0.475 OA
BRANCH   7   9
ATOM      8  C   UNL     1       7.673  -2.921  25.258  0.00  0.00    +0.067 C 
ATOM      9  C   UNL     1       8.672  -3.931  24.674  0.00  0.00    +0.200 C 
ATOM     10  C   UNL     1       8.029  -4.956  23.741  0.00  0.00    +0.067 C 
BRANCH   9  11
ATOM     11  C   UNL     1       9.220  -4.720  25.886  0.00  0.00    +0.348 C 
ATOM     12  O   UNL     1       8.761  -4.659  27.020  0.00  0.00    -0.247 OA
BRANCH  11  13
ATOM     13  O   UNL     1      10.279  -5.514  25.585  0.00  0.00    -0.478 OA
ATOM     14  H   UNL     1      11.109  -5.013  25.746  0.00  0.00    +0.295 HD
ENDBRANCH  11  13
ENDBRANCH   9  11
ENDBRANCH   7   9
ENDBRANCH   1   7
BRANCH   4  15
ATOM     15  C   UNL     1       9.644   1.859  21.822  0.00  0.00    +0.054 C 
BRANCH  15  16
ATOM     16  C   UNL     1       8.347   2.567  22.230  0.00  0.00    +0.109 C 
BRANCH  16  17
ATOM     17  N   UNL     1       7.887   2.167  23.545  0.00  0.00    -0.311 N 
ATOM     18  H   UNL     1       7.144   1.485  23.600  0.00  0.00    +0.149 HD
ATOM     19  C   UNL     1       8.255   2.879  24.672  0.00  0.00    +0.244 C 
ATOM     20  O   UNL     1       9.013   3.837  24.656  0.00  0.00    -0.270 OA
BRANCH  19  21
ATOM     21  C   UNL     1       7.627   2.442  25.949  0.00  0.00    +0.037 A 
ATOM     22  C   UNL     1       7.479   1.069  26.184  0.00  0.00    +0.014 A 
ATOM     23  C   UNL     1       6.905   0.619  27.377  0.00  0.00    +0.021 A 
ATOM     24  C   UNL     1       6.470   1.544  28.325  0.00  0.00    +0.041 A 
ATOM     25 CL   UNL     1       5.762   0.994  29.793  0.00  0.00    -0.084 Cl
ATOM     26  C   UNL     1       6.598   2.913  28.091  0.00  0.00    +0.021 A 
ATOM     27  C   UNL     1       7.174   3.366  26.901  0.00  0.00    +0.014 A 
ENDBRANCH  19  21
ENDBRANCH  16  17
ENDBRANCH  15  16
ENDBRANCH   4  15
TORSDOF 8
ENDMDL
MODEL 5
REMARK VINA RESULT:      -6.6      3.421      8.452
REMARK  Name = 
REMARK  10 active torsions:
REMARK  status: ('A' for Active; 'I' for Inactive)
REMARK    1  A    between atoms: C_1  and  C_2
REMARK    2  A    between atoms: C_2  and  C_3
REMARK    3  A    between atoms: C_2  and  O_4
REMARK    4  A    between atoms: C_2  and  C_23
REMARK    5  A    between atoms: O_4  and  C_5
REMARK    6  A    between atoms: C_8  and  C_9
REMARK    7  A    between atoms: C_9  and  C_10
REMARK    8  A    between atoms: C_10  and  N_11
REMARK    9  A    between atoms: C_12  and  C_14
REMARK   10  A    between atoms: C_23  and  O_24
REMARK                            x       y       z     vdW  Elec       q    Type
REMARK                         _______ _______ _______ _____ _____    ______ ____
ROOT
ATOM      1  C   UNL     1       8.253  -3.130  23.564  0.00  0.00    +0.122 A 
ATOM      2  C   UNL     1       8.103  -2.684  24.872  0.00  0.00    +0.046 A 
ATOM      3  C   UNL     1       8.812  -1.564  25.320  0.00  0.00    +0.007 A 
ATOM      4  C   UNL     1       9.632  -0.832  24.450  0.00  0.00    -0.046 A 
ATOM      5  C   UNL     1       9.715  -1.249  23.116  0.00  0.00    +0.007 A 
ATOM      6  C   UNL     1       9.020  -2.377  22.678  0.00  0.00    +0.046 A 
ENDROOT
BRANCH   1   7
ATOM      7  O   UNL     1       7.698  -4.250  23.024  0.00  0.00    -0.475 OA
BRANCH   7   9
ATOM      8  C   UNL     1       5.500  -5.035  24.011  0.00  0.00    +0.067 C 
ATOM      9  C   UNL     1       6.269  -4.392  22.847  0.00  0.00    +0.200 C 
ATOM     10  C   UNL     1       5.684  -3.056  22.392  0.00  0.00    +0.067 C 
BRANCH   9  11
ATOM     11  C   UNL     1       6.115  -5.370  21.659  0.00  0.00    +0.348 C 
ATOM     12  O   UNL     1       5.920  -5.029  20.499  0.00  0.00    -0.247 OA
BRANCH  11  13
ATOM     13  O   UNL     1       6.221  -6.676  22.011  0.00  0.00    -0.478 OA
ATOM     14  H   UNL     1       6.952  -7.087  21.499  0.00  0.00    +0.295 HD
ENDBRANCH  11  13
ENDBRANCH   9  11
ENDBRANCH   7   9
ENDBRANCH   1   7
BRANCH   4  15
ATOM     15  C   UNL     1      10.457   0.319  24.986  0.00  0.00    +0.054 C 
BRANCH  15  16
ATOM     16  C   UNL     1      10.688   1.463  23.993  0.00  0.00    +0.109 C 
BRANCH  16  17
ATOM     17  N   UNL     1       9.525   2.318  23.851  0.00  0.00    -0.311 N 
ATOM     18  H   UNL     1       9.116   2.703  24.690  0.00  0.00    +0.149 HD
ATOM     19  C   UNL     1       8.840   2.390  22.652  0.00  0.00    +0.244 C 
ATOM     20  O   UNL     1       9.179   1.800  21.637  0.00  0.00    -0.270 OA
BRANCH  19  21
ATOM     21  C   UNL     1       7.598   3.210  22.663  0.00  0.00    +0.037 A 
ATOM     22  C   UNL     1       6.368   2.560  22.497  0.00  0.00    +0.014 A 
ATOM     23  C   UNL     1       5.179   3.294  22.513  0.00  0.00    +0.021 A 
ATOM     24  C   UNL     1       5.224   4.677  22.684  0.00  0.00    +0.041 A 
ATOM     25 CL   UNL     1       3.762   5.584  22.703  0.00  0.00    -0.084 Cl
ATOM     26  C   UNL     1       6.446   5.334  22.832  0.00  0.00    +0.021 A 
ATOM     27  C   UNL     1       7.636   4.603  22.819  0.00  0.00    +0.014 A 
ENDBRANCH  19  21
ENDBRANCH  16  17
ENDBRANCH  15  16
ENDBRANCH   4  15
TORSDOF 8
ENDMDL
MODEL 6
REMARK VINA RESULT:      -6.5      3.792      8.778
REMARK  Name = 
REMARK  10 active torsions:
REMARK  status: ('A' for Active; 'I' for Inactive)
REMARK    1  A    between atoms: C_1  and  C_2
REMARK    2  A    between atoms: C_2  and  C_3
REMARK    3  A    between atoms: C_2  and  O_4
REMARK    4  A    between atoms: C_2  and  C_23
REMARK    5  A    between atoms: O_4  and  C_5
REMARK    6  A    between atoms: C_8  and  C_9
REMARK    7  A    between atoms: C_9  and  C_10
REMARK    8  A    between atoms: C_10  and  N_11
REMARK    9  A    between atoms: C_12  and  C_14
REMARK   10  A    between atoms: C_23  and  O_24
REMARK                            x       y       z     vdW  Elec       q    Type
REMARK                         _______ _______ _______ _____ _____    ______ ____
ROOT
ATOM      1  C   UNL     1       9.184  -2.489  24.760  0.00  0.00    +0.122 A 
ATOM      2  C   UNL     1       8.897  -1.458  25.646  0.00  0.00    +0.046 A 
ATOM      3  C   UNL     1       9.333  -0.155  25.377  0.00  0.00    +0.007 A 
ATOM      4  C   UNL     1      10.006   0.150  24.185  0.00  0.00    -0.046 A 
ATOM      5  C   UNL     1      10.221  -0.885  23.268  0.00  0.00    +0.007 A 
ATOM      6  C   UNL     1       9.801  -2.186  23.549  0.00  0.00    +0.046 A 
ENDROOT
BRANCH   1   7
ATOM      7  O   UNL     1       8.902  -3.809  24.939  0.00  0.00    -0.475 OA
BRANCH   7   9
ATOM      8  C   UNL     1       6.458  -3.370  24.431  0.00  0.00    +0.067 C 
ATOM      9  C   UNL     1       7.609  -4.371  24.610  0.00  0.00    +0.200 C 
ATOM     10  C   UNL     1       7.766  -5.338  23.438  0.00  0.00    +0.067 C 
BRANCH   9  11
ATOM     11  C   UNL     1       7.227  -5.226  25.841  0.00  0.00    +0.348 C 
ATOM     12  O   UNL     1       6.091  -5.343  26.280  0.00  0.00    -0.247 OA
BRANCH  11  13
ATOM     13  O   UNL     1       8.283  -5.860  26.411  0.00  0.00    -0.478 OA
ATOM     14  H   UNL     1       8.200  -6.826  26.251  0.00  0.00    +0.295 HD
ENDBRANCH  11  13
ENDBRANCH   9  11
ENDBRANCH   7   9
ENDBRANCH   1   7
BRANCH   4  15
ATOM     15  C   UNL     1      10.544   1.548  23.964  0.00  0.00    +0.054 C 
BRANCH  15  16
ATOM     16  C   UNL     1      10.231   2.147  22.589  0.00  0.00    +0.109 C 
BRANCH  16  17
ATOM     17  N   UNL     1       9.168   3.131  22.643  0.00  0.00    -0.311 N 
ATOM     18  H   UNL     1       9.294   3.932  23.245  0.00  0.00    +0.149 HD
ATOM     19  C   UNL     1       7.923   2.860  22.106  0.00  0.00    +0.244 C 
ATOM     20  O   UNL     1       7.645   1.826  21.518  0.00  0.00    -0.270 OA
BRANCH  19  21
ATOM     21  C   UNL     1       6.882   3.901  22.324  0.00  0.00    +0.037 A 
ATOM     22  C   UNL     1       5.567   3.486  22.573  0.00  0.00    +0.014 A 
ATOM     23  C   UNL     1       4.563   4.434  22.794  0.00  0.00    +0.021 A 
ATOM     24  C   UNL     1       4.875   5.792  22.754  0.00  0.00    +0.041 A 
ATOM     25 CL   UNL     1       3.642   6.961  23.025  0.00  0.00    -0.084 Cl
ATOM     26  C   UNL     1       6.178   6.213  22.489  0.00  0.00    +0.021 A 
ATOM     27  C   UNL     1       7.185   5.269  22.271  0.00  0.00    +0.014 A 
ENDBRANCH  19  21
ENDBRANCH  16  17
ENDBRANCH  15  16
ENDBRANCH   4  15
TORSDOF 8
ENDMDL
MODEL 7
REMARK VINA RESULT:      -6.5      3.793      8.786
REMARK  Name = 
REMARK  10 active torsions:
REMARK  status: ('A' for Active; 'I' for Inactive)
REMARK    1  A    between atoms: C_1  and  C_2
REMARK    2  A    between atoms: C_2  and  C_3
REMARK    3  A    between atoms: C_2  and  O_4
REMARK    4  A    between atoms: C_2  and  C_23
REMARK    5  A    between atoms: O_4  and  C_5
REMARK    6  A    between atoms: C_8  and  C_9
REMARK    7  A    between atoms: C_9  and  C_10
REMARK    8  A    between atoms: C_10  and  N_11
REMARK    9  A    between atoms: C_12  and  C_14
REMARK   10  A    between atoms: C_23  and  O_24
REMARK                            x       y       z     vdW  Elec       q    Type
REMARK                         _______ _______ _______ _____ _____    ______ ____
ROOT
ATOM      1  C   UNL     1       8.662  -3.288  23.701  0.00  0.00    +0.122 A 
ATOM      2  C   UNL     1       7.779  -2.881  22.708  0.00  0.00    +0.046 A 
ATOM      3  C   UNL     1       8.040  -1.724  21.963  0.00  0.00    +0.007 A 
ATOM      4  C   UNL     1       9.220  -0.992  22.155  0.00  0.00    -0.046 A 
ATOM      5  C   UNL     1      10.135  -1.456  23.107  0.00  0.00    +0.007 A 
ATOM      6  C   UNL     1       9.863  -2.600  23.860  0.00  0.00    +0.046 A 
ENDROOT
BRANCH   1   7
ATOM      7  O   UNL     1       8.489  -4.333  24.556  0.00  0.00    -0.475 OA
BRANCH   7   9
ATOM      8  C   UNL     1       7.177  -2.902  26.184  0.00  0.00    +0.067 C 
ATOM      9  C   UNL     1       7.526  -4.294  25.635  0.00  0.00    +0.200 C 
ATOM     10  C   UNL     1       6.303  -5.123  25.248  0.00  0.00    +0.067 C 
BRANCH   9  11
ATOM     11  C   UNL     1       8.213  -5.039  26.803  0.00  0.00    +0.348 C 
ATOM     12  O   UNL     1       7.629  -5.740  27.620  0.00  0.00    -0.247 OA
BRANCH  11  13
ATOM     13  O   UNL     1       9.557  -4.855  26.851  0.00  0.00    -0.478 OA
ATOM     14  H   UNL     1       9.756  -3.909  26.671  0.00  0.00    +0.295 HD
ENDBRANCH  11  13
ENDBRANCH   9  11
ENDBRANCH   7   9
ENDBRANCH   1   7
BRANCH   4  15
ATOM     15  C   UNL     1       9.431   0.303  21.400  0.00  0.00    +0.054 C 
BRANCH  15  16
ATOM     16  C   UNL     1      10.161   1.396  22.188  0.00  0.00    +0.109 C 
BRANCH  16  17
ATOM     17  N   UNL     1       9.263   2.429  22.664  0.00  0.00    -0.311 N 
ATOM     18  H   UNL     1       9.180   3.274  22.116  0.00  0.00    +0.149 HD
ATOM     19  C   UNL     1       8.745   2.385  23.946  0.00  0.00    +0.244 C 
ATOM     20  O   UNL     1       8.954   1.474  24.733  0.00  0.00    -0.270 OA
BRANCH  19  21
ATOM     21  C   UNL     1       7.930   3.559  24.358  0.00  0.00    +0.037 A 
ATOM     22  C   UNL     1       7.814   3.844  25.725  0.00  0.00    +0.014 A 
ATOM     23  C   UNL     1       7.066   4.946  26.151  0.00  0.00    +0.021 A 
ATOM     24  C   UNL     1       6.428   5.752  25.210  0.00  0.00    +0.041 A 
ATOM     25 CL   UNL     1       5.506   7.108  25.730  0.00  0.00    -0.084 Cl
ATOM     26  C   UNL     1       6.524   5.465  23.848  0.00  0.00    +0.021 A 
ATOM     27  C   UNL     1       7.272   4.366  23.418  0.00  0.00    +0.014 A 
ENDBRANCH  19  21
ENDBRANCH  16  17
ENDBRANCH  15  16
ENDBRANCH   4  15
TORSDOF 8
ENDMDL
MODEL 8
REMARK VINA RESULT:      -6.5      1.897      2.754
REMARK  Name = 
REMARK  10 active torsions:
REMARK  status: ('A' for Active; 'I' for Inactive)
REMARK    1  A    between atoms: C_1  and  C_2
REMARK    2  A    between atoms: C_2  and  C_3
REMARK    3  A    between atoms: C_2  and  O_4
REMARK    4  A    between atoms: C_2  and  C_23
REMARK    5  A    between atoms: O_4  and  C_5
REMARK    6  A    between atoms: C_8  and  C_9
REMARK    7  A    between atoms: C_9  and  C_10
REMARK    8  A    between atoms: C_10  and  N_11
REMARK    9  A    between atoms: C_12  and  C_14
REMARK   10  A    between atoms: C_23  and  O_24
REMARK                            x       y       z     vdW  Elec       q    Type
REMARK                         _______ _______ _______ _____ _____    ______ ____
ROOT
ATOM      1  C   UNL     1       9.209   3.588  23.950  0.00  0.00    +0.122 A 
ATOM      2  C   UNL     1       8.088   3.396  23.150  0.00  0.00    +0.046 A 
ATOM      3  C   UNL     1       8.037   2.321  22.254  0.00  0.00    +0.007 A 
ATOM      4  C   UNL     1       9.077   1.383  22.192  0.00  0.00    -0.046 A 
ATOM      5  C   UNL     1      10.165   1.547  23.056  0.00  0.00    +0.007 A 
ATOM      6  C   UNL     1      10.221   2.631  23.934  0.00  0.00    +0.046 A 
ENDROOT
BRANCH   1   7
ATOM      7  O   UNL     1       9.429   4.634  24.793  0.00  0.00    -0.475 OA
BRANCH   7   9
ATOM      8  C   UNL     1       8.896   6.376  23.032  0.00  0.00    +0.067 C 
ATOM      9  C   UNL     1       9.653   5.979  24.308  0.00  0.00    +0.200 C 
ATOM     10  C   UNL     1       9.469   6.965  25.460  0.00  0.00    +0.067 C 
BRANCH   9  11
ATOM     11  C   UNL     1      11.152   6.017  23.929  0.00  0.00    +0.348 C 
ATOM     12  O   UNL     1      12.054   6.327  24.695  0.00  0.00    -0.247 OA
BRANCH  11  13
ATOM     13  O   UNL     1      11.397   5.662  22.642  0.00  0.00    -0.478 OA
ATOM     14  H   UNL     1      11.950   6.357  22.220  0.00  0.00    +0.295 HD
ENDBRANCH  11  13
ENDBRANCH   9  11
ENDBRANCH   7   9
ENDBRANCH   1   7
BRANCH   4  15
ATOM     15  C   UNL     1       9.035   0.284  21.151  0.00  0.00    +0.054 C 
BRANCH  15  16
ATOM     16  C   UNL     1       9.844  -0.968  21.504  0.00  0.00    +0.109 C 
BRANCH  16  17
ATOM     17  N   UNL     1       9.038  -1.987  22.145  0.00  0.00    -0.311 N 
ATOM     18  H   UNL     1       8.234  -2.339  21.645  0.00  0.00    +0.149 HD
ATOM     19  C   UNL     1       9.196  -2.276  23.488  0.00  0.00    +0.244 C 
ATOM     20  O   UNL     1      10.036  -1.750  24.204  0.00  0.00    -0.270 OA
BRANCH  19  21
ATOM     21  C   UNL     1       8.234  -3.256  24.059  0.00  0.00    +0.037 A 
ATOM     22  C   UNL     1       8.726  -4.260  24.904  0.00  0.00    +0.014 A 
ATOM     23  C   UNL     1       7.851  -5.192  25.470  0.00  0.00    +0.021 A 
ATOM     24  C   UNL     1       6.490  -5.126  25.179  0.00  0.00    +0.041 A 
ATOM     25 CL   UNL     1       5.410  -6.272  25.872  0.00  0.00    -0.084 Cl
ATOM     26  C   UNL     1       5.994  -4.141  24.324  0.00  0.00    +0.021 A 
ATOM     27  C   UNL     1       6.865  -3.205  23.760  0.00  0.00    +0.014 A 
ENDBRANCH  19  21
ENDBRANCH  16  17
ENDBRANCH  15  16
ENDBRANCH   4  15
TORSDOF 8
ENDMDL
MODEL 9
REMARK VINA RESULT:      -6.5      3.783      9.408
REMARK  Name = 
REMARK  10 active torsions:
REMARK  status: ('A' for Active; 'I' for Inactive)
REMARK    1  A    between atoms: C_1  and  C_2
REMARK    2  A    between atoms: C_2  and  C_3
REMARK    3  A    between atoms: C_2  and  O_4
REMARK    4  A    between atoms: C_2  and  C_23
REMARK    5  A    between atoms: O_4  and  C_5
REMARK    6  A    between atoms: C_8  and  C_9
REMARK    7  A    between atoms: C_9  and  C_10
REMARK    8  A    between atoms: C_10  and  N_11
REMARK    9  A    between atoms: C_12  and  C_14
REMARK   10  A    between atoms: C_23  and  O_24
REMARK                            x       y       z     vdW  Elec       q    Type
REMARK                         _______ _______ _______ _____ _____    ______ ____
ROOT
ATOM      1  C   UNL     1       6.898  -5.025  23.858  0.00  0.00    +0.122 A 
ATOM      2  C   UNL     1       7.837  -4.977  24.882  0.00  0.00    +0.046 A 
ATOM      3  C   UNL     1       8.905  -4.073  24.818  0.00  0.00    +0.007 A 
ATOM      4  C   UNL     1       9.013  -3.157  23.762  0.00  0.00    -0.046 A 
ATOM      5  C   UNL     1       8.019  -3.166  22.777  0.00  0.00    +0.007 A 
ATOM      6  C   UNL     1       6.967  -4.082  22.835  0.00  0.00    +0.046 A 
ENDROOT
BRANCH   1   7
ATOM      7  O   UNL     1       5.869  -5.909  23.747  0.00  0.00    -0.475 OA
BRANCH   7   9
ATOM      8  C   UNL     1       5.139  -6.501  26.100  0.00  0.00    +0.067 C 
ATOM      9  C   UNL     1       4.788  -5.955  24.708  0.00  0.00    +0.200 C 
ATOM     10  C   UNL     1       4.088  -4.597  24.743  0.00  0.00    +0.067 C 
BRANCH   9  11
ATOM     11  C   UNL     1       3.774  -6.960  24.113  0.00  0.00    +0.348 C 
ATOM     12  O   UNL     1       3.398  -7.981  24.672  0.00  0.00    -0.247 OA
BRANCH  11  13
ATOM     13  O   UNL     1       3.316  -6.607  22.884  0.00  0.00    -0.478 OA
ATOM     14  H   UNL     1       3.511  -7.332  22.251  0.00  0.00    +0.295 HD
ENDBRANCH  11  13
ENDBRANCH   9  11
ENDBRANCH   7   9
ENDBRANCH   1   7
BRANCH   4  15
ATOM     15  C   UNL     1      10.226  -2.255  23.673  0.00  0.00    +0.054 C 
BRANCH  15  16
ATOM     16  C   UNL     1      10.253  -1.332  22.450  0.00  0.00    +0.109 C 
BRANCH  16  17
ATOM     17  N   UNL     1      10.031   0.058  22.800  0.00  0.00    -0.311 N 
ATOM     18  H   UNL     1      10.254   0.350  23.741  0.00  0.00    +0.149 HD
ATOM     19  C   UNL     1       9.297   0.889  21.974  0.00  0.00    +0.244 C 
ATOM     20  O   UNL     1       8.837   0.544  20.896  0.00  0.00    -0.270 OA
BRANCH  19  21
ATOM     21  C   UNL     1       9.039   2.258  22.494  0.00  0.00    +0.037 A 
ATOM     22  C   UNL     1       7.847   2.898  22.129  0.00  0.00    +0.014 A 
ATOM     23  C   UNL     1       7.564   4.180  22.607  0.00  0.00    +0.021 A 
ATOM     24  C   UNL     1       8.479   4.824  23.439  0.00  0.00    +0.041 A 
ATOM     25 CL   UNL     1       8.135   6.404  24.028  0.00  0.00    -0.084 Cl
ATOM     26  C   UNL     1       9.677   4.202  23.793  0.00  0.00    +0.021 A 
ATOM     27  C   UNL     1       9.961   2.919  23.319  0.00  0.00    +0.014 A 
ENDBRANCH  19  21
ENDBRANCH  16  17
ENDBRANCH  15  16
ENDBRANCH   4  15
TORSDOF 8
ENDMDL
