MODEL 1
REMARK VINA RESULT:      -7.7      0.000      0.000
REMARK  Name = 
REMARK  5 active torsions:
REMARK  status: ('A' for Active; 'I' for Inactive)
REMARK    1  A    between atoms: O_1  and  C_2
REMARK    2  A    between atoms: C_2  and  C_4
REMARK    3  A    between atoms: C_4  and  N_5
REMARK    4  A    between atoms: C_7  and  C_8
REMARK    5  A    between atoms: C_8  and  C_9
REMARK                            x       y       z     vdW  Elec       q    Type
REMARK                         _______ _______ _______ _____ _____    ______ ____
ROOT
ATOM      1  N   UNL     1       6.989  -4.038  22.973  0.00  0.00    -0.321 N 
ATOM      2  C   UNL     1       7.199  -4.474  24.254  0.00  0.00    +0.141 A 
ATOM      3  C   UNL     1       8.329  -3.823  24.743  0.00  0.00    +0.022 A 
ATOM      4  C   UNL     1       8.708  -4.102  26.066  0.00  0.00    +0.013 A 
ATOM      5  C   UNL     1       7.933  -5.010  26.789  0.00  0.00    +0.020 A 
ATOM      6  C   UNL     1       6.836  -5.599  26.169  0.00  0.00    +0.113 A 
ATOM      7  C   UNL     1       8.835  -2.998  23.688  0.00  0.00    -0.014 A 
ATOM      8  N   UNL     1       6.428  -5.382  24.892  0.00  0.00    -0.237 NA
ATOM      9  C   UNL     1       8.003  -3.200  22.596  0.00  0.00    +0.093 A 
ENDROOT
BRANCH   1  10
ATOM     10  C   UNL     1       5.828  -4.372  22.171  0.00  0.00    +0.243 C 
BRANCH  10  11
ATOM     11  C   UNL     1       6.020  -5.622  21.361  0.00  0.00    +0.325 C 
ATOM     12  O   UNL     1       6.068  -5.631  20.138  0.00  0.00    -0.249 OA
BRANCH  11  13
ATOM     13  O   UNL     1       6.075  -6.767  22.087  0.00  0.00    -0.479 OA
ATOM     14  H   UNL     1       6.154  -6.614  23.059  0.00  0.00    +0.295 HD
ENDBRANCH  11  13
ENDBRANCH  10  11
ENDBRANCH   1  10
BRANCH   7  15
ATOM     15  C   UNL     1      10.047  -2.118  23.735  0.00  0.00    +0.100 C 
BRANCH  15  16
ATOM     16  C   UNL     1       9.713  -0.669  23.958  0.00  0.00    +0.084 A 
ATOM     17  S   UNL     1       8.421  -0.219  24.997  0.00  0.00    -0.069 S 
ATOM     18  C   UNL     1       8.766   1.445  24.716  0.00  0.00    +0.077 A 
ATOM     19  C   UNL     1       8.142   2.590  25.233  0.00  0.00    +0.142 A 
ATOM     20  C   UNL     1       8.595   3.853  24.860  0.00  0.00    +0.081 A 
ATOM     21  C   UNL     1       9.657   3.965  23.979  0.00  0.00    +0.163 A 
ATOM     22  C   UNL     1      10.286   2.835  23.459  0.00  0.00    +0.185 A 
ATOM     23  F   UNL     1      11.315   2.983  22.610  0.00  0.00    -0.200 F 
ATOM     24  F   UNL     1      10.083   5.187  23.627  0.00  0.00    -0.202 F 
ATOM     25  F   UNL     1       7.116   2.490  26.088  0.00  0.00    -0.204 F 
ATOM     26  C   UNL     1       9.843   1.548  23.830  0.00  0.00    +0.119 A 
ATOM     27  N   UNL     1      10.372   0.333  23.413  0.00  0.00    -0.241 NA
ENDBRANCH  15  16
ENDBRANCH   7  15
TORSDOF 5
ENDMDL
MODEL 2
REMARK VINA RESULT:      -7.6      1.232      2.156
REMARK  Name = 
REMARK  5 active torsions:
REMARK  status: ('A' for Active; 'I' for Inactive)
REMARK    1  A    between atoms: O_1  and  C_2
REMARK    2  A    between atoms: C_2  and  C_4
REMARK    3  A    between atoms: C_4  and  N_5
REMARK    4  A    between atoms: C_7  and  C_8
REMARK    5  A    between atoms: C_8  and  C_9
REMARK                            x       y       z     vdW  Elec       q    Type
REMARK                         _______ _______ _______ _____ _____    ______ ____
ROOT
ATOM      1  N   UNL     1       6.659  -4.575  23.347  0.00  0.00    -0.321 N 
ATOM      2  C   UNL     1       6.628  -4.941  24.666  0.00  0.00    +0.141 A 
ATOM      3  C   UNL     1       7.750  -4.393  25.284  0.00  0.00    +0.022 A 
ATOM      4  C   UNL     1       7.899  -4.620  26.662  0.00  0.00    +0.013 A 
ATOM      5  C   UNL     1       6.921  -5.378  27.307  0.00  0.00    +0.020 A 
ATOM      6  C   UNL     1       5.858  -5.878  26.562  0.00  0.00    +0.113 A 
ATOM      7  C   UNL     1       8.500  -3.710  24.275  0.00  0.00    -0.014 A 
ATOM      8  N   UNL     1       5.667  -5.705  25.229  0.00  0.00    -0.237 NA
ATOM      9  C   UNL     1       7.814  -3.889  23.083  0.00  0.00    +0.093 A 
ENDROOT
BRANCH   1  10
ATOM     10  C   UNL     1       5.591  -4.827  22.400  0.00  0.00    +0.243 C 
BRANCH  10  11
ATOM     11  C   UNL     1       5.977  -5.815  21.336  0.00  0.00    +0.325 C 
ATOM     12  O   UNL     1       5.919  -5.570  20.138  0.00  0.00    -0.249 OA
BRANCH  11  13
ATOM     13  O   UNL     1       6.342  -7.036  21.800  0.00  0.00    -0.479 OA
ATOM     14  H   UNL     1       5.578  -7.631  21.990  0.00  0.00    +0.295 HD
ENDBRANCH  11  13
ENDBRANCH  10  11
ENDBRANCH   1  10
BRANCH   7  15
ATOM     15  C   UNL     1       9.795  -2.976  24.456  0.00  0.00    +0.100 C 
BRANCH  15  16
ATOM     16  C   UNL     1       9.663  -1.492  24.252  0.00  0.00    +0.084 A 
ATOM     17  S   UNL     1      10.378  -0.730  22.888  0.00  0.00    -0.069 S 
ATOM     18  C   UNL     1       9.744   0.788  23.397  0.00  0.00    +0.077 A 
ATOM     19  C   UNL     1       9.853   2.052  22.797  0.00  0.00    +0.142 A 
ATOM     20  C   UNL     1       9.252   3.157  23.395  0.00  0.00    +0.081 A 
ATOM     21  C   UNL     1       8.554   2.996  24.580  0.00  0.00    +0.163 A 
ATOM     22  C   UNL     1       8.437   1.745  25.185  0.00  0.00    +0.185 A 
ATOM     23  F   UNL     1       7.749   1.628  26.331  0.00  0.00    -0.200 F 
ATOM     24  F   UNL     1       7.980   4.067  25.146  0.00  0.00    -0.202 F 
ATOM     25  F   UNL     1      10.525   2.216  21.649  0.00  0.00    -0.204 F 
ATOM     26  C   UNL     1       9.036   0.615  24.589  0.00  0.00    +0.119 A 
ATOM     27  N   UNL     1       8.997  -0.692  25.059  0.00  0.00    -0.241 NA
ENDBRANCH  15  16
ENDBRANCH   7  15
TORSDOF 5
ENDMDL
MODEL 3
REMARK VINA RESULT:      -7.6      2.503      3.481
REMARK  Name = 
REMARK  5 active torsions:
REMARK  status: ('A' for Active; 'I' for Inactive)
REMARK    1  A    between atoms: O_1  and  C_2
REMARK    2  A    between atoms: C_2  and  C_4
REMARK    3  A    between atoms: C_4  and  N_5
REMARK    4  A    between atoms: C_7  and  C_8
REMARK    5  A    between atoms: C_8  and  C_9
REMARK                            x       y       z     vdW  Elec       q    Type
REMARK                         _______ _______ _______ _____ _____    ______ ____
ROOT
ATOM      1  N   UNL     1       6.456  -4.591  26.033  0.00  0.00    -0.321 N 
ATOM      2  C   UNL     1       6.233  -5.146  24.801  0.00  0.00    +0.141 A 
ATOM      3  C   UNL     1       7.300  -4.793  23.978  0.00  0.00    +0.022 A 
ATOM      4  C   UNL     1       7.290  -5.290  22.664  0.00  0.00    +0.013 A 
ATOM      5  C   UNL     1       6.215  -6.092  22.280  0.00  0.00    +0.020 A 
ATOM      6  C   UNL     1       5.207  -6.353  23.202  0.00  0.00    +0.113 A 
ATOM      7  C   UNL     1       8.171  -3.956  24.746  0.00  0.00    -0.014 A 
ATOM      8  N   UNL     1       5.153  -5.891  24.478  0.00  0.00    -0.237 NA
ATOM      9  C   UNL     1       7.585  -3.818  25.996  0.00  0.00    +0.093 A 
ENDROOT
BRANCH   1  10
ATOM     10  C   UNL     1       5.645  -4.846  27.207  0.00  0.00    +0.243 C 
BRANCH  10  11
ATOM     11  C   UNL     1       5.973  -6.154  27.868  0.00  0.00    +0.325 C 
ATOM     12  O   UNL     1       6.886  -6.292  28.672  0.00  0.00    -0.249 OA
BRANCH  11  13
ATOM     13  O   UNL     1       5.214  -7.203  27.461  0.00  0.00    -0.479 OA
ATOM     14  H   UNL     1       5.364  -8.025  27.985  0.00  0.00    +0.295 HD
ENDBRANCH  11  13
ENDBRANCH  10  11
ENDBRANCH   1  10
BRANCH   7  15
ATOM     15  C   UNL     1       9.446  -3.317  24.284  0.00  0.00    +0.100 C 
BRANCH  15  16
ATOM     16  C   UNL     1       9.273  -1.876  23.891  0.00  0.00    +0.084 A 
ATOM     17  S   UNL     1       7.851  -1.355  23.079  0.00  0.00    -0.069 S 
ATOM     18  C   UNL     1       8.440   0.263  23.073  0.00  0.00    +0.077 A 
ATOM     19  C   UNL     1       7.847   1.432  22.572  0.00  0.00    +0.142 A 
ATOM     20  C   UNL     1       8.517   2.648  22.677  0.00  0.00    +0.081 A 
ATOM     21  C   UNL     1       9.766   2.690  23.273  0.00  0.00    +0.163 A 
ATOM     22  C   UNL     1      10.365   1.537  23.776  0.00  0.00    +0.185 A 
ATOM     23  F   UNL     1      11.575   1.618  24.351  0.00  0.00    -0.200 F 
ATOM     24  F   UNL     1      10.400   3.867  23.368  0.00  0.00    -0.202 F 
ATOM     25  F   UNL     1       6.638   1.399  21.996  0.00  0.00    -0.204 F 
ATOM     26  C   UNL     1       9.698   0.297  23.683  0.00  0.00    +0.119 A 
ATOM     27  N   UNL     1      10.154  -0.931  24.146  0.00  0.00    -0.241 NA
ENDBRANCH  15  16
ENDBRANCH   7  15
TORSDOF 5
ENDMDL
MODEL 4
REMARK VINA RESULT:      -7.6      2.930      4.185
REMARK  Name = 
REMARK  5 active torsions:
REMARK  status: ('A' for Active; 'I' for Inactive)
REMARK    1  A    between atoms: O_1  and  C_2
REMARK    2  A    between atoms: C_2  and  C_4
REMARK    3  A    between atoms: C_4  and  N_5
REMARK    4  A    between atoms: C_7  and  C_8
REMARK    5  A    between atoms: C_8  and  C_9
REMARK                            x       y       z     vdW  Elec       q    Type
REMARK                         _______ _______ _______ _____ _____    ______ ____
ROOT
ATOM      1  N   UNL     1       6.125  -5.795  26.667  0.00  0.00    -0.321 N 
ATOM      2  C   UNL     1       5.744  -5.730  25.354  0.00  0.00    +0.141 A 
ATOM      3  C   UNL     1       6.827  -5.251  24.621  0.00  0.00    +0.022 A 
ATOM      4  C   UNL     1       6.661  -5.135  23.231  0.00  0.00    +0.013 A 
ATOM      5  C   UNL     1       5.429  -5.502  22.689  0.00  0.00    +0.020 A 
ATOM      6  C   UNL     1       4.426  -5.951  23.542  0.00  0.00    +0.113 A 
ATOM      7  C   UNL     1       7.882  -4.981  25.549  0.00  0.00    -0.014 A 
ATOM      8  N   UNL     1       4.521  -6.071  24.892  0.00  0.00    -0.237 NA
ATOM      9  C   UNL     1       7.388  -5.286  26.809  0.00  0.00    +0.093 A 
ENDROOT
BRANCH   1  10
ATOM     10  C   UNL     1       5.326  -6.380  27.726  0.00  0.00    +0.243 C 
BRANCH  10  11
ATOM     11  C   UNL     1       6.059  -6.453  29.035  0.00  0.00    +0.325 C 
ATOM     12  O   UNL     1       6.100  -5.528  29.836  0.00  0.00    -0.249 OA
BRANCH  11  13
ATOM     13  O   UNL     1       6.733  -7.612  29.245  0.00  0.00    -0.479 OA
ATOM     14  H   UNL     1       7.709  -7.490  29.335  0.00  0.00    +0.295 HD
ENDBRANCH  11  13
ENDBRANCH  10  11
ENDBRANCH   1  10
BRANCH   7  15
ATOM     15  C   UNL     1       9.243  -4.436  25.234  0.00  0.00    +0.100 C 
BRANCH  15  16
ATOM     16  C   UNL     1       9.218  -2.988  24.830  0.00  0.00    +0.084 A 
ATOM     17  S   UNL     1       8.561  -1.798  25.882  0.00  0.00    -0.069 S 
ATOM     18  C   UNL     1       8.954  -0.567  24.743  0.00  0.00    +0.077 A 
ATOM     19  C   UNL     1       8.758   0.820  24.819  0.00  0.00    +0.142 A 
ATOM     20  C   UNL     1       9.159   1.635  23.763  0.00  0.00    +0.081 A 
ATOM     21  C   UNL     1       9.746   1.065  22.646  0.00  0.00    +0.163 A 
ATOM     22  C   UNL     1       9.948  -0.312  22.559  0.00  0.00    +0.185 A 
ATOM     23  F   UNL     1      10.524  -0.827  21.462  0.00  0.00    -0.200 F 
ATOM     24  F   UNL     1      10.127   1.860  21.636  0.00  0.00    -0.202 F 
ATOM     25  F   UNL     1       8.193   1.380  25.897  0.00  0.00    -0.204 F 
ATOM     26  C   UNL     1       9.552  -1.151  23.622  0.00  0.00    +0.119 A 
ATOM     27  N   UNL     1       9.697  -2.531  23.692  0.00  0.00    -0.241 NA
ENDBRANCH  15  16
ENDBRANCH   7  15
TORSDOF 5
ENDMDL
MODEL 5
REMARK VINA RESULT:      -7.5      2.235      3.733
REMARK  Name = 
REMARK  5 active torsions:
REMARK  status: ('A' for Active; 'I' for Inactive)
REMARK    1  A    between atoms: O_1  and  C_2
REMARK    2  A    between atoms: C_2  and  C_4
REMARK    3  A    between atoms: C_4  and  N_5
REMARK    4  A    between atoms: C_7  and  C_8
REMARK    5  A    between atoms: C_8  and  C_9
REMARK                            x       y       z     vdW  Elec       q    Type
REMARK                         _______ _______ _______ _____ _____    ______ ____
ROOT
ATOM      1  N   UNL     1       5.938  -4.889  25.520  0.00  0.00    -0.321 N 
ATOM      2  C   UNL     1       5.935  -5.208  24.188  0.00  0.00    +0.141 A 
ATOM      3  C   UNL     1       7.171  -4.841  23.661  0.00  0.00    +0.022 A 
ATOM      4  C   UNL     1       7.395  -5.113  22.302  0.00  0.00    +0.013 A 
ATOM      5  C   UNL     1       6.367  -5.721  21.581  0.00  0.00    +0.020 A 
ATOM      6  C   UNL     1       5.175  -6.019  22.231  0.00  0.00    +0.113 A 
ATOM      7  C   UNL     1       7.923  -4.239  24.720  0.00  0.00    -0.014 A 
ATOM      8  N   UNL     1       4.893  -5.770  23.536  0.00  0.00    -0.237 NA
ATOM      9  C   UNL     1       7.103  -4.246  25.840  0.00  0.00    +0.093 A 
ENDROOT
BRANCH   1  10
ATOM     10  C   UNL     1       4.886  -5.244  26.452  0.00  0.00    +0.243 C 
BRANCH  10  11
ATOM     11  C   UNL     1       4.920  -6.694  26.843  0.00  0.00    +0.325 C 
ATOM     12  O   UNL     1       5.642  -7.137  27.727  0.00  0.00    -0.249 OA
BRANCH  11  13
ATOM     13  O   UNL     1       4.126  -7.502  26.096  0.00  0.00    -0.479 OA
ATOM     14  H   UNL     1       3.164  -7.408  26.300  0.00  0.00    +0.295 HD
ENDBRANCH  11  13
ENDBRANCH  10  11
ENDBRANCH   1  10
BRANCH   7  15
ATOM     15  C   UNL     1       9.308  -3.675  24.633  0.00  0.00    +0.100 C 
BRANCH  15  16
ATOM     16  C   UNL     1       9.325  -2.195  24.366  0.00  0.00    +0.084 A 
ATOM     17  S   UNL     1      10.005  -1.575  22.915  0.00  0.00    -0.069 S 
ATOM     18  C   UNL     1       9.587   0.025  23.395  0.00  0.00    +0.077 A 
ATOM     19  C   UNL     1       9.785   1.243  22.727  0.00  0.00    +0.142 A 
ATOM     20  C   UNL     1       9.360   2.431  23.314  0.00  0.00    +0.081 A 
ATOM     21  C   UNL     1       8.749   2.399  24.556  0.00  0.00    +0.163 A 
ATOM     22  C   UNL     1       8.545   1.196  25.230  0.00  0.00    +0.185 A 
ATOM     23  F   UNL     1       7.945   1.205  26.430  0.00  0.00    -0.200 F 
ATOM     24  F   UNL     1       8.345   3.551  25.111  0.00  0.00    -0.202 F 
ATOM     25  F   UNL     1      10.374   1.282  21.524  0.00  0.00    -0.204 F 
ATOM     26  C   UNL     1       8.964  -0.018  24.647  0.00  0.00    +0.119 A 
ATOM     27  N   UNL     1       8.820  -1.292  25.182  0.00  0.00    -0.241 NA
ENDBRANCH  15  16
ENDBRANCH   7  15
TORSDOF 5
ENDMDL
MODEL 6
REMARK VINA RESULT:      -7.3      1.690      2.552
REMARK  Name = 
REMARK  5 active torsions:
REMARK  status: ('A' for Active; 'I' for Inactive)
REMARK    1  A    between atoms: O_1  and  C_2
REMARK    2  A    between atoms: C_2  and  C_4
REMARK    3  A    between atoms: C_4  and  N_5
REMARK    4  A    between atoms: C_7  and  C_8
REMARK    5  A    between atoms: C_8  and  C_9
REMARK                            x       y       z     vdW  Elec       q    Type
REMARK                         _______ _______ _______ _____ _____    ______ ____
ROOT
ATOM      1  N   UNL     1       5.893  -5.346  24.399  0.00  0.00    -0.321 N 
ATOM      2  C   UNL     1       5.649  -5.813  25.663  0.00  0.00    +0.141 A 
ATOM      3  C   UNL     1       6.630  -5.290  26.503  0.00  0.00    +0.022 A 
ATOM      4  C   UNL     1       6.549  -5.620  27.866  0.00  0.00    +0.013 A 
ATOM      5  C   UNL     1       5.502  -6.446  28.276  0.00  0.00    +0.020 A 
ATOM      6  C   UNL     1       4.600  -6.910  27.324  0.00  0.00    +0.113 A 
ATOM      7  C   UNL     1       7.517  -4.515  25.691  0.00  0.00    -0.014 A 
ATOM      8  N   UNL     1       4.633  -6.639  25.994  0.00  0.00    -0.237 NA
ATOM      9  C   UNL     1       7.051  -4.617  24.389  0.00  0.00    +0.093 A 
ENDROOT
BRANCH   1  10
ATOM     10  C   UNL     1       5.012  -5.547  23.265  0.00  0.00    +0.243 C 
BRANCH  10  11
ATOM     11  C   UNL     1       5.756  -5.702  21.970  0.00  0.00    +0.325 C 
ATOM     12  O   UNL     1       5.771  -4.845  21.096  0.00  0.00    -0.249 OA
BRANCH  11  13
ATOM     13  O   UNL     1       6.368  -6.901  21.806  0.00  0.00    -0.479 OA
ATOM     14  H   UNL     1       5.893  -7.650  22.241  0.00  0.00    +0.295 HD
ENDBRANCH  11  13
ENDBRANCH  10  11
ENDBRANCH   1  10
BRANCH   7  15
ATOM     15  C   UNL     1       8.735  -3.769  26.146  0.00  0.00    +0.100 C 
BRANCH  15  16
ATOM     16  C   UNL     1       8.865  -2.412  25.512  0.00  0.00    +0.084 A 
ATOM     17  S   UNL     1       8.277  -1.011  26.315  0.00  0.00    -0.069 S 
ATOM     18  C   UNL     1       8.835  -0.026  25.017  0.00  0.00    +0.077 A 
ATOM     19  C   UNL     1       8.767   1.366  24.855  0.00  0.00    +0.142 A 
ATOM     20  C   UNL     1       9.290   1.955  23.706  0.00  0.00    +0.081 A 
ATOM     21  C   UNL     1       9.869   1.158  22.734  0.00  0.00    +0.163 A 
ATOM     22  C   UNL     1       9.944  -0.225  22.884  0.00  0.00    +0.185 A 
ATOM     23  F   UNL     1      10.516  -0.964  21.921  0.00  0.00    -0.200 F 
ATOM     24  F   UNL     1      10.368   1.738  21.632  0.00  0.00    -0.202 F 
ATOM     25  F   UNL     1       8.211   2.144  25.793  0.00  0.00    -0.204 F 
ATOM     26  C   UNL     1       9.424  -0.838  24.043  0.00  0.00    +0.119 A 
ATOM     27  N   UNL     1       9.435  -2.194  24.345  0.00  0.00    -0.241 NA
ENDBRANCH  15  16
ENDBRANCH   7  15
TORSDOF 5
ENDMDL
MODEL 7
REMARK VINA RESULT:      -7.2      2.500      3.720
REMARK  Name = 
REMARK  5 active torsions:
REMARK  status: ('A' for Active; 'I' for Inactive)
REMARK    1  A    between atoms: O_1  and  C_2
REMARK    2  A    between atoms: C_2  and  C_4
REMARK    3  A    between atoms: C_4  and  N_5
REMARK    4  A    between atoms: C_7  and  C_8
REMARK    5  A    between atoms: C_8  and  C_9
REMARK                            x       y       z     vdW  Elec       q    Type
REMARK                         _______ _______ _______ _____ _____    ______ ____
ROOT
ATOM      1  N   UNL     1       6.826  -4.157  25.731  0.00  0.00    -0.321 N 
ATOM      2  C   UNL     1       6.560  -4.713  24.508  0.00  0.00    +0.141 A 
ATOM      3  C   UNL     1       7.554  -4.294  23.627  0.00  0.00    +0.022 A 
ATOM      4  C   UNL     1       7.490  -4.780  22.310  0.00  0.00    +0.013 A 
ATOM      5  C   UNL     1       6.439  -5.636  21.982  0.00  0.00    +0.020 A 
ATOM      6  C   UNL     1       5.505  -5.960  22.960  0.00  0.00    +0.113 A 
ATOM      7  C   UNL     1       8.422  -3.417  24.351  0.00  0.00    -0.014 A 
ATOM      8  N   UNL     1       5.504  -5.513  24.242  0.00  0.00    -0.237 NA
ATOM      9  C   UNL     1       7.907  -3.323  25.636  0.00  0.00    +0.093 A 
ENDROOT
BRANCH   1  10
ATOM     10  C   UNL     1       6.103  -4.467  26.949  0.00  0.00    +0.243 C 
BRANCH  10  11
ATOM     11  C   UNL     1       6.810  -5.479  27.804  0.00  0.00    +0.325 C 
ATOM     12  O   UNL     1       6.493  -5.722  28.962  0.00  0.00    -0.249 OA
BRANCH  11  13
ATOM     13  O   UNL     1       7.879  -6.073  27.216  0.00  0.00    -0.479 OA
ATOM     14  H   UNL     1       8.538  -6.426  27.861  0.00  0.00    +0.295 HD
ENDBRANCH  11  13
ENDBRANCH  10  11
ENDBRANCH   1  10
BRANCH   7  15
ATOM     15  C   UNL     1       9.631  -2.706  23.821  0.00  0.00    +0.100 C 
BRANCH  15  16
ATOM     16  C   UNL     1       9.407  -1.231  23.629  0.00  0.00    +0.084 A 
ATOM     17  S   UNL     1      10.638  -0.101  24.029  0.00  0.00    -0.069 S 
ATOM     18  C   UNL     1       9.632   1.192  23.497  0.00  0.00    +0.077 A 
ATOM     19  C   UNL     1       9.888   2.571  23.460  0.00  0.00    +0.142 A 
ATOM     20  C   UNL     1       8.913   3.443  22.984  0.00  0.00    +0.081 A 
ATOM     21  C   UNL     1       7.697   2.940  22.555  0.00  0.00    +0.163 A 
ATOM     22  C   UNL     1       7.430   1.572  22.586  0.00  0.00    +0.185 A 
ATOM     23  F   UNL     1       6.241   1.121  22.158  0.00  0.00    -0.200 F 
ATOM     24  F   UNL     1       6.766   3.791  22.101  0.00  0.00    -0.202 F 
ATOM     25  F   UNL     1      11.064   3.066  23.871  0.00  0.00    -0.204 F 
ATOM     26  C   UNL     1       8.409   0.673  23.060  0.00  0.00    +0.119 A 
ATOM     27  N   UNL     1       8.302  -0.709  23.139  0.00  0.00    -0.241 NA
ENDBRANCH  15  16
ENDBRANCH   7  15
TORSDOF 5
ENDMDL
MODEL 8
REMARK VINA RESULT:      -7.2      4.153      7.940
REMARK  Name = 
REMARK  5 active torsions:
REMARK  status: ('A' for Active; 'I' for Inactive)
REMARK    1  A    between atoms: O_1  and  C_2
REMARK    2  A    between atoms: C_2  and  C_4
REMARK    3  A    between atoms: C_4  and  N_5
REMARK    4  A    between atoms: C_7  and  C_8
REMARK    5  A    between atoms: C_8  and  C_9
REMARK                            x       y       z     vdW  Elec       q    Type
REMARK                         _______ _______ _______ _____ _____    ______ ____
ROOT
ATOM      1  N   UNL     1       8.038   3.070  23.951  0.00  0.00    -0.321 N 
ATOM      2  C   UNL     1       9.145   3.865  23.828  0.00  0.00    +0.141 A 
ATOM      3  C   UNL     1      10.239   3.035  23.592  0.00  0.00    +0.022 A 
ATOM      4  C   UNL     1      11.485   3.654  23.401  0.00  0.00    +0.013 A 
ATOM      5  C   UNL     1      11.538   5.046  23.466  0.00  0.00    +0.020 A 
ATOM      6  C   UNL     1      10.368   5.752  23.726  0.00  0.00    +0.113 A 
ATOM      7  C   UNL     1       9.762   1.686  23.619  0.00  0.00    -0.014 A 
ATOM      8  N   UNL     1       9.139   5.212  23.933  0.00  0.00    -0.237 NA
ATOM      9  C   UNL     1       8.403   1.752  23.893  0.00  0.00    +0.093 A 
ENDROOT
BRANCH   1  10
ATOM     10  C   UNL     1       6.679   3.565  24.060  0.00  0.00    +0.243 C 
BRANCH  10  11
ATOM     11  C   UNL     1       6.025   3.770  22.724  0.00  0.00    +0.325 C 
ATOM     12  O   UNL     1       5.188   3.006  22.260  0.00  0.00    -0.249 OA
BRANCH  11  13
ATOM     13  O   UNL     1       6.477   4.843  22.028  0.00  0.00    -0.479 OA
ATOM     14  H   UNL     1       6.728   5.607  22.601  0.00  0.00    +0.295 HD
ENDBRANCH  11  13
ENDBRANCH  10  11
ENDBRANCH   1  10
BRANCH   7  15
ATOM     15  C   UNL     1      10.573   0.439  23.430  0.00  0.00    +0.100 C 
BRANCH  15  16
ATOM     16  C   UNL     1       9.763  -0.818  23.586  0.00  0.00    +0.084 A 
ATOM     17  S   UNL     1       8.956  -1.512  22.236  0.00  0.00    -0.069 S 
ATOM     18  C   UNL     1       8.391  -2.800  23.229  0.00  0.00    +0.077 A 
ATOM     19  C   UNL     1       7.601  -3.911  22.894  0.00  0.00    +0.142 A 
ATOM     20  C   UNL     1       7.260  -4.838  23.875  0.00  0.00    +0.081 A 
ATOM     21  C   UNL     1       7.700  -4.652  25.174  0.00  0.00    +0.163 A 
ATOM     22  C   UNL     1       8.486  -3.554  25.519  0.00  0.00    +0.185 A 
ATOM     23  F   UNL     1       8.897  -3.409  26.789  0.00  0.00    -0.200 F 
ATOM     24  F   UNL     1       7.364  -5.552  26.109  0.00  0.00    -0.202 F 
ATOM     25  F   UNL     1       7.173  -4.099  21.639  0.00  0.00    -0.204 F 
ATOM     26  C   UNL     1       8.846  -2.607  24.537  0.00  0.00    +0.119 A 
ATOM     27  N   UNL     1       9.630  -1.475  24.720  0.00  0.00    -0.241 NA
ENDBRANCH  15  16
ENDBRANCH   7  15
TORSDOF 5
ENDMDL
MODEL 9
REMARK VINA RESULT:      -7.1      4.736      7.817
REMARK  Name = 
REMARK  5 active torsions:
REMARK  status: ('A' for Active; 'I' for Inactive)
REMARK    1  A    between atoms: O_1  and  C_2
REMARK    2  A    between atoms: C_2  and  C_4
REMARK    3  A    between atoms: C_4  and  N_5
REMARK    4  A    between atoms: C_7  and  C_8
REMARK    5  A    between atoms: C_8  and  C_9
REMARK                            x       y       z     vdW  Elec       q    Type
REMARK                         _______ _______ _______ _____ _____    ______ ____
ROOT
ATOM      1  N   UNL     1       9.816  -0.621  23.827  0.00  0.00    -0.321 N 
ATOM      2  C   UNL     1       8.924  -0.420  24.846  0.00  0.00    +0.141 A 
ATOM      3  C   UNL     1       8.649  -1.660  25.419  0.00  0.00    +0.022 A 
ATOM      4  C   UNL     1       7.772  -1.679  26.516  0.00  0.00    +0.013 A 
ATOM      5  C   UNL     1       7.239  -0.464  26.946  0.00  0.00    +0.020 A 
ATOM      6  C   UNL     1       7.589   0.700  26.271  0.00  0.00    +0.113 A 
ATOM      7  C   UNL     1       9.377  -2.642  24.676  0.00  0.00    -0.014 A 
ATOM      8  N   UNL     1       8.418   0.782  25.198  0.00  0.00    -0.237 NA
ATOM      9  C   UNL     1      10.047  -1.961  23.670  0.00  0.00    +0.093 A 
ENDROOT
BRANCH   1  10
ATOM     10  C   UNL     1      10.460   0.441  23.078  0.00  0.00    +0.243 C 
BRANCH  10  11
ATOM     11  C   UNL     1       9.745   0.767  21.798  0.00  0.00    +0.325 C 
ATOM     12  O   UNL     1       9.260  -0.084  21.062  0.00  0.00    -0.249 OA
BRANCH  11  13
ATOM     13  O   UNL     1       9.728   2.085  21.477  0.00  0.00    -0.479 OA
ATOM     14  H   UNL     1       9.366   2.660  22.193  0.00  0.00    +0.295 HD
ENDBRANCH  11  13
ENDBRANCH  10  11
ENDBRANCH   1  10
BRANCH   7  15
ATOM     15  C   UNL     1       9.388  -4.123  24.908  0.00  0.00    +0.100 C 
BRANCH  15  16
ATOM     16  C   UNL     1       8.023  -4.745  24.797  0.00  0.00    +0.084 A 
ATOM     17  S   UNL     1       7.217  -4.822  23.281  0.00  0.00    -0.069 S 
ATOM     18  C   UNL     1       5.896  -5.643  24.019  0.00  0.00    +0.077 A 
ATOM     19  C   UNL     1       4.710  -6.129  23.447  0.00  0.00    +0.142 A 
ATOM     20  C   UNL     1       3.768  -6.770  24.247  0.00  0.00    +0.081 A 
ATOM     21  C   UNL     1       4.010  -6.917  25.602  0.00  0.00    +0.163 A 
ATOM     22  C   UNL     1       5.184  -6.440  26.182  0.00  0.00    +0.185 A 
ATOM     23  F   UNL     1       5.385  -6.605  27.499  0.00  0.00    -0.200 F 
ATOM     24  F   UNL     1       3.093  -7.535  26.362  0.00  0.00    -0.202 F 
ATOM     25  F   UNL     1       4.470  -5.993  22.136  0.00  0.00    -0.204 F 
ATOM     26  C   UNL     1       6.152  -5.793  25.385  0.00  0.00    +0.119 A 
ATOM     27  N   UNL     1       7.371  -5.279  25.809  0.00  0.00    -0.241 NA
ENDBRANCH  15  16
ENDBRANCH   7  15
TORSDOF 5
ENDMDL
