MODEL 1
REMARK VINA RESULT:      -4.4      0.000      0.000
REMARK  Name = 
REMARK  1 active torsions:
REMARK  status: ('A' for Active; 'I' for Inactive)
REMARK    1  A    between atoms: C_1  and  N_2
REMARK                            x       y       z     vdW  Elec       q    Type
REMARK                         _______ _______ _______ _____ _____    ______ ____
ROOT
ATOM      1  C   UNL     1       9.731  -1.410  23.304  0.00  0.00    +0.446 C 
ATOM      2  N   UNL     1       9.944   0.041  23.177  0.00  0.00    -0.130 N 
ATOM      3  C   UNL     1       9.717   0.545  21.848  0.00  0.00    +0.501 A 
ATOM      4  O   UNL     1       9.360  -0.210  20.961  0.00  0.00    -0.195 OA
ATOM      5  N   UNL     1       9.928   1.882  21.694  0.00  0.00    -0.273 N 
ATOM      6  H   UNL     1       9.769   2.232  20.753  0.00  0.00    +0.174 HD
ATOM      7  C   UNL     1      10.319   2.737  22.678  0.00  0.00    +0.099 A 
ATOM      8  C   UNL     1      10.514   2.266  23.910  0.00  0.00    +0.113 A 
ATOM      9  C   UNL     1      10.313   0.820  24.185  0.00  0.00    +0.274 A 
ATOM     10  N   UNL     1      10.525   0.452  25.434  0.00  0.00    -0.305 N 
ATOM     11  H   UNL     1      10.807   1.127  26.135  0.00  0.00    +0.148 HD
ATOM     12  H   UNL     1      10.409  -0.498  25.756  0.00  0.00    +0.148 HD
ENDROOT
TORSDOF 0
ENDMDL
MODEL 2
REMARK VINA RESULT:      -4.4      1.934      3.549
REMARK  Name = 
REMARK  1 active torsions:
REMARK  status: ('A' for Active; 'I' for Inactive)
REMARK    1  A    between atoms: C_1  and  N_2
REMARK                            x       y       z     vdW  Elec       q    Type
REMARK                         _______ _______ _______ _____ _____    ______ ____
ROOT
ATOM      1  C   UNL     1       9.740   2.160  24.304  0.00  0.00    +0.446 C 
ATOM      2  N   UNL     1       9.751   0.924  23.506  0.00  0.00    -0.130 N 
ATOM      3  C   UNL     1       9.885  -0.273  24.295  0.00  0.00    +0.501 A 
ATOM      4  O   UNL     1       9.957  -0.199  25.509  0.00  0.00    -0.195 OA
ATOM      5  N   UNL     1       9.921  -1.433  23.582  0.00  0.00    -0.273 N 
ATOM      6  H   UNL     1      10.019  -2.274  24.143  0.00  0.00    +0.174 HD
ATOM      7  C   UNL     1       9.835  -1.528  22.227  0.00  0.00    +0.099 A 
ATOM      8  C   UNL     1       9.697  -0.418  21.504  0.00  0.00    +0.113 A 
ATOM      9  C   UNL     1       9.649   0.903  22.184  0.00  0.00    +0.274 A 
ATOM     10  N   UNL     1       9.504   1.941  21.384  0.00  0.00    -0.305 N 
ATOM     11  H   UNL     1       9.436   1.820  20.380  0.00  0.00    +0.148 HD
ATOM     12  H   UNL     1       9.442   2.891  21.720  0.00  0.00    +0.148 HD
ENDROOT
TORSDOF 0
ENDMDL
MODEL 3
REMARK VINA RESULT:      -4.2      2.014      2.796
REMARK  Name = 
REMARK  1 active torsions:
REMARK  status: ('A' for Active; 'I' for Inactive)
REMARK    1  A    between atoms: C_1  and  N_2
REMARK                            x       y       z     vdW  Elec       q    Type
REMARK                         _______ _______ _______ _____ _____    ______ ____
ROOT
ATOM      1  C   UNL     1       9.771  -2.012  23.874  0.00  0.00    +0.446 C 
ATOM      2  N   UNL     1       9.860  -0.602  23.460  0.00  0.00    -0.130 N 
ATOM      3  C   UNL     1       9.972   0.318  24.561  0.00  0.00    +0.501 A 
ATOM      4  O   UNL     1      10.007  -0.100  25.706  0.00  0.00    -0.195 OA
ATOM      5  N   UNL     1      10.035   1.633  24.212  0.00  0.00    -0.273 N 
ATOM      6  H   UNL     1      10.111   2.278  24.993  0.00  0.00    +0.174 HD
ATOM      7  C   UNL     1      10.005   2.111  22.938  0.00  0.00    +0.099 A 
ATOM      8  C   UNL     1       9.914   1.253  21.922  0.00  0.00    +0.113 A 
ATOM      9  C   UNL     1       9.838  -0.206  22.195  0.00  0.00    +0.274 A 
ATOM     10  N   UNL     1       9.757  -0.973  21.126  0.00  0.00    -0.305 N 
ATOM     11  H   UNL     1       9.747  -0.571  20.195  0.00  0.00    +0.148 HD
ATOM     12  H   UNL     1       9.715  -1.981  21.172  0.00  0.00    +0.148 HD
ENDROOT
TORSDOF 0
ENDMDL
MODEL 4
REMARK VINA RESULT:      -4.1      6.761      7.658
REMARK  Name = 
REMARK  1 active torsions:
REMARK  status: ('A' for Active; 'I' for Inactive)
REMARK    1  A    between atoms: C_1  and  N_2
REMARK                            x       y       z     vdW  Elec       q    Type
REMARK                         _______ _______ _______ _____ _____    ______ ____
ROOT
ATOM      1  C   UNL     1       5.424  -5.923  26.105  0.00  0.00    +0.446 C 
ATOM      2  N   UNL     1       6.782  -5.466  25.766  0.00  0.00    -0.130 N 
ATOM      3  C   UNL     1       7.694  -5.488  26.880  0.00  0.00    +0.501 A 
ATOM      4  O   UNL     1       7.318  -5.880  27.971  0.00  0.00    -0.195 OA
ATOM      5  N   UNL     1       8.954  -5.050  26.603  0.00  0.00    -0.273 N 
ATOM      6  H   UNL     1       9.593  -5.063  27.392  0.00  0.00    +0.174 HD
ATOM      7  C   UNL     1       9.387  -4.616  25.388  0.00  0.00    +0.099 A 
ATOM      8  C   UNL     1       8.541  -4.612  24.358  0.00  0.00    +0.113 A 
ATOM      9  C   UNL     1       7.141  -5.069  24.553  0.00  0.00    +0.274 A 
ATOM     10  N   UNL     1       6.383  -5.034  23.475  0.00  0.00    -0.305 N 
ATOM     11  H   UNL     1       6.754  -4.711  22.588  0.00  0.00    +0.148 HD
ATOM     12  H   UNL     1       5.419  -5.331  23.468  0.00  0.00    +0.148 HD
ENDROOT
TORSDOF 0
ENDMDL
MODEL 5
REMARK VINA RESULT:      -4.0      1.375      2.641
REMARK  Name = 
REMARK  1 active torsions:
REMARK  status: ('A' for Active; 'I' for Inactive)
REMARK    1  A    between atoms: C_1  and  N_2
REMARK                            x       y       z     vdW  Elec       q    Type
REMARK                         _______ _______ _______ _____ _____    ______ ____
ROOT
ATOM      1  C   UNL     1       9.720   2.282  24.128  0.00  0.00    +0.446 C 
ATOM      2  N   UNL     1       9.821   0.880  23.694  0.00  0.00    -0.130 N 
ATOM      3  C   UNL     1       9.960   0.724  22.270  0.00  0.00    +0.501 A 
ATOM      4  O   UNL     1      10.004   1.706  21.549  0.00  0.00    -0.195 OA
ATOM      5  N   UNL     1      10.034  -0.564  21.834  0.00  0.00    -0.273 N 
ATOM      6  H   UNL     1      10.128  -0.669  20.828  0.00  0.00    +0.174 HD
ATOM      7  C   UNL     1       9.992  -1.668  22.629  0.00  0.00    +0.099 A 
ATOM      8  C   UNL     1       9.878  -1.517  23.948  0.00  0.00    +0.113 A 
ATOM      9  C   UNL     1       9.787  -0.151  24.527  0.00  0.00    +0.274 A 
ATOM     10  N   UNL     1       9.682  -0.104  25.841  0.00  0.00    -0.305 N 
ATOM     11  H   UNL     1       9.665  -0.955  26.392  0.00  0.00    +0.148 HD
ATOM     12  H   UNL     1       9.628   0.760  26.359  0.00  0.00    +0.148 HD
ENDROOT
TORSDOF 0
ENDMDL
MODEL 6
REMARK VINA RESULT:      -4.0      1.922      2.694
REMARK  Name = 
REMARK  1 active torsions:
REMARK  status: ('A' for Active; 'I' for Inactive)
REMARK    1  A    between atoms: C_1  and  N_2
REMARK                            x       y       z     vdW  Elec       q    Type
REMARK                         _______ _______ _______ _____ _____    ______ ____
ROOT
ATOM      1  C   UNL     1       8.630   3.089  24.740  0.00  0.00    +0.446 C 
ATOM      2  N   UNL     1       9.053   2.122  23.715  0.00  0.00    -0.130 N 
ATOM      3  C   UNL     1       8.540   2.409  22.401  0.00  0.00    +0.501 A 
ATOM      4  O   UNL     1       7.842   3.391  22.219  0.00  0.00    -0.195 OA
ATOM      5  N   UNL     1       8.896   1.518  21.434  0.00  0.00    -0.273 N 
ATOM      6  H   UNL     1       8.528   1.723  20.510  0.00  0.00    +0.174 HD
ATOM      7  C   UNL     1       9.680   0.422  21.624  0.00  0.00    +0.099 A 
ATOM      8  C   UNL     1      10.164   0.170  22.840  0.00  0.00    +0.113 A 
ATOM      9  C   UNL     1       9.833   1.079  23.967  0.00  0.00    +0.274 A 
ATOM     10  N   UNL     1      10.363   0.750  25.129  0.00  0.00    -0.305 N 
ATOM     11  H   UNL     1      10.949  -0.073  25.219  0.00  0.00    +0.148 HD
ATOM     12  H   UNL     1      10.229   1.291  25.970  0.00  0.00    +0.148 HD
ENDROOT
TORSDOF 0
ENDMDL
MODEL 7
REMARK VINA RESULT:      -3.9      2.694      3.754
REMARK  Name = 
REMARK  1 active torsions:
REMARK  status: ('A' for Active; 'I' for Inactive)
REMARK    1  A    between atoms: C_1  and  N_2
REMARK                            x       y       z     vdW  Elec       q    Type
REMARK                         _______ _______ _______ _____ _____    ______ ____
ROOT
ATOM      1  C   UNL     1       6.788   1.695  23.060  0.00  0.00    +0.446 C 
ATOM      2  N   UNL     1       7.712   0.643  22.605  0.00  0.00    -0.130 N 
ATOM      3  C   UNL     1       7.335  -0.680  23.029  0.00  0.00    +0.501 A 
ATOM      4  O   UNL     1       6.320  -0.846  23.684  0.00  0.00    -0.195 OA
ATOM      5  N   UNL     1       8.182  -1.674  22.643  0.00  0.00    -0.273 N 
ATOM      6  H   UNL     1       7.914  -2.605  22.948  0.00  0.00    +0.174 HD
ATOM      7  C   UNL     1       9.314  -1.502  21.907  0.00  0.00    +0.099 A 
ATOM      8  C   UNL     1       9.650  -0.276  21.506  0.00  0.00    +0.113 A 
ATOM      9  C   UNL     1       8.793   0.881  21.876  0.00  0.00    +0.274 A 
ATOM     10  N   UNL     1       9.205   2.050  21.428  0.00  0.00    -0.305 N 
ATOM     11  H   UNL     1      10.051   2.128  20.874  0.00  0.00    +0.148 HD
ATOM     12  H   UNL     1       8.706   2.912  21.595  0.00  0.00    +0.148 HD
ENDROOT
TORSDOF 0
ENDMDL
MODEL 8
REMARK VINA RESULT:      -3.9      2.415      3.783
REMARK  Name = 
REMARK  1 active torsions:
REMARK  status: ('A' for Active; 'I' for Inactive)
REMARK    1  A    between atoms: C_1  and  N_2
REMARK                            x       y       z     vdW  Elec       q    Type
REMARK                         _______ _______ _______ _____ _____    ______ ____
ROOT
ATOM      1  C   UNL     1       8.073   3.599  23.118  0.00  0.00    +0.446 C 
ATOM      2  N   UNL     1       8.864   2.455  23.601  0.00  0.00    -0.130 N 
ATOM      3  C   UNL     1       8.552   2.065  24.950  0.00  0.00    +0.501 A 
ATOM      4  O   UNL     1       7.687   2.655  25.573  0.00  0.00    -0.195 OA
ATOM      5  N   UNL     1       9.283   1.022  25.434  0.00  0.00    -0.273 N 
ATOM      6  H   UNL     1       9.062   0.753  26.388  0.00  0.00    +0.174 HD
ATOM      7  C   UNL     1      10.247   0.350  24.746  0.00  0.00    +0.099 A 
ATOM      8  C   UNL     1      10.521   0.708  23.492  0.00  0.00    +0.113 A 
ATOM      9  C   UNL     1       9.781   1.836  22.869  0.00  0.00    +0.274 A 
ATOM     10  N   UNL     1      10.118   2.111  21.625  0.00  0.00    -0.305 N 
ATOM     11  H   UNL     1      10.837   1.575  21.150  0.00  0.00    +0.148 HD
ATOM     12  H   UNL     1       9.682   2.842  21.083  0.00  0.00    +0.148 HD
ENDROOT
TORSDOF 0
ENDMDL
MODEL 9
REMARK VINA RESULT:      -3.8      1.343      1.520
REMARK  Name = 
REMARK  1 active torsions:
REMARK  status: ('A' for Active; 'I' for Inactive)
REMARK    1  A    between atoms: C_1  and  N_2
REMARK                            x       y       z     vdW  Elec       q    Type
REMARK                         _______ _______ _______ _____ _____    ______ ____
ROOT
ATOM      1  C   UNL     1       9.270  -2.412  24.411  0.00  0.00    +0.446 C 
ATOM      2  N   UNL     1       9.560  -1.009  24.073  0.00  0.00    -0.130 N 
ATOM      3  C   UNL     1       9.877  -0.802  22.684  0.00  0.00    +0.501 A 
ATOM      4  O   UNL     1       9.866  -1.742  21.908  0.00  0.00    -0.195 OA
ATOM      5  N   UNL     1      10.172   0.483  22.344  0.00  0.00    -0.273 N 
ATOM      6  H   UNL     1      10.398   0.623  21.364  0.00  0.00    +0.174 HD
ATOM      7  C   UNL     1      10.181   1.542  23.200  0.00  0.00    +0.099 A 
ATOM      8  C   UNL     1       9.874   1.346  24.482  0.00  0.00    +0.113 A 
ATOM      9  C   UNL     1       9.537  -0.022  24.957  0.00  0.00    +0.274 A 
ATOM     10  N   UNL     1       9.241  -0.113  26.239  0.00  0.00    -0.305 N 
ATOM     11  H   UNL     1       9.253   0.706  26.836  0.00  0.00    +0.148 HD
ATOM     12  H   UNL     1       8.981  -0.980  26.684  0.00  0.00    +0.148 HD
ENDROOT
TORSDOF 0
ENDMDL
