MODEL 1
REMARK VINA RESULT:      -7.9      0.000      0.000
REMARK  Name = 
REMARK  10 active torsions:
REMARK  status: ('A' for Active; 'I' for Inactive)
REMARK    1  A    between atoms: C_2  and  C_17
REMARK    2  A    between atoms: C_4  and  C_6
REMARK    3  A    between atoms: C_6  and  O_7
REMARK    4  A    between atoms: C_8  and  O_10
REMARK    5  A    between atoms: C_11  and  O_13
REMARK    6  A    between atoms: C_14  and  O_16
REMARK    7  A    between atoms: C_20  and  C_21
REMARK    8  A    between atoms: C_22  and  C_23
REMARK    9  A    between atoms: C_23  and  C_24
REMARK   10  A    between atoms: C_27  and  C_29
REMARK                            x       y       z     vdW  Elec       q    Type
REMARK                         _______ _______ _______ _____ _____    ______ ____
ROOT
ATOM      1  C   UNL     1       6.609  -4.073  24.315  0.00  0.00    -0.016 A 
ATOM      2  C   UNL     1       6.494  -2.904  23.539  0.00  0.00    +0.010 A 
ATOM      3  C   UNL     1       7.626  -2.161  23.134  0.00  0.00    -0.039 A 
ATOM      4  C   UNL     1       8.909  -2.633  23.476  0.00  0.00    -0.047 A 
ATOM      5  C   UNL     1      10.155  -1.859  23.143  0.00  0.00    +0.044 C 
ATOM      6  C   UNL     1       9.025  -3.826  24.205  0.00  0.00    +0.004 A 
ATOM      7  C   UNL     1       7.893  -4.534  24.620  0.00  0.00    +0.006 A 
ENDROOT
BRANCH   1   8
ATOM      8  C   UNL     1       5.364  -4.790  24.829  0.00  0.00    +0.180 C 
ATOM      9  C   UNL     1       4.896  -5.923  23.884  0.00  0.00    +0.179 C 
ATOM     10  C   UNL     1       3.743  -6.710  24.536  0.00  0.00    +0.177 C 
ATOM     11  C   UNL     1       4.063  -7.134  25.970  0.00  0.00    +0.176 C 
ATOM     12  C   UNL     1       4.497  -5.899  26.770  0.00  0.00    +0.175 C 
ATOM     13  O   UNL     1       5.633  -5.284  26.157  0.00  0.00    -0.361 OA
BRANCH   9  14
ATOM     14  O   UNL     1       4.469  -5.362  22.629  0.00  0.00    -0.386 OA
ATOM     15  H   UNL     1       4.597  -6.030  21.934  0.00  0.00    +0.210 HD
ENDBRANCH   9  14
BRANCH  10  16
ATOM     16  O   UNL     1       3.417  -7.871  23.761  0.00  0.00    -0.386 OA
ATOM     17  H   UNL     1       2.932  -7.530  22.982  0.00  0.00    +0.210 HD
ENDBRANCH  10  16
BRANCH  11  18
ATOM     18  O   UNL     1       2.886  -7.759  26.500  0.00  0.00    -0.386 OA
ATOM     19  H   UNL     1       2.829  -7.497  27.446  0.00  0.00    +0.210 HD
ENDBRANCH  11  18
BRANCH  12  20
ATOM     20  C   UNL     1       4.847  -6.271  28.218  0.00  0.00    +0.190 C 
BRANCH  20  21
ATOM     21  O   UNL     1       5.378  -7.596  28.269  0.00  0.00    -0.392 OA
ATOM     22  H   UNL     1       5.286  -7.903  29.189  0.00  0.00    +0.210 HD
ENDBRANCH  20  21
ENDBRANCH  12  20
ENDBRANCH   1   8
BRANCH   3  23
ATOM     23  C   UNL     1       7.422  -0.824  22.446  0.00  0.00    +0.077 C 
BRANCH  23  24
ATOM     24  C   UNL     1       7.771   0.419  23.219  0.00  0.00    -0.005 A 
ATOM     25  S   UNL     1       8.479   1.728  22.367  0.00  0.00    -0.093 S 
ATOM     26  C   UNL     1       8.989   2.517  23.807  0.00  0.00    +0.020 A 
ATOM     27  C   UNL     1       8.402   1.907  24.904  0.00  0.00    +0.016 A 
ATOM     28  C   UNL     1       7.708   0.697  24.569  0.00  0.00    +0.012 A 
BRANCH  26  29
ATOM     29  C   UNL     1       9.933   3.654  23.746  0.00  0.00    -0.011 A 
ATOM     30  C   UNL     1       9.554   4.938  24.178  0.00  0.00    +0.012 A 
ATOM     31  C   UNL     1      10.478   5.990  24.199  0.00  0.00    +0.039 A 
ATOM     32  C   UNL     1      11.786   5.772  23.797  0.00  0.00    +0.123 A 
ATOM     33  F   UNL     1      12.672   6.778  23.825  0.00  0.00    -0.205 F 
ATOM     34  C   UNL     1      12.188   4.525  23.345  0.00  0.00    +0.039 A 
ATOM     35  C   UNL     1      11.265   3.472  23.331  0.00  0.00    +0.012 A 
ENDBRANCH  26  29
ENDBRANCH  23  24
ENDBRANCH   3  23
TORSDOF 9
ENDMDL
MODEL 2
REMARK VINA RESULT:      -7.6      0.955      2.201
REMARK  Name = 
REMARK  10 active torsions:
REMARK  status: ('A' for Active; 'I' for Inactive)
REMARK    1  A    between atoms: C_2  and  C_17
REMARK    2  A    between atoms: C_4  and  C_6
REMARK    3  A    between atoms: C_6  and  O_7
REMARK    4  A    between atoms: C_8  and  O_10
REMARK    5  A    between atoms: C_11  and  O_13
REMARK    6  A    between atoms: C_14  and  O_16
REMARK    7  A    between atoms: C_20  and  C_21
REMARK    8  A    between atoms: C_22  and  C_23
REMARK    9  A    between atoms: C_23  and  C_24
REMARK   10  A    between atoms: C_27  and  C_29
REMARK                            x       y       z     vdW  Elec       q    Type
REMARK                         _______ _______ _______ _____ _____    ______ ____
ROOT
ATOM      1  C   UNL     1       7.599  -4.688  24.736  0.00  0.00    -0.016 A 
ATOM      2  C   UNL     1       7.077  -3.593  24.022  0.00  0.00    +0.010 A 
ATOM      3  C   UNL     1       7.901  -2.539  23.565  0.00  0.00    -0.039 A 
ATOM      4  C   UNL     1       9.290  -2.613  23.789  0.00  0.00    -0.047 A 
ATOM      5  C   UNL     1      10.219  -1.496  23.396  0.00  0.00    +0.044 C 
ATOM      6  C   UNL     1       9.815  -3.731  24.454  0.00  0.00    +0.004 A 
ATOM      7  C   UNL     1       8.983  -4.752  24.922  0.00  0.00    +0.006 A 
ENDROOT
BRANCH   1   8
ATOM      8  C   UNL     1       6.670  -5.754  25.311  0.00  0.00    +0.180 C 
ATOM      9  C   UNL     1       6.378  -5.540  26.816  0.00  0.00    +0.179 C 
ATOM     10  C   UNL     1       5.311  -6.543  27.294  0.00  0.00    +0.177 C 
ATOM     11  C   UNL     1       4.085  -6.571  26.380  0.00  0.00    +0.176 C 
ATOM     12  C   UNL     1       4.546  -6.801  24.935  0.00  0.00    +0.175 C 
ATOM     13  O   UNL     1       5.455  -5.773  24.534  0.00  0.00    -0.361 OA
BRANCH   9  14
ATOM     14  O   UNL     1       7.591  -5.705  27.574  0.00  0.00    -0.386 OA
ATOM     15  H   UNL     1       8.046  -4.847  27.619  0.00  0.00    +0.210 HD
ENDBRANCH   9  14
BRANCH  10  16
ATOM     16  O   UNL     1       4.895  -6.245  28.634  0.00  0.00    -0.386 OA
ATOM     17  H   UNL     1       5.628  -5.721  29.018  0.00  0.00    +0.210 HD
ENDBRANCH  10  16
BRANCH  11  18
ATOM     18  O   UNL     1       3.219  -7.607  26.864  0.00  0.00    -0.386 OA
ATOM     19  H   UNL     1       3.115  -8.253  26.130  0.00  0.00    +0.210 HD
ENDBRANCH  11  18
BRANCH  12  20
ATOM     20  C   UNL     1       3.353  -6.822  23.969  0.00  0.00    +0.190 C 
BRANCH  20  21
ATOM     21  O   UNL     1       2.818  -8.143  23.879  0.00  0.00    -0.392 OA
ATOM     22  H   UNL     1       3.567  -8.741  23.703  0.00  0.00    +0.210 HD
ENDBRANCH  20  21
ENDBRANCH  12  20
ENDBRANCH   1   8
BRANCH   3  23
ATOM     23  C   UNL     1       7.253  -1.310  22.954  0.00  0.00    +0.077 C 
BRANCH  23  24
ATOM     24  C   UNL     1       7.536   0.020  23.596  0.00  0.00    -0.005 A 
ATOM     25  S   UNL     1       8.266   1.241  22.638  0.00  0.00    -0.093 S 
ATOM     26  C   UNL     1       8.680   2.201  24.002  0.00  0.00    +0.020 A 
ATOM     27  C   UNL     1       8.044   1.706  25.130  0.00  0.00    +0.016 A 
ATOM     28  C   UNL     1       7.392   0.450  24.900  0.00  0.00    +0.012 A 
BRANCH  26  29
ATOM     29  C   UNL     1       9.606   3.347  23.862  0.00  0.00    -0.011 A 
ATOM     30  C   UNL     1       9.239   4.635  24.292  0.00  0.00    +0.012 A 
ATOM     31  C   UNL     1      10.150   5.697  24.236  0.00  0.00    +0.039 A 
ATOM     32  C   UNL     1      11.434   5.484  23.757  0.00  0.00    +0.123 A 
ATOM     33  F   UNL     1      12.307   6.500  23.712  0.00  0.00    -0.205 F 
ATOM     34  C   UNL     1      11.822   4.233  23.305  0.00  0.00    +0.039 A 
ATOM     35  C   UNL     1      10.912   3.171  23.368  0.00  0.00    +0.012 A 
ENDBRANCH  26  29
ENDBRANCH  23  24
ENDBRANCH   3  23
TORSDOF 9
ENDMDL
MODEL 3
REMARK VINA RESULT:      -7.5      1.941      2.476
REMARK  Name = 
REMARK  10 active torsions:
REMARK  status: ('A' for Active; 'I' for Inactive)
REMARK    1  A    between atoms: C_2  and  C_17
REMARK    2  A    between atoms: C_4  and  C_6
REMARK    3  A    between atoms: C_6  and  O_7
REMARK    4  A    between atoms: C_8  and  O_10
REMARK    5  A    between atoms: C_11  and  O_13
REMARK    6  A    between atoms: C_14  and  O_16
REMARK    7  A    between atoms: C_20  and  C_21
REMARK    8  A    between atoms: C_22  and  C_23
REMARK    9  A    between atoms: C_23  and  C_24
REMARK   10  A    between atoms: C_27  and  C_29
REMARK                            x       y       z     vdW  Elec       q    Type
REMARK                         _______ _______ _______ _____ _____    ______ ____
ROOT
ATOM      1  C   UNL     1       6.714  -3.393  23.956  0.00  0.00    -0.016 A 
ATOM      2  C   UNL     1       7.648  -2.619  24.671  0.00  0.00    +0.010 A 
ATOM      3  C   UNL     1       8.670  -1.891  24.019  0.00  0.00    -0.039 A 
ATOM      4  C   UNL     1       8.723  -1.903  22.611  0.00  0.00    -0.047 A 
ATOM      5  C   UNL     1       9.823  -1.213  21.851  0.00  0.00    +0.044 C 
ATOM      6  C   UNL     1       7.760  -2.633  21.898  0.00  0.00    +0.004 A 
ATOM      7  C   UNL     1       6.772  -3.368  22.560  0.00  0.00    +0.006 A 
ENDROOT
BRANCH   1   8
ATOM      8  C   UNL     1       5.693  -4.255  24.694  0.00  0.00    +0.180 C 
ATOM      9  C   UNL     1       5.162  -5.422  23.828  0.00  0.00    +0.179 C 
ATOM     10  C   UNL     1       4.267  -6.344  24.678  0.00  0.00    +0.177 C 
ATOM     11  C   UNL     1       4.931  -6.747  25.996  0.00  0.00    +0.176 C 
ATOM     12  C   UNL     1       5.388  -5.481  26.732  0.00  0.00    +0.175 C 
ATOM     13  O   UNL     1       6.292  -4.732  25.917  0.00  0.00    -0.361 OA
BRANCH   9  14
ATOM     14  O   UNL     1       4.418  -4.898  22.712  0.00  0.00    -0.386 OA
ATOM     15  H   UNL     1       3.924  -4.116  23.011  0.00  0.00    +0.210 HD
ENDBRANCH   9  14
BRANCH  10  16
ATOM     16  O   UNL     1       3.913  -7.526  23.947  0.00  0.00    -0.386 OA
ATOM     17  H   UNL     1       3.615  -7.204  23.071  0.00  0.00    +0.210 HD
ENDBRANCH  10  16
BRANCH  11  18
ATOM     18  O   UNL     1       3.969  -7.511  26.739  0.00  0.00    -0.386 OA
ATOM     19  H   UNL     1       3.522  -6.883  27.349  0.00  0.00    +0.210 HD
ENDBRANCH  11  18
BRANCH  12  20
ATOM     20  C   UNL     1       6.077  -5.829  28.059  0.00  0.00    +0.190 C 
BRANCH  20  21
ATOM     21  O   UNL     1       7.480  -5.993  27.854  0.00  0.00    -0.392 OA
ATOM     22  H   UNL     1       7.701  -5.535  27.022  0.00  0.00    +0.210 HD
ENDBRANCH  20  21
ENDBRANCH  12  20
ENDBRANCH   1   8
BRANCH   3  23
ATOM     23  C   UNL     1       9.742  -1.218  24.855  0.00  0.00    +0.077 C 
BRANCH  23  24
ATOM     24  C   UNL     1       9.961   0.257  24.653  0.00  0.00    -0.005 A 
ATOM     25  S   UNL     1       8.588   1.283  24.643  0.00  0.00    -0.093 S 
ATOM     26  C   UNL     1       9.456   2.602  23.961  0.00  0.00    +0.020 A 
ATOM     27  C   UNL     1      10.815   2.325  23.985  0.00  0.00    +0.016 A 
ATOM     28  C   UNL     1      11.106   0.976  24.375  0.00  0.00    +0.012 A 
BRANCH  26  29
ATOM     29  C   UNL     1       8.738   3.787  23.445  0.00  0.00    -0.011 A 
ATOM     30  C   UNL     1       9.235   5.086  23.655  0.00  0.00    +0.012 A 
ATOM     31  C   UNL     1       8.598   6.198  23.089  0.00  0.00    +0.039 A 
ATOM     32  C   UNL     1       7.466   6.025  22.307  0.00  0.00    +0.123 A 
ATOM     33  F   UNL     1       6.862   7.090  21.761  0.00  0.00    -0.205 F 
ATOM     34  C   UNL     1       6.938   4.762  22.098  0.00  0.00    +0.039 A 
ATOM     35  C   UNL     1       7.580   3.651  22.658  0.00  0.00    +0.012 A 
ENDBRANCH  26  29
ENDBRANCH  23  24
ENDBRANCH   3  23
TORSDOF 9
ENDMDL
MODEL 4
REMARK VINA RESULT:      -7.4      4.855      8.759
REMARK  Name = 
REMARK  10 active torsions:
REMARK  status: ('A' for Active; 'I' for Inactive)
REMARK    1  A    between atoms: C_2  and  C_17
REMARK    2  A    between atoms: C_4  and  C_6
REMARK    3  A    between atoms: C_6  and  O_7
REMARK    4  A    between atoms: C_8  and  O_10
REMARK    5  A    between atoms: C_11  and  O_13
REMARK    6  A    between atoms: C_14  and  O_16
REMARK    7  A    between atoms: C_20  and  C_21
REMARK    8  A    between atoms: C_22  and  C_23
REMARK    9  A    between atoms: C_23  and  C_24
REMARK   10  A    between atoms: C_27  and  C_29
REMARK                            x       y       z     vdW  Elec       q    Type
REMARK                         _______ _______ _______ _____ _____    ______ ____
ROOT
ATOM      1  C   UNL     1       7.984   4.915  24.002  0.00  0.00    -0.016 A 
ATOM      2  C   UNL     1       8.832   3.811  23.794  0.00  0.00    +0.010 A 
ATOM      3  C   UNL     1      10.228   3.961  23.632  0.00  0.00    -0.039 A 
ATOM      4  C   UNL     1      10.791   5.249  23.731  0.00  0.00    -0.047 A 
ATOM      5  C   UNL     1      12.257   5.496  23.497  0.00  0.00    +0.044 C 
ATOM      6  C   UNL     1       9.951   6.342  23.989  0.00  0.00    +0.004 A 
ATOM      7  C   UNL     1       8.569   6.179  24.121  0.00  0.00    +0.006 A 
ENDROOT
BRANCH   1   8
ATOM      8  C   UNL     1       6.470   4.731  24.062  0.00  0.00    +0.180 C 
ATOM      9  C   UNL     1       5.834   4.562  22.661  0.00  0.00    +0.179 C 
ATOM     10  C   UNL     1       4.339   4.217  22.799  0.00  0.00    +0.177 C 
ATOM     11  C   UNL     1       4.094   3.070  23.779  0.00  0.00    +0.176 C 
ATOM     12  C   UNL     1       4.776   3.399  25.113  0.00  0.00    +0.175 C 
ATOM     13  O   UNL     1       6.177   3.606  24.916  0.00  0.00    -0.361 OA
BRANCH   9  14
ATOM     14  O   UNL     1       5.996   5.777  21.905  0.00  0.00    -0.386 OA
ATOM     15  H   UNL     1       5.130   6.213  21.833  0.00  0.00    +0.210 HD
ENDBRANCH   9  14
BRANCH  10  16
ATOM     16  O   UNL     1       3.775   3.880  21.525  0.00  0.00    -0.386 OA
ATOM     17  H   UNL     1       4.040   2.950  21.366  0.00  0.00    +0.210 HD
ENDBRANCH  10  16
BRANCH  11  18
ATOM     18  O   UNL     1       2.672   2.913  23.901  0.00  0.00    -0.386 OA
ATOM     19  H   UNL     1       2.325   3.762  24.257  0.00  0.00    +0.210 HD
ENDBRANCH  11  18
BRANCH  12  20
ATOM     20  C   UNL     1       4.574   2.269  26.133  0.00  0.00    +0.190 C 
BRANCH  20  21
ATOM     21  O   UNL     1       4.515   1.009  25.463  0.00  0.00    -0.392 OA
ATOM     22  H   UNL     1       4.788   0.331  26.109  0.00  0.00    +0.210 HD
ENDBRANCH  20  21
ENDBRANCH  12  20
ENDBRANCH   1   8
BRANCH   3  23
ATOM     23  C   UNL     1      11.059   2.752  23.244  0.00  0.00    +0.077 C 
BRANCH  23  24
ATOM     24  C   UNL     1      10.537   1.394  23.626  0.00  0.00    -0.005 A 
ATOM     25  S   UNL     1       9.591   0.540  22.479  0.00  0.00    -0.093 S 
ATOM     26  C   UNL     1       9.010  -0.580  23.647  0.00  0.00    +0.020 A 
ATOM     27  C   UNL     1       9.731  -0.442  24.823  0.00  0.00    +0.016 A 
ATOM     28  C   UNL     1      10.603   0.697  24.816  0.00  0.00    +0.012 A 
BRANCH  26  29
ATOM     29  C   UNL     1       7.888  -1.489  23.324  0.00  0.00    -0.011 A 
ATOM     30  C   UNL     1       8.032  -2.509  22.366  0.00  0.00    +0.012 A 
ATOM     31  C   UNL     1       6.996  -3.420  22.127  0.00  0.00    +0.039 A 
ATOM     32  C   UNL     1       5.812  -3.326  22.842  0.00  0.00    +0.123 A 
ATOM     33  F   UNL     1       4.823  -4.203  22.617  0.00  0.00    -0.205 F 
ATOM     34  C   UNL     1       5.628  -2.320  23.777  0.00  0.00    +0.039 A 
ATOM     35  C   UNL     1       6.668  -1.415  24.020  0.00  0.00    +0.012 A 
ENDBRANCH  26  29
ENDBRANCH  23  24
ENDBRANCH   3  23
TORSDOF 9
ENDMDL
MODEL 5
REMARK VINA RESULT:      -7.3      1.602      2.596
REMARK  Name = 
REMARK  10 active torsions:
REMARK  status: ('A' for Active; 'I' for Inactive)
REMARK    1  A    between atoms: C_2  and  C_17
REMARK    2  A    between atoms: C_4  and  C_6
REMARK    3  A    between atoms: C_6  and  O_7
REMARK    4  A    between atoms: C_8  and  O_10
REMARK    5  A    between atoms: C_11  and  O_13
REMARK    6  A    between atoms: C_14  and  O_16
REMARK    7  A    between atoms: C_20  and  C_21
REMARK    8  A    between atoms: C_22  and  C_23
REMARK    9  A    between atoms: C_23  and  C_24
REMARK   10  A    between atoms: C_27  and  C_29
REMARK                            x       y       z     vdW  Elec       q    Type
REMARK                         _______ _______ _______ _____ _____    ______ ____
ROOT
ATOM      1  C   UNL     1       6.292  -4.964  24.875  0.00  0.00    -0.016 A 
ATOM      2  C   UNL     1       5.956  -3.598  24.941  0.00  0.00    +0.010 A 
ATOM      3  C   UNL     1       6.453  -2.661  24.007  0.00  0.00    -0.039 A 
ATOM      4  C   UNL     1       7.268  -3.117  22.952  0.00  0.00    -0.047 A 
ATOM      5  C   UNL     1       7.891  -2.170  21.963  0.00  0.00    +0.044 C 
ATOM      6  C   UNL     1       7.558  -4.486  22.857  0.00  0.00    +0.004 A 
ATOM      7  C   UNL     1       7.080  -5.396  23.805  0.00  0.00    +0.006 A 
ENDROOT
BRANCH   1   8
ATOM      8  C   UNL     1       5.830  -5.931  25.963  0.00  0.00    +0.180 C 
ATOM      9  C   UNL     1       6.468  -5.628  27.339  0.00  0.00    +0.179 C 
ATOM     10  C   UNL     1       5.839  -6.528  28.421  0.00  0.00    +0.177 C 
ATOM     11  C   UNL     1       4.311  -6.506  28.381  0.00  0.00    +0.176 C 
ATOM     12  C   UNL     1       3.844  -6.835  26.957  0.00  0.00    +0.175 C 
ATOM     13  O   UNL     1       4.389  -5.896  26.027  0.00  0.00    -0.361 OA
BRANCH   9  14
ATOM     14  O   UNL     1       7.889  -5.849  27.274  0.00  0.00    -0.386 OA
ATOM     15  H   UNL     1       8.341  -5.042  27.577  0.00  0.00    +0.210 HD
ENDBRANCH   9  14
BRANCH  10  16
ATOM     16  O   UNL     1       6.284  -6.140  29.728  0.00  0.00    -0.386 OA
ATOM     17  H   UNL     1       7.257  -6.059  29.653  0.00  0.00    +0.210 HD
ENDBRANCH  10  16
BRANCH  11  18
ATOM     18  O   UNL     1       3.848  -7.453  29.355  0.00  0.00    -0.386 OA
ATOM     19  H   UNL     1       3.466  -6.931  30.096  0.00  0.00    +0.210 HD
ENDBRANCH  11  18
BRANCH  12  20
ATOM     20  C   UNL     1       2.312  -6.811  26.856  0.00  0.00    +0.190 C 
BRANCH  20  21
ATOM     21  O   UNL     1       1.779  -8.094  27.186  0.00  0.00    -0.392 OA
ATOM     22  H   UNL     1       0.823  -7.974  27.336  0.00  0.00    +0.210 HD
ENDBRANCH  20  21
ENDBRANCH  12  20
ENDBRANCH   1   8
BRANCH   3  23
ATOM     23  C   UNL     1       6.190  -1.184  24.235  0.00  0.00    +0.077 C 
BRANCH  23  24
ATOM     24  C   UNL     1       7.352  -0.326  24.656  0.00  0.00    -0.005 A 
ATOM     25  S   UNL     1       7.290   1.349  24.296  0.00  0.00    -0.093 S 
ATOM     26  C   UNL     1       8.966   1.577  24.603  0.00  0.00    +0.020 A 
ATOM     27  C   UNL     1       9.486   0.444  25.209  0.00  0.00    +0.016 A 
ATOM     28  C   UNL     1       8.562  -0.653  25.233  0.00  0.00    +0.012 A 
BRANCH  26  29
ATOM     29  C   UNL     1       9.638   2.836  24.211  0.00  0.00    -0.011 A 
ATOM     30  C   UNL     1       9.068   4.087  24.510  0.00  0.00    +0.012 A 
ATOM     31  C   UNL     1       9.749   5.274  24.214  0.00  0.00    +0.039 A 
ATOM     32  C   UNL     1      11.003   5.226  23.625  0.00  0.00    +0.123 A 
ATOM     33  F   UNL     1      11.657   6.363  23.349  0.00  0.00    -0.205 F 
ATOM     34  C   UNL     1      11.584   4.011  23.298  0.00  0.00    +0.039 A 
ATOM     35  C   UNL     1      10.905   2.825  23.600  0.00  0.00    +0.012 A 
ENDBRANCH  26  29
ENDBRANCH  23  24
ENDBRANCH   3  23
TORSDOF 9
ENDMDL
MODEL 6
REMARK VINA RESULT:      -7.2      3.671      5.140
REMARK  Name = 
REMARK  10 active torsions:
REMARK  status: ('A' for Active; 'I' for Inactive)
REMARK    1  A    between atoms: C_2  and  C_17
REMARK    2  A    between atoms: C_4  and  C_6
REMARK    3  A    between atoms: C_6  and  O_7
REMARK    4  A    between atoms: C_8  and  O_10
REMARK    5  A    between atoms: C_11  and  O_13
REMARK    6  A    between atoms: C_14  and  O_16
REMARK    7  A    between atoms: C_20  and  C_21
REMARK    8  A    between atoms: C_22  and  C_23
REMARK    9  A    between atoms: C_23  and  C_24
REMARK   10  A    between atoms: C_27  and  C_29
REMARK                            x       y       z     vdW  Elec       q    Type
REMARK                         _______ _______ _______ _____ _____    ______ ____
ROOT
ATOM      1  C   UNL     1       8.443  -2.077  23.207  0.00  0.00    -0.016 A 
ATOM      2  C   UNL     1       8.456  -0.996  24.109  0.00  0.00    +0.010 A 
ATOM      3  C   UNL     1       9.012   0.257  23.765  0.00  0.00    -0.039 A 
ATOM      4  C   UNL     1       9.521   0.443  22.464  0.00  0.00    -0.047 A 
ATOM      5  C   UNL     1      10.193   1.724  22.049  0.00  0.00    +0.044 C 
ATOM      6  C   UNL     1       9.460  -0.619  21.550  0.00  0.00    +0.004 A 
ATOM      7  C   UNL     1       8.931  -1.860  21.915  0.00  0.00    +0.006 A 
ENDROOT
BRANCH   1   8
ATOM      8  C   UNL     1       7.937  -3.448  23.646  0.00  0.00    +0.180 C 
ATOM      9  C   UNL     1       8.641  -3.961  24.926  0.00  0.00    +0.179 C 
ATOM     10  C   UNL     1       7.975  -5.264  25.407  0.00  0.00    +0.177 C 
ATOM     11  C   UNL     1       6.453  -5.144  25.493  0.00  0.00    +0.176 C 
ATOM     12  C   UNL     1       5.917  -4.638  24.148  0.00  0.00    +0.175 C 
ATOM     13  O   UNL     1       6.507  -3.377  23.821  0.00  0.00    -0.361 OA
BRANCH   9  14
ATOM     14  O   UNL     1      10.037  -4.187  24.655  0.00  0.00    -0.386 OA
ATOM     15  H   UNL     1      10.381  -4.817  25.311  0.00  0.00    +0.210 HD
ENDBRANCH   9  14
BRANCH  10  16
ATOM     16  O   UNL     1       8.491  -5.657  26.686  0.00  0.00    -0.386 OA
ATOM     17  H   UNL     1       8.589  -4.823  27.190  0.00  0.00    +0.210 HD
ENDBRANCH  10  16
BRANCH  11  18
ATOM     18  O   UNL     1       5.945  -6.438  25.847  0.00  0.00    -0.386 OA
ATOM     19  H   UNL     1       5.021  -6.304  26.154  0.00  0.00    +0.210 HD
ENDBRANCH  11  18
BRANCH  12  20
ATOM     20  C   UNL     1       4.390  -4.483  24.182  0.00  0.00    +0.190 C 
BRANCH  20  21
ATOM     21  O   UNL     1       3.853  -4.620  22.867  0.00  0.00    -0.392 OA
ATOM     22  H   UNL     1       4.139  -5.491  22.533  0.00  0.00    +0.210 HD
ENDBRANCH  20  21
ENDBRANCH  12  20
ENDBRANCH   1   8
BRANCH   3  23
ATOM     23  C   UNL     1       9.147   1.323  24.837  0.00  0.00    +0.077 C 
BRANCH  23  24
ATOM     24  C   UNL     1       8.216   2.503  24.770  0.00  0.00    -0.005 A 
ATOM     25  S   UNL     1       6.583   2.220  24.330  0.00  0.00    -0.093 S 
ATOM     26  C   UNL     1       6.274   3.883  24.026  0.00  0.00    +0.020 A 
ATOM     27  C   UNL     1       7.331   4.647  24.498  0.00  0.00    +0.016 A 
ATOM     28  C   UNL     1       8.450   3.855  24.919  0.00  0.00    +0.012 A 
BRANCH  26  29
ATOM     29  C   UNL     1       5.035   4.304  23.336  0.00  0.00    -0.011 A 
ATOM     30  C   UNL     1       4.772   5.661  23.076  0.00  0.00    +0.012 A 
ATOM     31  C   UNL     1       3.641   6.045  22.346  0.00  0.00    +0.039 A 
ATOM     32  C   UNL     1       2.765   5.084  21.866  0.00  0.00    +0.123 A 
ATOM     33  F   UNL     1       1.687   5.453  21.161  0.00  0.00    -0.205 F 
ATOM     34  C   UNL     1       2.983   3.739  22.122  0.00  0.00    +0.039 A 
ATOM     35  C   UNL     1       4.118   3.356  22.846  0.00  0.00    +0.012 A 
ENDBRANCH  26  29
ENDBRANCH  23  24
ENDBRANCH   3  23
TORSDOF 9
ENDMDL
MODEL 7
REMARK VINA RESULT:      -7.1      5.752      9.740
REMARK  Name = 
REMARK  10 active torsions:
REMARK  status: ('A' for Active; 'I' for Inactive)
REMARK    1  A    between atoms: C_2  and  C_17
REMARK    2  A    between atoms: C_4  and  C_6
REMARK    3  A    between atoms: C_6  and  O_7
REMARK    4  A    between atoms: C_8  and  O_10
REMARK    5  A    between atoms: C_11  and  O_13
REMARK    6  A    between atoms: C_14  and  O_16
REMARK    7  A    between atoms: C_20  and  C_21
REMARK    8  A    between atoms: C_22  and  C_23
REMARK    9  A    between atoms: C_23  and  C_24
REMARK   10  A    between atoms: C_27  and  C_29
REMARK                            x       y       z     vdW  Elec       q    Type
REMARK                         _______ _______ _______ _____ _____    ______ ____
ROOT
ATOM      1  C   UNL     1       8.011   2.360  23.044  0.00  0.00    -0.016 A 
ATOM      2  C   UNL     1       8.623   1.620  24.074  0.00  0.00    +0.010 A 
ATOM      3  C   UNL     1       9.394   0.466  23.807  0.00  0.00    -0.039 A 
ATOM      4  C   UNL     1       9.596   0.074  22.468  0.00  0.00    -0.047 A 
ATOM      5  C   UNL     1      10.342  -1.182  22.112  0.00  0.00    +0.044 C 
ATOM      6  C   UNL     1       9.029   0.843  21.441  0.00  0.00    +0.004 A 
ATOM      7  C   UNL     1       8.247   1.967  21.723  0.00  0.00    +0.006 A 
ENDROOT
BRANCH   1   8
ATOM      8  C   UNL     1       7.095   3.536  23.372  0.00  0.00    +0.180 C 
ATOM      9  C   UNL     1       7.254   4.710  22.376  0.00  0.00    +0.179 C 
ATOM     10  C   UNL     1       6.192   5.790  22.661  0.00  0.00    +0.177 C 
ATOM     11  C   UNL     1       4.783   5.205  22.776  0.00  0.00    +0.176 C 
ATOM     12  C   UNL     1       4.798   4.068  23.805  0.00  0.00    +0.175 C 
ATOM     13  O   UNL     1       5.734   3.059  23.417  0.00  0.00    -0.361 OA
BRANCH   9  14
ATOM     14  O   UNL     1       8.575   5.270  22.492  0.00  0.00    -0.386 OA
ATOM     15  H   UNL     1       8.701   5.577  23.406  0.00  0.00    +0.210 HD
ENDBRANCH   9  14
BRANCH  10  16
ATOM     16  O   UNL     1       6.204   6.797  21.641  0.00  0.00    -0.386 OA
ATOM     17  H   UNL     1       7.139   7.078  21.570  0.00  0.00    +0.210 HD
ENDBRANCH  10  16
BRANCH  11  18
ATOM     18  O   UNL     1       3.907   6.281  23.144  0.00  0.00    -0.386 OA
ATOM     19  H   UNL     1       3.744   6.803  22.326  0.00  0.00    +0.210 HD
ENDBRANCH  11  18
BRANCH  12  20
ATOM     20  C   UNL     1       3.407   3.433  23.950  0.00  0.00    +0.190 C 
BRANCH  20  21
ATOM     21  O   UNL     1       3.058   2.740  22.751  0.00  0.00    -0.392 OA
ATOM     22  H   UNL     1       3.497   1.871  22.787  0.00  0.00    +0.210 HD
ENDBRANCH  20  21
ENDBRANCH  12  20
ENDBRANCH   1   8
BRANCH   3  23
ATOM     23  C   UNL     1       9.882  -0.379  24.970  0.00  0.00    +0.077 C 
BRANCH  23  24
ATOM     24  C   UNL     1       8.910  -1.347  25.585  0.00  0.00    -0.005 A 
ATOM     25  S   UNL     1       8.775  -2.909  24.889  0.00  0.00    -0.093 S 
ATOM     26  C   UNL     1       7.306  -3.256  25.712  0.00  0.00    +0.020 A 
ATOM     27  C   UNL     1       7.076  -2.292  26.681  0.00  0.00    +0.016 A 
ATOM     28  C   UNL     1       7.992  -1.191  26.605  0.00  0.00    +0.012 A 
BRANCH  26  29
ATOM     29  C   UNL     1       6.491  -4.431  25.330  0.00  0.00    -0.011 A 
ATOM     30  C   UNL     1       6.019  -5.333  26.301  0.00  0.00    +0.012 A 
ATOM     31  C   UNL     1       5.176  -6.393  25.944  0.00  0.00    +0.039 A 
ATOM     32  C   UNL     1       4.793  -6.560  24.622  0.00  0.00    +0.123 A 
ATOM     33  F   UNL     1       3.981  -7.571  24.284  0.00  0.00    -0.205 F 
ATOM     34  C   UNL     1       5.257  -5.702  23.638  0.00  0.00    +0.039 A 
ATOM     35  C   UNL     1       6.094  -4.639  23.997  0.00  0.00    +0.012 A 
ENDBRANCH  26  29
ENDBRANCH  23  24
ENDBRANCH   3  23
TORSDOF 9
ENDMDL
MODEL 8
REMARK VINA RESULT:      -7.0      5.441      9.734
REMARK  Name = 
REMARK  10 active torsions:
REMARK  status: ('A' for Active; 'I' for Inactive)
REMARK    1  A    between atoms: C_2  and  C_17
REMARK    2  A    between atoms: C_4  and  C_6
REMARK    3  A    between atoms: C_6  and  O_7
REMARK    4  A    between atoms: C_8  and  O_10
REMARK    5  A    between atoms: C_11  and  O_13
REMARK    6  A    between atoms: C_14  and  O_16
REMARK    7  A    between atoms: C_20  and  C_21
REMARK    8  A    between atoms: C_22  and  C_23
REMARK    9  A    between atoms: C_23  and  C_24
REMARK   10  A    between atoms: C_27  and  C_29
REMARK                            x       y       z     vdW  Elec       q    Type
REMARK                         _______ _______ _______ _____ _____    ______ ____
ROOT
ATOM      1  C   UNL     1       8.172   1.360  24.010  0.00  0.00    -0.016 A 
ATOM      2  C   UNL     1       7.639   0.329  23.212  0.00  0.00    +0.010 A 
ATOM      3  C   UNL     1       8.256  -0.939  23.122  0.00  0.00    -0.039 A 
ATOM      4  C   UNL     1       9.408  -1.193  23.892  0.00  0.00    -0.047 A 
ATOM      5  C   UNL     1      10.159  -2.494  23.793  0.00  0.00    +0.044 C 
ATOM      6  C   UNL     1       9.907  -0.182  24.726  0.00  0.00    +0.004 A 
ATOM      7  C   UNL     1       9.300   1.075  24.784  0.00  0.00    +0.006 A 
ENDROOT
BRANCH   1   8
ATOM      8  C   UNL     1       7.546   2.752  23.999  0.00  0.00    +0.180 C 
ATOM      9  C   UNL     1       7.992   3.597  22.781  0.00  0.00    +0.179 C 
ATOM     10  C   UNL     1       7.203   4.919  22.739  0.00  0.00    +0.177 C 
ATOM     11  C   UNL     1       5.695   4.704  22.878  0.00  0.00    +0.176 C 
ATOM     12  C   UNL     1       5.426   3.864  24.133  0.00  0.00    +0.175 C 
ATOM     13  O   UNL     1       6.111   2.612  24.049  0.00  0.00    -0.361 OA
BRANCH   9  14
ATOM     14  O   UNL     1       9.404   3.862  22.865  0.00  0.00    -0.386 OA
ATOM     15  H   UNL     1       9.543   4.821  22.781  0.00  0.00    +0.210 HD
ENDBRANCH   9  14
BRANCH  10  16
ATOM     16  O   UNL     1       7.468   5.633  21.524  0.00  0.00    -0.386 OA
ATOM     17  H   UNL     1       8.044   5.038  20.999  0.00  0.00    +0.210 HD
ENDBRANCH  10  16
BRANCH  11  18
ATOM     18  O   UNL     1       5.085   6.002  22.931  0.00  0.00    -0.386 OA
ATOM     19  H   UNL     1       5.772   6.648  22.652  0.00  0.00    +0.210 HD
ENDBRANCH  11  18
BRANCH  12  20
ATOM     20  C   UNL     1       3.923   3.603  24.313  0.00  0.00    +0.190 C 
BRANCH  20  21
ATOM     21  O   UNL     1       3.484   2.610  23.387  0.00  0.00    -0.392 OA
ATOM     22  H   UNL     1       2.534   2.767  23.231  0.00  0.00    +0.210 HD
ENDBRANCH  20  21
ENDBRANCH  12  20
ENDBRANCH   1   8
BRANCH   3  23
ATOM     23  C   UNL     1       7.727  -1.945  22.116  0.00  0.00    +0.077 C 
BRANCH  23  24
ATOM     24  C   UNL     1       7.176  -3.240  22.648  0.00  0.00    -0.005 A 
ATOM     25  S   UNL     1       6.316  -3.203  24.131  0.00  0.00    -0.093 S 
ATOM     26  C   UNL     1       6.395  -4.909  24.332  0.00  0.00    +0.020 A 
ATOM     27  C   UNL     1       6.848  -5.495  23.160  0.00  0.00    +0.016 A 
ATOM     28  C   UNL     1       7.304  -4.537  22.194  0.00  0.00    +0.012 A 
BRANCH  26  29
ATOM     29  C   UNL     1       6.026  -5.532  25.623  0.00  0.00    -0.011 A 
ATOM     30  C   UNL     1       6.755  -5.261  26.795  0.00  0.00    +0.012 A 
ATOM     31  C   UNL     1       6.348  -5.784  28.028  0.00  0.00    +0.039 A 
ATOM     32  C   UNL     1       5.212  -6.575  28.106  0.00  0.00    +0.123 A 
ATOM     33  F   UNL     1       4.820  -7.068  29.289  0.00  0.00    -0.205 F 
ATOM     34  C   UNL     1       4.483  -6.878  26.968  0.00  0.00    +0.039 A 
ATOM     35  C   UNL     1       4.886  -6.349  25.736  0.00  0.00    +0.012 A 
ENDBRANCH  26  29
ENDBRANCH  23  24
ENDBRANCH   3  23
TORSDOF 9
ENDMDL
MODEL 9
REMARK VINA RESULT:      -6.8      2.583      3.827
REMARK  Name = 
REMARK  10 active torsions:
REMARK  status: ('A' for Active; 'I' for Inactive)
REMARK    1  A    between atoms: C_2  and  C_17
REMARK    2  A    between atoms: C_4  and  C_6
REMARK    3  A    between atoms: C_6  and  O_7
REMARK    4  A    between atoms: C_8  and  O_10
REMARK    5  A    between atoms: C_11  and  O_13
REMARK    6  A    between atoms: C_14  and  O_16
REMARK    7  A    between atoms: C_20  and  C_21
REMARK    8  A    between atoms: C_22  and  C_23
REMARK    9  A    between atoms: C_23  and  C_24
REMARK   10  A    between atoms: C_27  and  C_29
REMARK                            x       y       z     vdW  Elec       q    Type
REMARK                         _______ _______ _______ _____ _____    ______ ____
ROOT
ATOM      1  C   UNL     1       7.293  -4.504  24.667  0.00  0.00    -0.016 A 
ATOM      2  C   UNL     1       8.149  -3.477  25.110  0.00  0.00    +0.010 A 
ATOM      3  C   UNL     1       8.714  -2.539  24.216  0.00  0.00    -0.039 A 
ATOM      4  C   UNL     1       8.371  -2.605  22.851  0.00  0.00    -0.047 A 
ATOM      5  C   UNL     1       8.989  -1.688  21.831  0.00  0.00    +0.044 C 
ATOM      6  C   UNL     1       7.477  -3.597  22.420  0.00  0.00    +0.004 A 
ATOM      7  C   UNL     1       6.948  -4.533  23.313  0.00  0.00    +0.006 A 
ENDROOT
BRANCH   1   8
ATOM      8  C   UNL     1       6.788  -5.567  25.639  0.00  0.00    +0.180 C 
ATOM      9  C   UNL     1       7.081  -5.210  27.116  0.00  0.00    +0.179 C 
ATOM     10  C   UNL     1       6.406  -6.233  28.050  0.00  0.00    +0.177 C 
ATOM     11  C   UNL     1       4.933  -6.456  27.702  0.00  0.00    +0.176 C 
ATOM     12  C   UNL     1       4.820  -6.809  26.213  0.00  0.00    +0.175 C 
ATOM     13  O   UNL     1       5.378  -5.766  25.412  0.00  0.00    -0.361 OA
BRANCH   9  14
ATOM     14  O   UNL     1       8.504  -5.197  27.340  0.00  0.00    -0.386 OA
ATOM     15  H   UNL     1       8.710  -5.827  28.052  0.00  0.00    +0.210 HD
ENDBRANCH   9  14
BRANCH  10  16
ATOM     16  O   UNL     1       6.511  -5.821  29.419  0.00  0.00    -0.386 OA
ATOM     17  H   UNL     1       7.322  -5.274  29.459  0.00  0.00    +0.210 HD
ENDBRANCH  10  16
BRANCH  11  18
ATOM     18  O   UNL     1       4.447  -7.496  28.563  0.00  0.00    -0.386 OA
ATOM     19  H   UNL     1       4.412  -8.316  28.022  0.00  0.00    +0.210 HD
ENDBRANCH  11  18
BRANCH  12  20
ATOM     20  C   UNL     1       3.356  -7.029  25.806  0.00  0.00    +0.190 C 
BRANCH  20  21
ATOM     21  O   UNL     1       3.183  -8.350  25.293  0.00  0.00    -0.392 OA
ATOM     22  H   UNL     1       2.798  -8.885  26.011  0.00  0.00    +0.210 HD
ENDBRANCH  20  21
ENDBRANCH  12  20
ENDBRANCH   1   8
BRANCH   3  23
ATOM     23  C   UNL     1       9.758  -1.567  24.733  0.00  0.00    +0.077 C 
BRANCH  23  24
ATOM     24  C   UNL     1       9.507  -0.098  24.526  0.00  0.00    -0.005 A 
ATOM     25  S   UNL     1       7.894   0.471  24.652  0.00  0.00    -0.093 S 
ATOM     26  C   UNL     1       8.263   1.976  23.907  0.00  0.00    +0.020 A 
ATOM     27  C   UNL     1       9.639   2.119  23.805  0.00  0.00    +0.016 A 
ATOM     28  C   UNL     1      10.354   0.926  24.153  0.00  0.00    +0.012 A 
BRANCH  26  29
ATOM     29  C   UNL     1       7.180   2.884  23.470  0.00  0.00    -0.011 A 
ATOM     30  C   UNL     1       5.830   2.502  23.565  0.00  0.00    +0.012 A 
ATOM     31  C   UNL     1       4.806   3.397  23.231  0.00  0.00    +0.039 A 
ATOM     32  C   UNL     1       5.118   4.679  22.806  0.00  0.00    +0.123 A 
ATOM     33  F   UNL     1       4.137   5.538  22.494  0.00  0.00    -0.205 F 
ATOM     34  C   UNL     1       6.438   5.081  22.680  0.00  0.00    +0.039 A 
ATOM     35  C   UNL     1       7.460   4.187  23.021  0.00  0.00    +0.012 A 
ENDBRANCH  26  29
ENDBRANCH  23  24
ENDBRANCH   3  23
TORSDOF 9
ENDMDL
