MODEL 1
REMARK VINA RESULT:      -5.3      0.000      0.000
REMARK  Name = 
REMARK  3 active torsions:
REMARK  status: ('A' for Active; 'I' for Inactive)
REMARK    1  A    between atoms: O_1  and  C_2
REMARK    2  A    between atoms: C_5  and  N_11
REMARK    3  A    between atoms: C_7  and  N_8
REMARK                            x       y       z     vdW  Elec       q    Type
REMARK                         _______ _______ _______ _____ _____    ______ ____
ROOT
ATOM      1  C   UNL     1       9.646   0.873  22.084  0.00  0.00    +0.195 A 
ATOM      2  C   UNL     1       9.764   0.948  23.475  0.00  0.00    +0.320 A 
ATOM      3  C   UNL     1       9.709  -0.194  24.282  0.00  0.00    +0.172 A 
ATOM      4  C   UNL     1       9.514  -1.434  23.664  0.00  0.00    +0.280 A 
ATOM      5  C   UNL     1       9.388  -1.526  22.267  0.00  0.00    +0.088 A 
ATOM      6  C   UNL     1       9.456  -0.370  21.480  0.00  0.00    +0.059 A 
ENDROOT
BRANCH   2   7
ATOM      7  N   UNL     1       9.946   2.231  24.122  0.00  0.00    +0.084 N 
ATOM      8  O   UNL     1       9.047   2.599  24.889  0.00  0.00    +0.042 OA
ATOM      9  O   UNL     1      10.943   2.893  23.804  0.00  0.00    -0.576 OA
ENDBRANCH   2   7
BRANCH   4  10
ATOM     10  N   UNL     1       9.433  -2.651  24.482  0.00  0.00    +0.080 N 
ATOM     11  O   UNL     1      10.140  -3.612  24.152  0.00  0.00    +0.041 OA
ATOM     12  O   UNL     1       8.665  -2.639  25.455  0.00  0.00    -0.576 OA
ENDBRANCH   4  10
BRANCH   1  13
ATOM     13  O   UNL     1       9.737   1.994  21.314  0.00  0.00    -0.501 OA
ATOM     14  H   UNL     1      10.552   2.483  21.521  0.00  0.00    +0.292 HD
ENDBRANCH   1  13
TORSDOF 3
ENDMDL
MODEL 2
REMARK VINA RESULT:      -5.1      4.982      6.710
REMARK  Name = 
REMARK  3 active torsions:
REMARK  status: ('A' for Active; 'I' for Inactive)
REMARK    1  A    between atoms: O_1  and  C_2
REMARK    2  A    between atoms: C_5  and  N_11
REMARK    3  A    between atoms: C_7  and  N_8
REMARK                            x       y       z     vdW  Elec       q    Type
REMARK                         _______ _______ _______ _____ _____    ______ ____
ROOT
ATOM      1  C   UNL     1       7.509  -5.338  26.078  0.00  0.00    +0.195 A 
ATOM      2  C   UNL     1       8.009  -4.749  24.913  0.00  0.00    +0.320 A 
ATOM      3  C   UNL     1       7.179  -4.431  23.832  0.00  0.00    +0.172 A 
ATOM      4  C   UNL     1       5.816  -4.732  23.932  0.00  0.00    +0.280 A 
ATOM      5  C   UNL     1       5.298  -5.330  25.094  0.00  0.00    +0.088 A 
ATOM      6  C   UNL     1       6.147  -5.630  26.166  0.00  0.00    +0.059 A 
ENDROOT
BRANCH   2   7
ATOM      7  N   UNL     1       9.423  -4.453  24.795  0.00  0.00    +0.084 N 
ATOM      8  O   UNL     1       9.724  -3.410  24.201  0.00  0.00    +0.042 OA
ATOM      9  O   UNL     1      10.218  -5.297  25.226  0.00  0.00    -0.576 OA
ENDBRANCH   2   7
BRANCH   4  10
ATOM     10  N   UNL     1       4.919  -4.428  22.810  0.00  0.00    +0.080 N 
ATOM     11  O   UNL     1       3.864  -5.070  22.729  0.00  0.00    +0.041 OA
ATOM     12  O   UNL     1       5.271  -3.545  22.015  0.00  0.00    -0.576 OA
ENDBRANCH   4  10
BRANCH   1  13
ATOM     13  O   UNL     1       8.330  -5.608  27.131  0.00  0.00    -0.501 OA
ATOM     14  H   UNL     1       9.255  -5.419  26.899  0.00  0.00    +0.292 HD
ENDBRANCH   1  13
TORSDOF 3
ENDMDL
MODEL 3
REMARK VINA RESULT:      -5.0      5.842      7.051
REMARK  Name = 
REMARK  3 active torsions:
REMARK  status: ('A' for Active; 'I' for Inactive)
REMARK    1  A    between atoms: O_1  and  C_2
REMARK    2  A    between atoms: C_5  and  N_11
REMARK    3  A    between atoms: C_7  and  N_8
REMARK                            x       y       z     vdW  Elec       q    Type
REMARK                         _______ _______ _______ _____ _____    ______ ____
ROOT
ATOM      1  C   UNL     1       5.224  -5.879  23.510  0.00  0.00    +0.195 A 
ATOM      2  C   UNL     1       6.489  -5.288  23.453  0.00  0.00    +0.320 A 
ATOM      3  C   UNL     1       7.272  -5.108  24.599  0.00  0.00    +0.172 A 
ATOM      4  C   UNL     1       6.751  -5.524  25.829  0.00  0.00    +0.280 A 
ATOM      5  C   UNL     1       5.478  -6.115  25.904  0.00  0.00    +0.088 A 
ATOM      6  C   UNL     1       4.717  -6.293  24.742  0.00  0.00    +0.059 A 
ENDROOT
BRANCH   2   7
ATOM      7  N   UNL     1       7.026  -4.837  22.184  0.00  0.00    +0.084 N 
ATOM      8  O   UNL     1       7.221  -5.704  21.323  0.00  0.00    +0.042 OA
ATOM      9  O   UNL     1       7.319  -3.639  22.085  0.00  0.00    -0.576 OA
ENDBRANCH   2   7
BRANCH   4  10
ATOM     10  N   UNL     1       7.538  -5.336  27.054  0.00  0.00    +0.080 N 
ATOM     11  O   UNL     1       7.223  -6.004  28.047  0.00  0.00    +0.041 OA
ATOM     12  O   UNL     1       8.473  -4.522  27.017  0.00  0.00    -0.576 OA
ENDBRANCH   4  10
BRANCH   1  13
ATOM     13  O   UNL     1       4.492  -6.074  22.377  0.00  0.00    -0.501 OA
ATOM     14  H   UNL     1       3.569  -5.804  22.517  0.00  0.00    +0.292 HD
ENDBRANCH   1  13
TORSDOF 3
ENDMDL
MODEL 4
REMARK VINA RESULT:      -4.9      5.912      7.270
REMARK  Name = 
REMARK  3 active torsions:
REMARK  status: ('A' for Active; 'I' for Inactive)
REMARK    1  A    between atoms: O_1  and  C_2
REMARK    2  A    between atoms: C_5  and  N_11
REMARK    3  A    between atoms: C_7  and  N_8
REMARK                            x       y       z     vdW  Elec       q    Type
REMARK                         _______ _______ _______ _____ _____    ______ ____
ROOT
ATOM      1  C   UNL     1       8.078  -5.191  25.677  0.00  0.00    +0.195 A 
ATOM      2  C   UNL     1       6.725  -5.395  25.960  0.00  0.00    +0.320 A 
ATOM      3  C   UNL     1       5.732  -5.205  24.992  0.00  0.00    +0.172 A 
ATOM      4  C   UNL     1       6.123  -4.785  23.716  0.00  0.00    +0.280 A 
ATOM      5  C   UNL     1       7.479  -4.570  23.417  0.00  0.00    +0.088 A 
ATOM      6  C   UNL     1       8.455  -4.776  24.399  0.00  0.00    +0.059 A 
ENDROOT
BRANCH   2   7
ATOM      7  N   UNL     1       6.312  -5.811  27.285  0.00  0.00    +0.084 N 
ATOM      8  O   UNL     1       5.623  -6.837  27.357  0.00  0.00    +0.042 OA
ATOM      9  O   UNL     1       6.611  -5.072  28.232  0.00  0.00    -0.576 OA
ENDBRANCH   2   7
BRANCH   4  10
ATOM     10  N   UNL     1       5.106  -4.560  22.680  0.00  0.00    +0.080 N 
ATOM     11  O   UNL     1       4.152  -5.346  22.633  0.00  0.00    +0.041 OA
ATOM     12  O   UNL     1       5.264  -3.593  21.920  0.00  0.00    -0.576 OA
ENDBRANCH   4  10
BRANCH   1  13
ATOM     13  O   UNL     1       9.031  -5.414  26.626  0.00  0.00    -0.501 OA
ATOM     14  H   UNL     1       9.278  -4.581  27.062  0.00  0.00    +0.292 HD
ENDBRANCH   1  13
TORSDOF 3
ENDMDL
MODEL 5
REMARK VINA RESULT:      -4.8      3.936      5.820
REMARK  Name = 
REMARK  3 active torsions:
REMARK  status: ('A' for Active; 'I' for Inactive)
REMARK    1  A    between atoms: O_1  and  C_2
REMARK    2  A    between atoms: C_5  and  N_11
REMARK    3  A    between atoms: C_7  and  N_8
REMARK                            x       y       z     vdW  Elec       q    Type
REMARK                         _______ _______ _______ _____ _____    ______ ____
ROOT
ATOM      1  C   UNL     1       8.522  -3.000  23.848  0.00  0.00    +0.195 A 
ATOM      2  C   UNL     1       8.342  -4.352  24.154  0.00  0.00    +0.320 A 
ATOM      3  C   UNL     1       7.432  -5.152  23.453  0.00  0.00    +0.172 A 
ATOM      4  C   UNL     1       6.680  -4.561  22.432  0.00  0.00    +0.280 A 
ATOM      5  C   UNL     1       6.845  -3.202  22.116  0.00  0.00    +0.088 A 
ATOM      6  C   UNL     1       7.768  -2.424  22.825  0.00  0.00    +0.059 A 
ENDROOT
BRANCH   2   7
ATOM      7  N   UNL     1       9.104  -4.964  25.224  0.00  0.00    +0.084 N 
ATOM      8  O   UNL     1      10.326  -5.057  25.053  0.00  0.00    +0.042 OA
ATOM      9  O   UNL     1       8.470  -5.415  26.187  0.00  0.00    -0.576 OA
ENDBRANCH   2   7
BRANCH   4  10
ATOM     10  N   UNL     1       5.704  -5.367  21.688  0.00  0.00    +0.080 N 
ATOM     11  O   UNL     1       5.969  -5.647  20.512  0.00  0.00    +0.041 OA
ATOM     12  O   UNL     1       4.677  -5.721  22.285  0.00  0.00    -0.576 OA
ENDBRANCH   4  10
BRANCH   1  13
ATOM     13  O   UNL     1       9.437  -2.247  24.521  0.00  0.00    -0.501 OA
ATOM     14  H   UNL     1       9.994  -1.751  23.897  0.00  0.00    +0.292 HD
ENDBRANCH   1  13
TORSDOF 3
ENDMDL
MODEL 6
REMARK VINA RESULT:      -4.8      1.350      4.265
REMARK  Name = 
REMARK  3 active torsions:
REMARK  status: ('A' for Active; 'I' for Inactive)
REMARK    1  A    between atoms: O_1  and  C_2
REMARK    2  A    between atoms: C_5  and  N_11
REMARK    3  A    between atoms: C_7  and  N_8
REMARK                            x       y       z     vdW  Elec       q    Type
REMARK                         _______ _______ _______ _____ _____    ______ ____
ROOT
ATOM      1  C   UNL     1       9.662  -0.667  22.186  0.00  0.00    +0.195 A 
ATOM      2  C   UNL     1       9.419  -0.808  23.555  0.00  0.00    +0.320 A 
ATOM      3  C   UNL     1       9.146   0.294  24.374  0.00  0.00    +0.172 A 
ATOM      4  C   UNL     1       9.134   1.565  23.790  0.00  0.00    +0.280 A 
ATOM      5  C   UNL     1       9.381   1.725  22.416  0.00  0.00    +0.088 A 
ATOM      6  C   UNL     1       9.643   0.606  21.616  0.00  0.00    +0.059 A 
ENDROOT
BRANCH   2   7
ATOM      7  N   UNL     1       9.450  -2.121  24.169  0.00  0.00    +0.084 N 
ATOM      8  O   UNL     1       8.628  -2.332  25.071  0.00  0.00    +0.042 OA
ATOM      9  O   UNL     1      10.339  -2.900  23.803  0.00  0.00    -0.576 OA
ENDBRANCH   2   7
BRANCH   4  10
ATOM     10  N   UNL     1       8.868   2.746  24.622  0.00  0.00    +0.080 N 
ATOM     11  O   UNL     1       8.090   2.612  25.575  0.00  0.00    +0.041 OA
ATOM     12  O   UNL     1       9.443   3.802  24.321  0.00  0.00    -0.576 OA
ENDBRANCH   4  10
BRANCH   1  13
ATOM     13  O   UNL     1       9.892  -1.758  21.402  0.00  0.00    -0.501 OA
ATOM     14  H   UNL     1      10.005  -1.491  20.473  0.00  0.00    +0.292 HD
ENDBRANCH   1  13
TORSDOF 3
ENDMDL
MODEL 7
REMARK VINA RESULT:      -4.8      4.571      5.944
REMARK  Name = 
REMARK  3 active torsions:
REMARK  status: ('A' for Active; 'I' for Inactive)
REMARK    1  A    between atoms: O_1  and  C_2
REMARK    2  A    between atoms: C_5  and  N_11
REMARK    3  A    between atoms: C_7  and  N_8
REMARK                            x       y       z     vdW  Elec       q    Type
REMARK                         _______ _______ _______ _____ _____    ______ ____
ROOT
ATOM      1  C   UNL     1       7.990  -3.258  23.169  0.00  0.00    +0.195 A 
ATOM      2  C   UNL     1       7.115  -4.342  23.052  0.00  0.00    +0.320 A 
ATOM      3  C   UNL     1       6.727  -5.101  24.162  0.00  0.00    +0.172 A 
ATOM      4  C   UNL     1       7.252  -4.759  25.413  0.00  0.00    +0.280 A 
ATOM      5  C   UNL     1       8.137  -3.675  25.548  0.00  0.00    +0.088 A 
ATOM      6  C   UNL     1       8.502  -2.926  24.424  0.00  0.00    +0.059 A 
ENDROOT
BRANCH   2   7
ATOM      7  N   UNL     1       6.584  -4.713  21.755  0.00  0.00    +0.084 N 
ATOM      8  O   UNL     1       7.026  -5.753  21.251  0.00  0.00    +0.042 OA
ATOM      9  O   UNL     1       5.792  -3.928  21.219  0.00  0.00    -0.576 OA
ENDBRANCH   2   7
BRANCH   4  10
ATOM     10  N   UNL     1       6.880  -5.544  26.597  0.00  0.00    +0.080 N 
ATOM     11  O   UNL     1       5.978  -6.382  26.470  0.00  0.00    +0.041 OA
ATOM     12  O   UNL     1       7.494  -5.322  27.651  0.00  0.00    -0.576 OA
ENDBRANCH   4  10
BRANCH   1  13
ATOM     13  O   UNL     1       8.328  -2.512  22.080  0.00  0.00    -0.501 OA
ATOM     14  H   UNL     1       9.289  -2.370  22.050  0.00  0.00    +0.292 HD
ENDBRANCH   1  13
TORSDOF 3
ENDMDL
MODEL 8
REMARK VINA RESULT:      -4.7      3.619      5.841
REMARK  Name = 
REMARK  3 active torsions:
REMARK  status: ('A' for Active; 'I' for Inactive)
REMARK    1  A    between atoms: O_1  and  C_2
REMARK    2  A    between atoms: C_5  and  N_11
REMARK    3  A    between atoms: C_7  and  N_8
REMARK                            x       y       z     vdW  Elec       q    Type
REMARK                         _______ _______ _______ _____ _____    ______ ____
ROOT
ATOM      1  C   UNL     1       6.944  -4.795  23.948  0.00  0.00    +0.195 A 
ATOM      2  C   UNL     1       6.774  -3.805  22.976  0.00  0.00    +0.320 A 
ATOM      3  C   UNL     1       7.744  -2.822  22.747  0.00  0.00    +0.172 A 
ATOM      4  C   UNL     1       8.902  -2.838  23.533  0.00  0.00    +0.280 A 
ATOM      5  C   UNL     1       9.085  -3.824  24.518  0.00  0.00    +0.088 A 
ATOM      6  C   UNL     1       8.105  -4.803  24.721  0.00  0.00    +0.059 A 
ENDROOT
BRANCH   2   7
ATOM      7  N   UNL     1       5.568  -3.771  22.173  0.00  0.00    +0.084 N 
ATOM      8  O   UNL     1       4.495  -3.887  22.778  0.00  0.00    +0.042 OA
ATOM      9  O   UNL     1       5.704  -3.705  20.945  0.00  0.00    -0.576 OA
ENDBRANCH   2   7
BRANCH   4  10
ATOM     10  N   UNL     1       9.933  -1.812  23.331  0.00  0.00    +0.080 N 
ATOM     11  O   UNL     1      10.132  -1.011  24.253  0.00  0.00    +0.041 OA
ATOM     12  O   UNL     1      10.542  -1.813  22.252  0.00  0.00    -0.576 OA
ENDBRANCH   4  10
BRANCH   1  13
ATOM     13  O   UNL     1       6.001  -5.762  24.131  0.00  0.00    -0.501 OA
ATOM     14  H   UNL     1       6.344  -6.465  24.710  0.00  0.00    +0.292 HD
ENDBRANCH   1  13
TORSDOF 3
ENDMDL
MODEL 9
REMARK VINA RESULT:      -4.7      4.639      7.087
REMARK  Name = 
REMARK  3 active torsions:
REMARK  status: ('A' for Active; 'I' for Inactive)
REMARK    1  A    between atoms: O_1  and  C_2
REMARK    2  A    between atoms: C_5  and  N_11
REMARK    3  A    between atoms: C_7  and  N_8
REMARK                            x       y       z     vdW  Elec       q    Type
REMARK                         _______ _______ _______ _____ _____    ______ ____
ROOT
ATOM      1  C   UNL     1       7.793  -5.333  26.457  0.00  0.00    +0.195 A 
ATOM      2  C   UNL     1       6.591  -5.232  25.751  0.00  0.00    +0.320 A 
ATOM      3  C   UNL     1       6.524  -4.629  24.490  0.00  0.00    +0.172 A 
ATOM      4  C   UNL     1       7.700  -4.105  23.943  0.00  0.00    +0.280 A 
ATOM      5  C   UNL     1       8.916  -4.194  24.642  0.00  0.00    +0.088 A 
ATOM      6  C   UNL     1       8.960  -4.810  25.898  0.00  0.00    +0.059 A 
ENDROOT
BRANCH   2   7
ATOM      7  N   UNL     1       5.365  -5.754  26.321  0.00  0.00    +0.084 N 
ATOM      8  O   UNL     1       4.428  -4.956  26.451  0.00  0.00    +0.042 OA
ATOM      9  O   UNL     1       5.372  -6.931  26.704  0.00  0.00    -0.576 OA
ENDBRANCH   2   7
BRANCH   4  10
ATOM     10  N   UNL     1       7.664  -3.451  22.629  0.00  0.00    +0.080 N 
ATOM     11  O   UNL     1       8.520  -2.589  22.393  0.00  0.00    +0.041 OA
ATOM     12  O   UNL     1       6.779  -3.804  21.835  0.00  0.00    -0.576 OA
ENDBRANCH   4  10
BRANCH   1  13
ATOM     13  O   UNL     1       7.841  -5.954  27.669  0.00  0.00    -0.501 OA
ATOM     14  H   UNL     1       8.564  -5.590  28.208  0.00  0.00    +0.292 HD
ENDBRANCH   1  13
TORSDOF 3
ENDMDL
