MODEL 1
REMARK VINA RESULT:      -7.6      0.000      0.000
REMARK  Name = 
REMARK  6 active torsions:
REMARK  status: ('A' for Active; 'I' for Inactive)
REMARK    1  A    between atoms: C_1  and  C_2
REMARK    2  A    between atoms: C_2  and  C_3
REMARK    3  A    between atoms: C_2  and  C_4
REMARK    4  A    between atoms: C_11  and  N_12
REMARK    5  A    between atoms: C_13  and  C_18
REMARK    6  A    between atoms: C_18  and  O_19
REMARK                            x       y       z     vdW  Elec       q    Type
REMARK                         _______ _______ _______ _____ _____    ______ ____
ROOT
ATOM      1  C   UNL     1       8.440   2.061  22.671  0.00  0.00    -0.044 A 
ATOM      2  C   UNL     1       9.673   1.631  22.151  0.00  0.00    +0.007 A 
ATOM      3  C   UNL     1      10.169   0.350  22.437  0.00  0.00    +0.047 A 
ATOM      4  C   UNL     1       9.440  -0.522  23.245  0.00  0.00    +0.141 A 
ATOM      5  O   UNL     1       9.958  -1.777  23.463  0.00  0.00    -0.437 OA
ATOM      6  C   UNL     1       9.236  -2.662  24.238  0.00  0.00    +0.233 A 
ATOM      7  C   UNL     1       8.023  -2.339  24.818  0.00  0.00    +0.085 A 
ATOM      8  C   UNL     1       7.466  -1.005  24.619  0.00  0.00    +0.202 A 
ATOM      9  O   UNL     1       6.408  -0.688  25.147  0.00  0.00    -0.286 OA
ATOM     10  C   UNL     1       7.347  -3.283  25.586  0.00  0.00    +0.035 A 
ATOM     11  C   UNL     1       7.937  -4.529  25.788  0.00  0.00    +0.099 A 
ATOM     12  C   UNL     1       9.166  -4.795  25.167  0.00  0.00    +0.134 A 
ATOM     13  N   UNL     1       9.811  -3.877  24.405  0.00  0.00    -0.197 NA
ATOM     14  C   UNL     1       8.232  -0.083  23.783  0.00  0.00    +0.065 A 
ATOM     15  C   UNL     1       7.735   1.192  23.512  0.00  0.00    +0.019 A 
ENDROOT
BRANCH   1  17
ATOM     16  C   UNL     1       6.332   3.312  22.143  0.00  0.00    +0.012 C 
ATOM     17  C   UNL     1       7.856   3.408  22.279  0.00  0.00    +0.013 C 
ATOM     18  C   UNL     1       8.233   4.520  23.263  0.00  0.00    +0.012 C 
ENDBRANCH   1  17
BRANCH  12  19
ATOM     19  N   UNL     1       9.874  -5.970  25.399  0.00  0.00    -0.342 N 
ATOM     20  H   UNL     1       9.702  -6.360  26.328  0.00  0.00    +0.144 HD
ATOM     21  H   UNL     1       9.724  -6.627  24.641  0.00  0.00    +0.144 HD
ENDBRANCH  12  19
BRANCH  11  22
ATOM     22  C   UNL     1       7.239  -5.587  26.553  0.00  0.00    +0.340 C 
ATOM     23  O   UNL     1       6.208  -6.110  26.160  0.00  0.00    -0.245 OA
BRANCH  22  24
ATOM     24  O   UNL     1       7.821  -5.911  27.728  0.00  0.00    -0.477 OA
ATOM     25  H   UNL     1       8.540  -5.331  28.039  0.00  0.00    +0.295 HD
ENDBRANCH  22  24
ENDBRANCH  11  22
TORSDOF 4
ENDMDL
MODEL 2
REMARK VINA RESULT:      -7.6      1.851      2.157
REMARK  Name = 
REMARK  6 active torsions:
REMARK  status: ('A' for Active; 'I' for Inactive)
REMARK    1  A    between atoms: C_1  and  C_2
REMARK    2  A    between atoms: C_2  and  C_3
REMARK    3  A    between atoms: C_2  and  C_4
REMARK    4  A    between atoms: C_11  and  N_12
REMARK    5  A    between atoms: C_13  and  C_18
REMARK    6  A    between atoms: C_18  and  O_19
REMARK                            x       y       z     vdW  Elec       q    Type
REMARK                         _______ _______ _______ _____ _____    ______ ____
ROOT
ATOM      1  C   UNL     1      10.222   2.455  23.511  0.00  0.00    -0.044 A 
ATOM      2  C   UNL     1      10.089   2.117  22.153  0.00  0.00    +0.007 A 
ATOM      3  C   UNL     1       9.644   0.844  21.766  0.00  0.00    +0.047 A 
ATOM      4  C   UNL     1       9.323  -0.111  22.730  0.00  0.00    +0.141 A 
ATOM      5  O   UNL     1       8.859  -1.329  22.293  0.00  0.00    -0.437 OA
ATOM      6  C   UNL     1       8.510  -2.277  23.235  0.00  0.00    +0.233 A 
ATOM      7  C   UNL     1       8.620  -2.061  24.596  0.00  0.00    +0.085 A 
ATOM      8  C   UNL     1       9.132  -0.785  25.081  0.00  0.00    +0.202 A 
ATOM      9  O   UNL     1       9.266  -0.583  26.281  0.00  0.00    -0.286 OA
ATOM     10  C   UNL     1       8.247  -3.062  25.490  0.00  0.00    +0.035 A 
ATOM     11  C   UNL     1       7.806  -4.283  24.982  0.00  0.00    +0.099 A 
ATOM     12  C   UNL     1       7.712  -4.434  23.592  0.00  0.00    +0.134 A 
ATOM     13  N   UNL     1       8.060  -3.450  22.727  0.00  0.00    -0.197 NA
ATOM     14  C   UNL     1       9.483   0.216  24.074  0.00  0.00    +0.065 A 
ATOM     15  C   UNL     1       9.933   1.476  24.469  0.00  0.00    +0.019 A 
ENDROOT
BRANCH   1  17
ATOM     16  C   UNL     1      11.871   4.317  23.192  0.00  0.00    +0.012 C 
ATOM     17  C   UNL     1      10.606   3.864  23.931  0.00  0.00    +0.013 C 
ATOM     18  C   UNL     1       9.472   4.871  23.712  0.00  0.00    +0.012 C 
ENDBRANCH   1  17
BRANCH  12  19
ATOM     19  N   UNL     1       7.384  -5.650  22.999  0.00  0.00    -0.342 N 
ATOM     20  H   UNL     1       6.448  -5.974  23.252  0.00  0.00    +0.144 HD
ATOM     21  H   UNL     1       7.553  -5.612  22.000  0.00  0.00    +0.144 HD
ENDBRANCH  12  19
BRANCH  11  22
ATOM     22  C   UNL     1       7.348  -5.362  25.887  0.00  0.00    +0.340 C 
ATOM     23  O   UNL     1       6.202  -5.782  25.881  0.00  0.00    -0.245 OA
BRANCH  22  24
ATOM     24  O   UNL     1       8.293  -5.829  26.732  0.00  0.00    -0.477 OA
ATOM     25  H   UNL     1       8.265  -5.502  27.650  0.00  0.00    +0.295 HD
ENDBRANCH  22  24
ENDBRANCH  11  22
TORSDOF 4
ENDMDL
MODEL 3
REMARK VINA RESULT:      -7.1      1.998      2.933
REMARK  Name = 
REMARK  6 active torsions:
REMARK  status: ('A' for Active; 'I' for Inactive)
REMARK    1  A    between atoms: C_1  and  C_2
REMARK    2  A    between atoms: C_2  and  C_3
REMARK    3  A    between atoms: C_2  and  C_4
REMARK    4  A    between atoms: C_11  and  N_12
REMARK    5  A    between atoms: C_13  and  C_18
REMARK    6  A    between atoms: C_18  and  O_19
REMARK                            x       y       z     vdW  Elec       q    Type
REMARK                         _______ _______ _______ _____ _____    ______ ____
ROOT
ATOM      1  C   UNL     1       9.017   3.808  23.513  0.00  0.00    -0.044 A 
ATOM      2  C   UNL     1       8.007   3.654  22.549  0.00  0.00    +0.007 A 
ATOM      3  C   UNL     1       7.499   2.385  22.231  0.00  0.00    +0.047 A 
ATOM      4  C   UNL     1       7.992   1.250  22.875  0.00  0.00    +0.141 A 
ATOM      5  O   UNL     1       7.434   0.037  22.549  0.00  0.00    -0.437 OA
ATOM      6  C   UNL     1       7.891  -1.093  23.197  0.00  0.00    +0.233 A 
ATOM      7  C   UNL     1       8.895  -1.062  24.148  0.00  0.00    +0.085 A 
ATOM      8  C   UNL     1       9.518   0.211  24.492  0.00  0.00    +0.202 A 
ATOM      9  O   UNL     1      10.428   0.258  25.308  0.00  0.00    -0.286 OA
ATOM     10  C   UNL     1       9.304  -2.242  24.764  0.00  0.00    +0.035 A 
ATOM     11  C   UNL     1       8.714  -3.442  24.372  0.00  0.00    +0.099 A 
ATOM     12  C   UNL     1       7.697  -3.404  23.407  0.00  0.00    +0.134 A 
ATOM     13  N   UNL     1       7.290  -2.249  22.824  0.00  0.00    -0.197 NA
ATOM     14  C   UNL     1       9.013   1.403  23.810  0.00  0.00    +0.065 A 
ATOM     15  C   UNL     1       9.531   2.659  24.126  0.00  0.00    +0.019 A 
ENDROOT
BRANCH   1  17
ATOM     16  C   UNL     1      11.003   5.327  23.699  0.00  0.00    +0.012 C 
ATOM     17  C   UNL     1       9.494   5.190  23.929  0.00  0.00    +0.013 C 
ATOM     18  C   UNL     1       8.742   6.312  23.208  0.00  0.00    +0.012 C 
ENDBRANCH   1  17
BRANCH  12  19
ATOM     19  N   UNL     1       7.129  -4.561  22.884  0.00  0.00    -0.342 N 
ATOM     20  H   UNL     1       7.000  -5.292  23.586  0.00  0.00    +0.144 HD
ATOM     21  H   UNL     1       6.288  -4.336  22.362  0.00  0.00    +0.144 HD
ENDBRANCH  12  19
BRANCH  11  22
ATOM     22  C   UNL     1       9.075  -4.718  25.031  0.00  0.00    +0.340 C 
ATOM     23  O   UNL     1       8.292  -5.340  25.731  0.00  0.00    -0.245 OA
BRANCH  22  24
ATOM     24  O   UNL     1      10.344  -5.127  24.811  0.00  0.00    -0.477 OA
ATOM     25  H   UNL     1      11.045  -4.454  24.895  0.00  0.00    +0.295 HD
ENDBRANCH  22  24
ENDBRANCH  11  22
TORSDOF 4
ENDMDL
MODEL 4
REMARK VINA RESULT:      -7.0      2.816      3.103
REMARK  Name = 
REMARK  6 active torsions:
REMARK  status: ('A' for Active; 'I' for Inactive)
REMARK    1  A    between atoms: C_1  and  C_2
REMARK    2  A    between atoms: C_2  and  C_3
REMARK    3  A    between atoms: C_2  and  C_4
REMARK    4  A    between atoms: C_11  and  N_12
REMARK    5  A    between atoms: C_13  and  C_18
REMARK    6  A    between atoms: C_18  and  O_19
REMARK                            x       y       z     vdW  Elec       q    Type
REMARK                         _______ _______ _______ _____ _____    ______ ____
ROOT
ATOM      1  C   UNL     1       9.114   1.468  23.060  0.00  0.00    -0.044 A 
ATOM      2  C   UNL     1      10.016   0.761  22.247  0.00  0.00    +0.007 A 
ATOM      3  C   UNL     1       9.767  -0.571  21.882  0.00  0.00    +0.047 A 
ATOM      4  C   UNL     1       8.611  -1.216  22.322  0.00  0.00    +0.141 A 
ATOM      5  O   UNL     1       8.402  -2.509  21.905  0.00  0.00    -0.437 OA
ATOM      6  C   UNL     1       7.250  -3.153  22.309  0.00  0.00    +0.233 A 
ATOM      7  C   UNL     1       6.304  -2.561  23.127  0.00  0.00    +0.085 A 
ATOM      8  C   UNL     1       6.517  -1.198  23.600  0.00  0.00    +0.202 A 
ATOM      9  O   UNL     1       5.708  -0.665  24.348  0.00  0.00    -0.286 OA
ATOM     10  C   UNL     1       5.162  -3.269  23.493  0.00  0.00    +0.035 A 
ATOM     11  C   UNL     1       5.021  -4.585  23.055  0.00  0.00    +0.099 A 
ATOM     12  C   UNL     1       6.013  -5.123  22.224  0.00  0.00    +0.134 A 
ATOM     13  N   UNL     1       7.114  -4.422  21.856  0.00  0.00    -0.197 NA
ATOM     14  C   UNL     1       7.734  -0.522  23.152  0.00  0.00    +0.065 A 
ATOM     15  C   UNL     1       7.977   0.800  23.528  0.00  0.00    +0.019 A 
ENDROOT
BRANCH   1  17
ATOM     16  C   UNL     1       8.705   3.302  24.721  0.00  0.00    +0.012 C 
ATOM     17  C   UNL     1       9.334   2.940  23.371  0.00  0.00    +0.013 C 
ATOM     18  C   UNL     1      10.815   3.329  23.353  0.00  0.00    +0.012 C 
ENDBRANCH   1  17
BRANCH  12  19
ATOM     19  N   UNL     1       6.005  -6.457  21.829  0.00  0.00    -0.342 N 
ATOM     20  H   UNL     1       5.349  -6.641  21.067  0.00  0.00    +0.144 HD
ATOM     21  H   UNL     1       6.950  -6.777  21.646  0.00  0.00    +0.144 HD
ENDBRANCH  12  19
BRANCH  11  22
ATOM     22  C   UNL     1       3.803  -5.365  23.372  0.00  0.00    +0.340 C 
ATOM     23  O   UNL     1       2.684  -4.990  23.062  0.00  0.00    -0.245 OA
BRANCH  22  24
ATOM     24  O   UNL     1       4.029  -6.512  24.049  0.00  0.00    -0.477 OA
ATOM     25  H   UNL     1       4.237  -6.431  24.998  0.00  0.00    +0.295 HD
ENDBRANCH  22  24
ENDBRANCH  11  22
TORSDOF 4
ENDMDL
MODEL 5
REMARK VINA RESULT:      -6.9      2.237      3.029
REMARK  Name = 
REMARK  6 active torsions:
REMARK  status: ('A' for Active; 'I' for Inactive)
REMARK    1  A    between atoms: C_1  and  C_2
REMARK    2  A    between atoms: C_2  and  C_3
REMARK    3  A    between atoms: C_2  and  C_4
REMARK    4  A    between atoms: C_11  and  N_12
REMARK    5  A    between atoms: C_13  and  C_18
REMARK    6  A    between atoms: C_18  and  O_19
REMARK                            x       y       z     vdW  Elec       q    Type
REMARK                         _______ _______ _______ _____ _____    ______ ____
ROOT
ATOM      1  C   UNL     1       9.246   0.274  23.380  0.00  0.00    -0.044 A 
ATOM      2  C   UNL     1       9.848   0.194  24.648  0.00  0.00    +0.007 A 
ATOM      3  C   UNL     1       9.500  -0.824  25.549  0.00  0.00    +0.047 A 
ATOM      4  C   UNL     1       8.548  -1.779  25.196  0.00  0.00    +0.141 A 
ATOM      5  O   UNL     1       8.271  -2.774  26.105  0.00  0.00    -0.437 OA
ATOM      6  C   UNL     1       7.351  -3.743  25.761  0.00  0.00    +0.233 A 
ATOM      7  C   UNL     1       6.684  -3.752  24.549  0.00  0.00    +0.085 A 
ATOM      8  C   UNL     1       6.943  -2.693  23.580  0.00  0.00    +0.202 A 
ATOM      9  O   UNL     1       6.342  -2.664  22.514  0.00  0.00    -0.286 OA
ATOM     10  C   UNL     1       5.769  -4.763  24.268  0.00  0.00    +0.035 A 
ATOM     11  C   UNL     1       5.518  -5.729  25.241  0.00  0.00    +0.099 A 
ATOM     12  C   UNL     1       6.233  -5.667  26.445  0.00  0.00    +0.134 A 
ATOM     13  N   UNL     1       7.136  -4.689  26.707  0.00  0.00    -0.197 NA
ATOM     14  C   UNL     1       7.932  -1.681  23.950  0.00  0.00    +0.065 A 
ATOM     15  C   UNL     1       8.264  -0.668  23.051  0.00  0.00    +0.019 A 
ENDROOT
BRANCH   1  17
ATOM     16  C   UNL     1       8.506   1.795  21.529  0.00  0.00    +0.012 C 
ATOM     17  C   UNL     1       9.696   1.314  22.367  0.00  0.00    +0.013 C 
ATOM     18  C   UNL     1      10.401   2.505  23.023  0.00  0.00    +0.012 C 
ENDBRANCH   1  17
BRANCH  12  19
ATOM     19  N   UNL     1       5.969  -6.525  27.508  0.00  0.00    -0.342 N 
ATOM     20  H   UNL     1       5.897  -7.503  27.220  0.00  0.00    +0.144 HD
ATOM     21  H   UNL     1       6.628  -6.364  28.263  0.00  0.00    +0.144 HD
ENDBRANCH  12  19
BRANCH  11  22
ATOM     22  C   UNL     1       4.595  -6.855  24.974  0.00  0.00    +0.340 C 
ATOM     23  O   UNL     1       3.784  -7.250  25.797  0.00  0.00    -0.245 OA
BRANCH  22  24
ATOM     24  O   UNL     1       4.735  -7.423  23.756  0.00  0.00    -0.477 OA
ATOM     25  H   UNL     1       4.919  -6.824  23.009  0.00  0.00    +0.295 HD
ENDBRANCH  22  24
ENDBRANCH  11  22
TORSDOF 4
ENDMDL
MODEL 6
REMARK VINA RESULT:      -6.7      2.696      7.084
REMARK  Name = 
REMARK  6 active torsions:
REMARK  status: ('A' for Active; 'I' for Inactive)
REMARK    1  A    between atoms: C_1  and  C_2
REMARK    2  A    between atoms: C_2  and  C_3
REMARK    3  A    between atoms: C_2  and  C_4
REMARK    4  A    between atoms: C_11  and  N_12
REMARK    5  A    between atoms: C_13  and  C_18
REMARK    6  A    between atoms: C_18  and  O_19
REMARK                            x       y       z     vdW  Elec       q    Type
REMARK                         _______ _______ _______ _____ _____    ______ ____
ROOT
ATOM      1  C   UNL     1       5.962  -5.548  25.278  0.00  0.00    -0.044 A 
ATOM      2  C   UNL     1       6.944  -5.534  26.283  0.00  0.00    +0.007 A 
ATOM      3  C   UNL     1       7.891  -4.501  26.352  0.00  0.00    +0.047 A 
ATOM      4  C   UNL     1       7.870  -3.465  25.419  0.00  0.00    +0.141 A 
ATOM      5  O   UNL     1       8.801  -2.462  25.556  0.00  0.00    -0.437 OA
ATOM      6  C   UNL     1       8.777  -1.415  24.657  0.00  0.00    +0.233 A 
ATOM      7  C   UNL     1       7.869  -1.336  23.616  0.00  0.00    +0.085 A 
ATOM      8  C   UNL     1       6.889  -2.402  23.438  0.00  0.00    +0.202 A 
ATOM      9  O   UNL     1       6.096  -2.368  22.506  0.00  0.00    -0.286 OA
ATOM     10  C   UNL     1       7.901  -0.249  22.747  0.00  0.00    +0.035 A 
ATOM     11  C   UNL     1       8.884   0.723  22.927  0.00  0.00    +0.099 A 
ATOM     12  C   UNL     1       9.769   0.588  24.005  0.00  0.00    +0.134 A 
ATOM     13  N   UNL     1       9.722  -0.465  24.859  0.00  0.00    -0.197 NA
ATOM     14  C   UNL     1       6.914  -3.497  24.406  0.00  0.00    +0.065 A 
ATOM     15  C   UNL     1       5.974  -4.524  24.324  0.00  0.00    +0.019 A 
ENDROOT
BRANCH   1  17
ATOM     16  C   UNL     1       4.220  -6.724  26.645  0.00  0.00    +0.012 C 
ATOM     17  C   UNL     1       4.876  -6.611  25.264  0.00  0.00    +0.013 C 
ATOM     18  C   UNL     1       3.815  -6.351  24.191  0.00  0.00    +0.012 C 
ENDBRANCH   1  17
BRANCH  12  19
ATOM     19  N   UNL     1      10.843   1.453  24.196  0.00  0.00    -0.342 N 
ATOM     20  H   UNL     1      10.606   2.427  24.000  0.00  0.00    +0.144 HD
ATOM     21  H   UNL     1      11.258   1.303  25.109  0.00  0.00    +0.144 HD
ENDBRANCH  12  19
BRANCH  11  22
ATOM     22  C   UNL     1       8.930   1.926  22.065  0.00  0.00    +0.340 C 
ATOM     23  O   UNL     1       7.954   2.632  21.869  0.00  0.00    -0.245 OA
BRANCH  22  24
ATOM     24  O   UNL     1      10.132   2.167  21.497  0.00  0.00    -0.477 OA
ATOM     25  H   UNL     1      10.408   1.569  20.778  0.00  0.00    +0.295 HD
ENDBRANCH  22  24
ENDBRANCH  11  22
TORSDOF 4
ENDMDL
MODEL 7
REMARK VINA RESULT:      -6.6      3.034      7.098
REMARK  Name = 
REMARK  6 active torsions:
REMARK  status: ('A' for Active; 'I' for Inactive)
REMARK    1  A    between atoms: C_1  and  C_2
REMARK    2  A    between atoms: C_2  and  C_3
REMARK    3  A    between atoms: C_2  and  C_4
REMARK    4  A    between atoms: C_11  and  N_12
REMARK    5  A    between atoms: C_13  and  C_18
REMARK    6  A    between atoms: C_18  and  O_19
REMARK                            x       y       z     vdW  Elec       q    Type
REMARK                         _______ _______ _______ _____ _____    ______ ____
ROOT
ATOM      1  C   UNL     1       5.649  -4.625  24.221  0.00  0.00    -0.044 A 
ATOM      2  C   UNL     1       6.685  -5.087  23.390  0.00  0.00    +0.007 A 
ATOM      3  C   UNL     1       7.589  -4.191  22.799  0.00  0.00    +0.047 A 
ATOM      4  C   UNL     1       7.474  -2.821  23.031  0.00  0.00    +0.141 A 
ATOM      5  O   UNL     1       8.408  -1.993  22.454  0.00  0.00    -0.437 OA
ATOM      6  C   UNL     1       8.325  -0.637  22.696  0.00  0.00    +0.233 A 
ATOM      7  C   UNL     1       7.336  -0.071  23.480  0.00  0.00    +0.085 A 
ATOM      8  C   UNL     1       6.321  -0.927  24.082  0.00  0.00    +0.202 A 
ATOM      9  O   UNL     1       5.419  -0.445  24.755  0.00  0.00    -0.286 OA
ATOM     10  C   UNL     1       7.315   1.306  23.684  0.00  0.00    +0.035 A 
ATOM     11  C   UNL     1       8.277   2.092  23.052  0.00  0.00    +0.099 A 
ATOM     12  C   UNL     1       9.256   1.455  22.276  0.00  0.00    +0.134 A 
ATOM     13  N   UNL     1       9.282   0.111  22.096  0.00  0.00    -0.197 NA
ATOM     14  C   UNL     1       6.429  -2.364  23.832  0.00  0.00    +0.065 A 
ATOM     15  C   UNL     1       5.520  -3.246  24.417  0.00  0.00    +0.019 A 
ENDROOT
BRANCH   1  17
ATOM     16  C   UNL     1       4.436  -6.813  24.050  0.00  0.00    +0.012 C 
ATOM     17  C   UNL     1       4.734  -5.602  24.941  0.00  0.00    +0.013 C 
ATOM     18  C   UNL     1       5.306  -6.058  26.287  0.00  0.00    +0.012 C 
ENDBRANCH   1  17
BRANCH  12  19
ATOM     19  N   UNL     1      10.188   2.168  21.527  0.00  0.00    -0.342 N 
ATOM     20  H   UNL     1       9.835   2.436  20.606  0.00  0.00    +0.144 HD
ATOM     21  H   UNL     1      10.558   2.941  22.070  0.00  0.00    +0.144 HD
ENDBRANCH  12  19
BRANCH  11  22
ATOM     22  C   UNL     1       8.332   3.554  23.275  0.00  0.00    +0.340 C 
ATOM     23  O   UNL     1       8.665   4.043  24.343  0.00  0.00    -0.245 OA
BRANCH  22  24
ATOM     24  O   UNL     1       7.966   4.302  22.212  0.00  0.00    -0.477 OA
ATOM     25  H   UNL     1       8.351   5.195  22.146  0.00  0.00    +0.295 HD
ENDBRANCH  22  24
ENDBRANCH  11  22
TORSDOF 4
ENDMDL
MODEL 8
REMARK VINA RESULT:      -6.6      3.393      7.283
REMARK  Name = 
REMARK  6 active torsions:
REMARK  status: ('A' for Active; 'I' for Inactive)
REMARK    1  A    between atoms: C_1  and  C_2
REMARK    2  A    between atoms: C_2  and  C_3
REMARK    3  A    between atoms: C_2  and  C_4
REMARK    4  A    between atoms: C_11  and  N_12
REMARK    5  A    between atoms: C_13  and  C_18
REMARK    6  A    between atoms: C_18  and  O_19
REMARK                            x       y       z     vdW  Elec       q    Type
REMARK                         _______ _______ _______ _____ _____    ______ ____
ROOT
ATOM      1  C   UNL     1       7.890  -3.251  25.046  0.00  0.00    -0.044 A 
ATOM      2  C   UNL     1       9.108  -3.536  24.406  0.00  0.00    +0.007 A 
ATOM      3  C   UNL     1       9.935  -2.505  23.935  0.00  0.00    +0.047 A 
ATOM      4  C   UNL     1       9.557  -1.172  24.099  0.00  0.00    +0.141 A 
ATOM      5  O   UNL     1      10.422  -0.203  23.649  0.00  0.00    -0.437 OA
ATOM      6  C   UNL     1      10.077   1.122  23.828  0.00  0.00    +0.233 A 
ATOM      7  C   UNL     1       8.894   1.518  24.426  0.00  0.00    +0.085 A 
ATOM      8  C   UNL     1       7.951   0.506  24.889  0.00  0.00    +0.202 A 
ATOM      9  O   UNL     1       6.885   0.833  25.393  0.00  0.00    -0.286 OA
ATOM     10  C   UNL     1       8.612   2.873  24.576  0.00  0.00    +0.035 A 
ATOM     11  C   UNL     1       9.520   3.806  24.078  0.00  0.00    +0.099 A 
ATOM     12  C   UNL     1      10.703   3.338  23.488  0.00  0.00    +0.134 A 
ATOM     13  N   UNL     1      10.981   2.017  23.361  0.00  0.00    -0.197 NA
ATOM     14  C   UNL     1       8.336  -0.893  24.708  0.00  0.00    +0.065 A 
ATOM     15  C   UNL     1       7.503  -1.912  25.172  0.00  0.00    +0.019 A 
ENDROOT
BRANCH   1  17
ATOM     16  C   UNL     1       6.445  -5.237  24.538  0.00  0.00    +0.012 C 
ATOM     17  C   UNL     1       7.045  -4.364  25.646  0.00  0.00    +0.013 C 
ATOM     18  C   UNL     1       7.830  -5.227  26.637  0.00  0.00    +0.012 C 
ENDBRANCH   1  17
BRANCH  12  19
ATOM     19  N   UNL     1      11.612   4.193  22.873  0.00  0.00    -0.342 N 
ATOM     20  H   UNL     1      11.176   4.799  22.175  0.00  0.00    +0.144 HD
ATOM     21  H   UNL     1      12.156   4.690  23.570  0.00  0.00    +0.144 HD
ENDBRANCH  12  19
BRANCH  11  22
ATOM     22  C   UNL     1       9.294   5.257  24.257  0.00  0.00    +0.340 C 
ATOM     23  O   UNL     1       9.141   5.768  25.355  0.00  0.00    -0.245 OA
BRANCH  22  24
ATOM     24  O   UNL     1       9.251   5.968  23.109  0.00  0.00    -0.477 OA
ATOM     25  H   UNL     1       8.788   5.559  22.354  0.00  0.00    +0.295 HD
ENDBRANCH  22  24
ENDBRANCH  11  22
TORSDOF 4
ENDMDL
MODEL 9
REMARK VINA RESULT:      -6.6      2.336      3.643
REMARK  Name = 
REMARK  6 active torsions:
REMARK  status: ('A' for Active; 'I' for Inactive)
REMARK    1  A    between atoms: C_1  and  C_2
REMARK    2  A    between atoms: C_2  and  C_3
REMARK    3  A    between atoms: C_2  and  C_4
REMARK    4  A    between atoms: C_11  and  N_12
REMARK    5  A    between atoms: C_13  and  C_18
REMARK    6  A    between atoms: C_18  and  O_19
REMARK                            x       y       z     vdW  Elec       q    Type
REMARK                         _______ _______ _______ _____ _____    ______ ____
ROOT
ATOM      1  C   UNL     1       9.496   4.344  24.198  0.00  0.00    -0.044 A 
ATOM      2  C   UNL     1       8.419   4.442  25.096  0.00  0.00    +0.007 A 
ATOM      3  C   UNL     1       7.795   3.291  25.601  0.00  0.00    +0.047 A 
ATOM      4  C   UNL     1       8.238   2.026  25.218  0.00  0.00    +0.141 A 
ATOM      5  O   UNL     1       7.611   0.934  25.772  0.00  0.00    -0.437 OA
ATOM      6  C   UNL     1       8.056  -0.326  25.425  0.00  0.00    +0.233 A 
ATOM      7  C   UNL     1       9.093  -0.541  24.536  0.00  0.00    +0.085 A 
ATOM      8  C   UNL     1       9.756   0.602  23.919  0.00  0.00    +0.202 A 
ATOM      9  O   UNL     1      10.656   0.436  23.106  0.00  0.00    -0.286 OA
ATOM     10  C   UNL     1       9.491  -1.840  24.234  0.00  0.00    +0.035 A 
ATOM     11  C   UNL     1       8.799  -2.904  24.811  0.00  0.00    +0.099 A 
ATOM     12  C   UNL     1       7.762  -2.618  25.709  0.00  0.00    +0.134 A 
ATOM     13  N   UNL     1       7.390  -1.350  26.013  0.00  0.00    -0.197 NA
ATOM     14  C   UNL     1       9.287   1.932  24.306  0.00  0.00    +0.065 A 
ATOM     15  C   UNL     1       9.909   3.070  23.792  0.00  0.00    +0.019 A 
ENDROOT
BRANCH   1  17
ATOM     16  C   UNL     1      10.035   6.736  24.725  0.00  0.00    +0.012 C 
ATOM     17  C   UNL     1      10.237   5.587  23.731  0.00  0.00    +0.013 C 
ATOM     18  C   UNL     1      11.731   5.330  23.511  0.00  0.00    +0.012 C 
ENDBRANCH   1  17
BRANCH  12  19
ATOM     19  N   UNL     1       6.953  -3.614  26.248  0.00  0.00    -0.342 N 
ATOM     20  H   UNL     1       5.977  -3.533  25.955  0.00  0.00    +0.144 HD
ATOM     21  H   UNL     1       7.361  -4.527  26.081  0.00  0.00    +0.144 HD
ENDBRANCH  12  19
BRANCH  11  22
ATOM     22  C   UNL     1       9.214  -4.303  24.565  0.00  0.00    +0.340 C 
ATOM     23  O   UNL     1      10.251  -4.770  25.011  0.00  0.00    -0.245 OA
BRANCH  22  24
ATOM     24  O   UNL     1       8.366  -5.016  23.792  0.00  0.00    -0.477 OA
ATOM     25  H   UNL     1       7.562  -4.559  23.482  0.00  0.00    +0.295 HD
ENDBRANCH  22  24
ENDBRANCH  11  22
TORSDOF 4
ENDMDL
