MODEL 1
REMARK VINA RESULT:      -4.5      0.000      0.000
REMARK  Name = 
REMARK  2 active torsions:
REMARK  status: ('A' for Active; 'I' for Inactive)
REMARK    1  A    between atoms: C_1  and  C_2
REMARK    2  A    between atoms: C_2  and  C_4
REMARK                            x       y       z     vdW  Elec       q    Type
REMARK                         _______ _______ _______ _____ _____    ______ ____
ROOT
ATOM      1  C   UNL     1       9.866  -0.561  23.116  0.00  0.00    +0.017 A 
ATOM      2  C   UNL     1      10.382   0.074  24.250  0.00  0.00    +0.011 A 
ATOM      3  C   UNL     1      10.665   1.442  24.215  0.00  0.00    +0.001 A 
ATOM      4  C   UNL     1      10.440   2.174  23.049  0.00  0.00    +0.000 A 
ATOM      5  C   UNL     1       9.923   1.546  21.917  0.00  0.00    +0.001 A 
ATOM      6  C   UNL     1       9.628   0.182  21.952  0.00  0.00    +0.011 A 
ENDROOT
BRANCH   1   8
ATOM      7  C   UNL     1       8.296  -2.471  22.404  0.00  0.00    +0.091 C 
ATOM      8  C   UNL     1       9.551  -2.016  23.099  0.00  0.00    +0.160 C 
ATOM      9  O   UNL     1      10.294  -2.810  23.672  0.00  0.00    -0.292 OA
ENDBRANCH   1   8
TORSDOF 1
ENDMDL
MODEL 2
REMARK VINA RESULT:      -4.4      0.061      1.613
REMARK  Name = 
REMARK  2 active torsions:
REMARK  status: ('A' for Active; 'I' for Inactive)
REMARK    1  A    between atoms: C_1  and  C_2
REMARK    2  A    between atoms: C_2  and  C_4
REMARK                            x       y       z     vdW  Elec       q    Type
REMARK                         _______ _______ _______ _____ _____    ______ ____
ROOT
ATOM      1  C   UNL     1       9.839  -0.566  23.068  0.00  0.00    +0.017 A 
ATOM      2  C   UNL     1       9.656   0.218  21.924  0.00  0.00    +0.011 A 
ATOM      3  C   UNL     1       9.954   1.582  21.958  0.00  0.00    +0.001 A 
ATOM      4  C   UNL     1      10.429   2.166  23.133  0.00  0.00    +0.000 A 
ATOM      5  C   UNL     1      10.617   1.387  24.275  0.00  0.00    +0.001 A 
ATOM      6  C   UNL     1      10.331   0.022  24.240  0.00  0.00    +0.011 A 
ENDROOT
BRANCH   1   8
ATOM      7  C   UNL     1       8.271  -2.499  22.417  0.00  0.00    +0.091 C 
ATOM      8  C   UNL     1       9.533  -2.022  23.086  0.00  0.00    +0.160 C 
ATOM      9  O   UNL     1      10.287  -2.800  23.665  0.00  0.00    -0.292 OA
ENDBRANCH   1   8
TORSDOF 1
ENDMDL
MODEL 3
REMARK VINA RESULT:      -4.3      2.496      4.074
REMARK  Name = 
REMARK  2 active torsions:
REMARK  status: ('A' for Active; 'I' for Inactive)
REMARK    1  A    between atoms: C_1  and  C_2
REMARK    2  A    between atoms: C_2  and  C_4
REMARK                            x       y       z     vdW  Elec       q    Type
REMARK                         _______ _______ _______ _____ _____    ______ ____
ROOT
ATOM      1  C   UNL     1      10.362   1.944  23.199  0.00  0.00    +0.017 A 
ATOM      2  C   UNL     1      10.655   0.926  24.112  0.00  0.00    +0.011 A 
ATOM      3  C   UNL     1      10.430  -0.408  23.764  0.00  0.00    +0.001 A 
ATOM      4  C   UNL     1       9.909  -0.726  22.509  0.00  0.00    +0.000 A 
ATOM      5  C   UNL     1       9.620   0.286  21.595  0.00  0.00    +0.001 A 
ATOM      6  C   UNL     1       9.854   1.619  21.935  0.00  0.00    +0.011 A 
ENDROOT
BRANCH   1   8
ATOM      7  C   UNL     1       9.412   4.188  24.026  0.00  0.00    +0.091 C 
ATOM      8  C   UNL     1      10.579   3.381  23.522  0.00  0.00    +0.160 C 
ATOM      9  O   UNL     1      11.684   3.889  23.345  0.00  0.00    -0.292 OA
ENDBRANCH   1   8
TORSDOF 1
ENDMDL
MODEL 4
REMARK VINA RESULT:      -4.1      2.415      4.339
REMARK  Name = 
REMARK  2 active torsions:
REMARK  status: ('A' for Active; 'I' for Inactive)
REMARK    1  A    between atoms: C_1  and  C_2
REMARK    2  A    between atoms: C_2  and  C_4
REMARK                            x       y       z     vdW  Elec       q    Type
REMARK                         _______ _______ _______ _____ _____    ______ ____
ROOT
ATOM      1  C   UNL     1      10.104   1.734  23.079  0.00  0.00    +0.017 A 
ATOM      2  C   UNL     1       9.574   1.435  21.819  0.00  0.00    +0.011 A 
ATOM      3  C   UNL     1       9.475   0.106  21.402  0.00  0.00    +0.001 A 
ATOM      4  C   UNL     1       9.907  -0.924  22.238  0.00  0.00    +0.000 A 
ATOM      5  C   UNL     1      10.432  -0.630  23.496  0.00  0.00    +0.001 A 
ATOM      6  C   UNL     1      10.523   0.696  23.920  0.00  0.00    +0.011 A 
ENDROOT
BRANCH   1   8
ATOM      7  C   UNL     1      11.522   3.871  23.300  0.00  0.00    +0.091 C 
ATOM      8  C   UNL     1      10.236   3.134  23.568  0.00  0.00    +0.160 C 
ATOM      9  O   UNL     1       9.319   3.650  24.203  0.00  0.00    -0.292 OA
ENDBRANCH   1   8
TORSDOF 1
ENDMDL
MODEL 5
REMARK VINA RESULT:      -4.0      1.401      1.463
REMARK  Name = 
REMARK  2 active torsions:
REMARK  status: ('A' for Active; 'I' for Inactive)
REMARK    1  A    between atoms: C_1  and  C_2
REMARK    2  A    between atoms: C_2  and  C_4
REMARK                            x       y       z     vdW  Elec       q    Type
REMARK                         _______ _______ _______ _____ _____    ______ ____
ROOT
ATOM      1  C   UNL     1       9.719  -0.204  23.876  0.00  0.00    +0.017 A 
ATOM      2  C   UNL     1      10.285   0.922  24.483  0.00  0.00    +0.011 A 
ATOM      3  C   UNL     1      10.539   2.068  23.726  0.00  0.00    +0.001 A 
ATOM      4  C   UNL     1      10.233   2.090  22.365  0.00  0.00    +0.000 A 
ATOM      5  C   UNL     1       9.666   0.971  21.757  0.00  0.00    +0.001 A 
ATOM      6  C   UNL     1       9.401  -0.172  22.512  0.00  0.00    +0.011 A 
ENDROOT
BRANCH   1   8
ATOM      7  C   UNL     1       9.757  -2.775  23.993  0.00  0.00    +0.091 C 
ATOM      8  C   UNL     1       9.434  -1.452  24.636  0.00  0.00    +0.160 C 
ATOM      9  O   UNL     1       8.916  -1.387  25.749  0.00  0.00    -0.292 OA
ENDBRANCH   1   8
TORSDOF 1
ENDMDL
MODEL 6
REMARK VINA RESULT:      -4.0      3.582      5.063
REMARK  Name = 
REMARK  2 active torsions:
REMARK  status: ('A' for Active; 'I' for Inactive)
REMARK    1  A    between atoms: C_1  and  C_2
REMARK    2  A    between atoms: C_2  and  C_4
REMARK                            x       y       z     vdW  Elec       q    Type
REMARK                         _______ _______ _______ _____ _____    ______ ____
ROOT
ATOM      1  C   UNL     1       7.381  -4.001  22.654  0.00  0.00    +0.017 A 
ATOM      2  C   UNL     1       8.071  -2.786  22.585  0.00  0.00    +0.011 A 
ATOM      3  C   UNL     1       9.087  -2.507  23.502  0.00  0.00    +0.001 A 
ATOM      4  C   UNL     1       9.411  -3.436  24.491  0.00  0.00    +0.000 A 
ATOM      5  C   UNL     1       8.728  -4.650  24.562  0.00  0.00    +0.001 A 
ATOM      6  C   UNL     1       7.721  -4.936  23.639  0.00  0.00    +0.011 A 
ENDROOT
BRANCH   1   8
ATOM      7  C   UNL     1       6.280  -5.716  21.084  0.00  0.00    +0.091 C 
ATOM      8  C   UNL     1       6.288  -4.344  21.704  0.00  0.00    +0.160 C 
ATOM      9  O   UNL     1       5.438  -3.504  21.419  0.00  0.00    -0.292 OA
ENDBRANCH   1   8
TORSDOF 1
ENDMDL
MODEL 7
REMARK VINA RESULT:      -3.8      5.686      6.483
REMARK  Name = 
REMARK  2 active torsions:
REMARK  status: ('A' for Active; 'I' for Inactive)
REMARK    1  A    between atoms: C_1  and  C_2
REMARK    2  A    between atoms: C_2  and  C_4
REMARK                            x       y       z     vdW  Elec       q    Type
REMARK                         _______ _______ _______ _____ _____    ______ ____
ROOT
ATOM      1  C   UNL     1       6.525  -5.067  23.623  0.00  0.00    +0.017 A 
ATOM      2  C   UNL     1       5.848  -5.303  24.824  0.00  0.00    +0.011 A 
ATOM      3  C   UNL     1       6.565  -5.421  26.017  0.00  0.00    +0.001 A 
ATOM      4  C   UNL     1       7.956  -5.309  26.012  0.00  0.00    +0.000 A 
ATOM      5  C   UNL     1       8.634  -5.070  24.818  0.00  0.00    +0.001 A 
ATOM      6  C   UNL     1       7.920  -4.940  23.626  0.00  0.00    +0.011 A 
ENDROOT
BRANCH   1   8
ATOM      7  C   UNL     1       6.310  -5.729  21.146  0.00  0.00    +0.091 C 
ATOM      8  C   UNL     1       5.809  -4.938  22.325  0.00  0.00    +0.160 C 
ATOM      9  O   UNL     1       4.851  -4.174  22.227  0.00  0.00    -0.292 OA
ENDBRANCH   1   8
TORSDOF 1
ENDMDL
MODEL 8
REMARK VINA RESULT:      -3.8      4.603      5.614
REMARK  Name = 
REMARK  2 active torsions:
REMARK  status: ('A' for Active; 'I' for Inactive)
REMARK    1  A    between atoms: C_1  and  C_2
REMARK    2  A    between atoms: C_2  and  C_4
REMARK                            x       y       z     vdW  Elec       q    Type
REMARK                         _______ _______ _______ _____ _____    ______ ____
ROOT
ATOM      1  C   UNL     1       7.742  -4.641  23.721  0.00  0.00    +0.017 A 
ATOM      2  C   UNL     1       7.144  -3.379  23.637  0.00  0.00    +0.011 A 
ATOM      3  C   UNL     1       6.306  -3.075  22.561  0.00  0.00    +0.001 A 
ATOM      4  C   UNL     1       6.069  -4.025  21.568  0.00  0.00    +0.000 A 
ATOM      5  C   UNL     1       6.660  -5.285  21.650  0.00  0.00    +0.001 A 
ATOM      6  C   UNL     1       7.488  -5.597  22.729  0.00  0.00    +0.011 A 
ENDROOT
BRANCH   1   8
ATOM      7  C   UNL     1       8.036  -5.329  26.183  0.00  0.00    +0.091 C 
ATOM      8  C   UNL     1       8.646  -5.014  24.843  0.00  0.00    +0.160 C 
ATOM      9  O   UNL     1       9.863  -5.030  24.671  0.00  0.00    -0.292 OA
ENDBRANCH   1   8
TORSDOF 1
ENDMDL
MODEL 9
REMARK VINA RESULT:      -3.7      2.060      4.715
REMARK  Name = 
REMARK  2 active torsions:
REMARK  status: ('A' for Active; 'I' for Inactive)
REMARK    1  A    between atoms: C_1  and  C_2
REMARK    2  A    between atoms: C_2  and  C_4
REMARK                            x       y       z     vdW  Elec       q    Type
REMARK                         _______ _______ _______ _____ _____    ______ ____
ROOT
ATOM      1  C   UNL     1       9.059  -2.915  23.583  0.00  0.00    +0.017 A 
ATOM      2  C   UNL     1       9.260  -3.788  24.657  0.00  0.00    +0.011 A 
ATOM      3  C   UNL     1       8.372  -4.846  24.871  0.00  0.00    +0.001 A 
ATOM      4  C   UNL     1       7.282  -5.028  24.018  0.00  0.00    +0.000 A 
ATOM      5  C   UNL     1       7.081  -4.162  22.945  0.00  0.00    +0.001 A 
ATOM      6  C   UNL     1       7.973  -3.112  22.722  0.00  0.00    +0.011 A 
ENDROOT
BRANCH   1   8
ATOM      7  C   UNL     1      10.027  -0.644  24.311  0.00  0.00    +0.091 C 
ATOM      8  C   UNL     1       9.973  -1.771  23.314  0.00  0.00    +0.160 C 
ATOM      9  O   UNL     1      10.637  -1.747  22.280  0.00  0.00    -0.292 OA
ENDBRANCH   1   8
TORSDOF 1
ENDMDL
