MODEL 1
REMARK VINA RESULT:      -6.9      0.000      0.000
REMARK  Name = 
REMARK  20 active torsions:
REMARK  status: ('A' for Active; 'I' for Inactive)
REMARK    1  A    between atoms: N_4  and  C_5
REMARK    2  A    between atoms: C_5  and  C_6
REMARK    3  A    between atoms: C_6  and  C_7
REMARK    4  A    between atoms: C_7  and  C_8
REMARK    5  A    between atoms: C_8  and  C_9
REMARK    6  A    between atoms: C_9  and  N_11
REMARK    7  A    between atoms: C_9  and  C_59
REMARK    8  A    between atoms: C_12  and  C_14
REMARK    9  A    between atoms: C_14  and  C_16
REMARK   10  A    between atoms: C_14  and  N_24
REMARK   11  A    between atoms: C_16  and  C_17
REMARK   12  A    between atoms: C_20  and  O_21
REMARK   13  A    between atoms: C_25  and  C_27
REMARK   14  A    between atoms: C_32  and  C_34
REMARK   15  A    between atoms: C_34  and  C_36
REMARK   16  A    between atoms: C_34  and  N_43
REMARK   17  A    between atoms: C_36  and  C_37
REMARK   18  A    between atoms: C_44  and  C_46
REMARK   19  A    between atoms: C_50  and  C_52
REMARK   20  A    between atoms: C_52  and  N_53
REMARK                            x       y       z     vdW  Elec       q    Type
REMARK                         _______ _______ _______ _____ _____    ______ ____
ROOT
ATOM      1  N   UNL     1       5.282   0.448  27.474  0.00  0.00    -0.302 N 
ATOM      2  H   UNL     1       5.123   0.594  28.462  0.00  0.00    +0.150 HD
ATOM      3  C   UNL     1       4.507  -0.492  26.815  0.00  0.00    +0.234 C 
ATOM      4  O   UNL     1       4.547  -0.556  25.579  0.00  0.00    -0.274 OA
ENDROOT
BRANCH   3   5
ATOM      5  C   UNL     1       3.501  -1.353  27.684  0.00  0.00    +0.163 C 
ATOM      6  N   UNL     1       4.003  -2.292  28.722  0.00  0.00    -0.288 N 
ATOM      7  C   UNL     1       3.724  -3.651  28.893  0.00  0.00    +0.237 C 
ATOM      8  O   UNL     1       3.446  -4.088  30.014  0.00  0.00    -0.274 OA
ATOM      9  C   UNL     1       3.807  -1.301  29.800  0.00  0.00    +0.111 C 
ATOM     10  C   UNL     1       2.876  -0.550  28.854  0.00  0.00    +0.051 C 
BRANCH   7  11
ATOM     11  C   UNL     1       3.726  -4.607  27.656  0.00  0.00    +0.159 C 
BRANCH  11  12
ATOM     12  N   UNL     1       5.023  -4.533  26.921  0.00  0.00    -0.304 N 
ATOM     13  H   UNL     1       5.104  -3.893  26.139  0.00  0.00    +0.149 HD
ATOM     14  C   UNL     1       5.901  -5.612  26.973  0.00  0.00    +0.217 C 
ATOM     15  O   UNL     1       5.675  -6.576  27.703  0.00  0.00    -0.275 OA
BRANCH  14  16
ATOM     16  C   UNL     1       7.167  -5.587  26.097  0.00  0.00    +0.075 C 
ATOM     17  C   UNL     1       6.941  -5.073  24.667  0.00  0.00    +0.013 C 
ATOM     18  C   UNL     1       8.242  -5.066  23.841  0.00  0.00    +0.007 C 
ATOM     19  C   UNL     1       9.393  -4.318  24.535  0.00  0.00    +0.027 C 
ATOM     20  C   UNL     1       9.607  -4.911  25.937  0.00  0.00    +0.007 C 
ATOM     21  C   UNL     1       8.336  -4.886  26.793  0.00  0.00    +0.013 C 
BRANCH  19  22
ATOM     22  C   UNL     1       9.135  -2.798  24.555  0.00  0.00    +0.247 C 
BRANCH  22  23
ATOM     23  N   UNL     1       9.833  -2.176  23.434  0.00  0.00    -0.114 NA
ATOM     24  C   UNL     1       9.137  -1.771  22.438  0.00  0.00    +0.376 C 
ATOM     25  N   UNL     1       9.771  -1.218  21.375  0.00  0.00    -0.289 N 
ATOM     26  H   UNL     1       9.341  -0.392  20.990  0.00  0.00    +0.255 HD
ATOM     27  H   UNL     1      10.752  -1.069  21.585  0.00  0.00    +0.255 HD
ATOM     28  N   UNL     1       7.809  -1.817  22.248  0.00  0.00    -0.289 N 
ATOM     29  H   UNL     1       7.379  -1.273  21.519  0.00  0.00    +0.255 HD
ATOM     30  H   UNL     1       7.209  -2.099  23.008  0.00  0.00    +0.255 HD
ENDBRANCH  22  23
ENDBRANCH  19  22
ENDBRANCH  14  16
ENDBRANCH  11  12
BRANCH  11  31
ATOM     31  C   UNL     1       2.577  -4.233  26.649  0.00  0.00    +0.035 C 
BRANCH  31  32
ATOM     32  C   UNL     1       1.722  -5.382  26.049  0.00  0.00    -0.009 C 
ATOM     33  C   UNL     1       2.449  -6.732  25.935  0.00  0.00    +0.003 C 
ATOM     34  C   UNL     1       3.349  -6.872  24.706  0.00  0.00    +0.000 C 
ATOM     35  C   UNL     1       2.604  -6.555  23.416  0.00  0.00    +0.000 C 
ATOM     36  C   UNL     1       2.017  -5.151  23.476  0.00  0.00    +0.000 C 
ATOM     37  C   UNL     1       1.093  -4.987  24.686  0.00  0.00    +0.003 C 
ENDBRANCH  31  32
ENDBRANCH  11  31
ENDBRANCH   7  11
ENDBRANCH   3   5
BRANCH   1  38
ATOM     38  C   UNL     1       6.294   1.301  26.795  0.00  0.00    +0.163 C 
BRANCH  38  41
ATOM     39  N   UNL     1       6.520   3.767  26.824  0.00  0.00    -0.302 N 
ATOM     40  H   UNL     1       6.465   3.644  25.815  0.00  0.00    +0.150 HD
ATOM     41  C   UNL     1       6.677   2.615  27.562  0.00  0.00    +0.234 C 
ATOM     42  O   UNL     1       7.177   2.649  28.681  0.00  0.00    -0.274 OA
BRANCH  39  43
ATOM     43  C   UNL     1       6.738   5.124  27.362  0.00  0.00    +0.159 C 
BRANCH  43  44
ATOM     44  C   UNL     1       5.434   5.945  27.199  0.00  0.00    +0.231 C 
ATOM     45  O   UNL     1       5.347   6.960  26.510  0.00  0.00    -0.274 OA
ATOM     46  N   UNL     1       4.299   5.453  27.780  0.00  0.00    -0.328 N 
ATOM     47  H   UNL     1       3.476   6.033  27.695  0.00  0.00    +0.145 HD
ATOM     48  H   UNL     1       4.344   4.817  28.564  0.00  0.00    +0.145 HD
ENDBRANCH  43  44
BRANCH  43  49
ATOM     49  C   UNL     1       7.937   5.816  26.680  0.00  0.00    +0.032 C 
BRANCH  49  50
ATOM     50  C   UNL     1       8.498   5.042  25.472  0.00  0.00    +0.005 C 
BRANCH  50  51
ATOM     51  C   UNL     1       8.127   5.623  24.099  0.00  0.00    +0.041 C 
BRANCH  51  52
ATOM     52  C   UNL     1       9.337   5.722  23.175  0.00  0.00    +0.243 C 
BRANCH  52  57
ATOM     53  N   UNL     1      12.722   6.225  24.278  0.00  0.00    -0.289 N 
ATOM     54  H   UNL     1      12.447   6.882  25.002  0.00  0.00    +0.255 HD
ATOM     55  H   UNL     1      13.347   5.522  24.642  0.00  0.00    +0.255 HD
ATOM     56  C   UNL     1      11.626   5.748  23.653  0.00  0.00    +0.376 C 
ATOM     57  N   UNL     1      10.481   6.268  23.910  0.00  0.00    -0.114 NA
ATOM     58  N   UNL     1      11.938   4.757  22.795  0.00  0.00    -0.289 N 
ATOM     59  H   UNL     1      11.194   4.209  22.390  0.00  0.00    +0.255 HD
ATOM     60  H   UNL     1      12.832   4.299  22.870  0.00  0.00    +0.255 HD
ENDBRANCH  52  57
ENDBRANCH  51  52
ENDBRANCH  50  51
ENDBRANCH  49  50
ENDBRANCH  43  49
ENDBRANCH  39  43
ENDBRANCH  38  41
BRANCH  38  61
ATOM     61  C   UNL     1       7.525   0.478  26.335  0.00  0.00    +0.067 C 
BRANCH  61  62
ATOM     62  C   UNL     1       8.284   0.971  25.119  0.00  0.00    -0.045 A 
ATOM     63  C   UNL     1       7.578   1.426  23.993  0.00  0.00    +0.007 A 
ATOM     64  C   UNL     1       8.248   1.912  22.871  0.00  0.00    +0.045 A 
ATOM     65  C   UNL     1       9.633   1.934  22.857  0.00  0.00    +0.117 A 
ATOM     66  C   UNL     1      10.359   1.445  23.939  0.00  0.00    +0.045 A 
ATOM     67  C   UNL     1       9.685   0.958  25.065  0.00  0.00    +0.007 A 
BRANCH  65  68
ATOM     68  O   UNL     1      10.249   2.445  21.751  0.00  0.00    -0.507 OA
ATOM     69  H   UNL     1      11.021   1.896  21.545  0.00  0.00    +0.292 HD
ENDBRANCH  65  68
ENDBRANCH  61  62
ENDBRANCH  38  61
ENDBRANCH   1  38
TORSDOF 20
ENDMDL
MODEL 2
REMARK VINA RESULT:      -6.9      2.889      8.854
REMARK  Name = 
REMARK  20 active torsions:
REMARK  status: ('A' for Active; 'I' for Inactive)
REMARK    1  A    between atoms: N_4  and  C_5
REMARK    2  A    between atoms: C_5  and  C_6
REMARK    3  A    between atoms: C_6  and  C_7
REMARK    4  A    between atoms: C_7  and  C_8
REMARK    5  A    between atoms: C_8  and  C_9
REMARK    6  A    between atoms: C_9  and  N_11
REMARK    7  A    between atoms: C_9  and  C_59
REMARK    8  A    between atoms: C_12  and  C_14
REMARK    9  A    between atoms: C_14  and  C_16
REMARK   10  A    between atoms: C_14  and  N_24
REMARK   11  A    between atoms: C_16  and  C_17
REMARK   12  A    between atoms: C_20  and  O_21
REMARK   13  A    between atoms: C_25  and  C_27
REMARK   14  A    between atoms: C_32  and  C_34
REMARK   15  A    between atoms: C_34  and  C_36
REMARK   16  A    between atoms: C_34  and  N_43
REMARK   17  A    between atoms: C_36  and  C_37
REMARK   18  A    between atoms: C_44  and  C_46
REMARK   19  A    between atoms: C_50  and  C_52
REMARK   20  A    between atoms: C_52  and  N_53
REMARK                            x       y       z     vdW  Elec       q    Type
REMARK                         _______ _______ _______ _____ _____    ______ ____
ROOT
ATOM      1  N   UNL     1       6.887   0.309  26.997  0.00  0.00    -0.302 N 
ATOM      2  H   UNL     1       6.300   0.634  26.240  0.00  0.00    +0.150 HD
ATOM      3  C   UNL     1       6.906   1.036  28.175  0.00  0.00    +0.234 C 
ATOM      4  O   UNL     1       7.460   0.561  29.175  0.00  0.00    -0.274 OA
ENDROOT
BRANCH   3   5
ATOM      5  C   UNL     1       6.089   2.393  28.213  0.00  0.00    +0.163 C 
ATOM      6  N   UNL     1       4.610   2.395  28.064  0.00  0.00    -0.288 N 
ATOM      7  C   UNL     1       3.813   3.120  27.173  0.00  0.00    +0.237 C 
ATOM      8  O   UNL     1       2.803   3.702  27.581  0.00  0.00    -0.274 OA
ATOM      9  C   UNL     1       4.402   2.436  29.526  0.00  0.00    +0.111 C 
ATOM     10  C   UNL     1       5.845   2.908  29.655  0.00  0.00    +0.051 C 
BRANCH   7  11
ATOM     11  C   UNL     1       4.225   3.224  25.668  0.00  0.00    +0.159 C 
BRANCH  11  12
ATOM     12  N   UNL     1       5.146   4.377  25.442  0.00  0.00    -0.304 N 
ATOM     13  H   UNL     1       4.746   5.288  25.244  0.00  0.00    +0.149 HD
ATOM     14  C   UNL     1       6.454   4.139  25.033  0.00  0.00    +0.217 C 
ATOM     15  O   UNL     1       6.895   2.992  24.963  0.00  0.00    -0.275 OA
BRANCH  14  16
ATOM     16  C   UNL     1       7.351   5.334  24.662  0.00  0.00    +0.075 C 
ATOM     17  C   UNL     1       8.151   5.917  25.837  0.00  0.00    +0.013 C 
ATOM     18  C   UNL     1       9.033   7.104  25.405  0.00  0.00    +0.007 C 
ATOM     19  C   UNL     1       9.944   6.776  24.211  0.00  0.00    +0.027 C 
ATOM     20  C   UNL     1       9.083   6.250  23.050  0.00  0.00    +0.007 C 
ATOM     21  C   UNL     1       8.232   5.039  23.445  0.00  0.00    +0.013 C 
BRANCH  19  22
ATOM     22  C   UNL     1      11.067   5.803  24.620  0.00  0.00    +0.247 C 
BRANCH  22  23
ATOM     23  N   UNL     1      12.320   6.227  24.003  0.00  0.00    -0.114 NA
ATOM     24  C   UNL     1      12.729   5.594  22.968  0.00  0.00    +0.376 C 
ATOM     25  N   UNL     1      13.906   5.954  22.399  0.00  0.00    -0.289 N 
ATOM     26  H   UNL     1      13.911   5.997  21.392  0.00  0.00    +0.255 HD
ATOM     27  H   UNL     1      14.252   6.813  22.815  0.00  0.00    +0.255 HD
ATOM     28  N   UNL     1      12.167   4.562  22.319  0.00  0.00    -0.289 N 
ATOM     29  H   UNL     1      12.486   4.302  21.401  0.00  0.00    +0.255 HD
ATOM     30  H   UNL     1      11.234   4.269  22.568  0.00  0.00    +0.255 HD
ENDBRANCH  22  23
ENDBRANCH  19  22
ENDBRANCH  14  16
ENDBRANCH  11  12
BRANCH  11  31
ATOM     31  C   UNL     1       2.966   3.421  24.747  0.00  0.00    +0.035 C 
BRANCH  31  32
ATOM     32  C   UNL     1       3.071   4.418  23.563  0.00  0.00    -0.009 C 
ATOM     33  C   UNL     1       1.841   5.320  23.369  0.00  0.00    +0.003 C 
ATOM     34  C   UNL     1       0.683   4.669  22.610  0.00  0.00    +0.000 C 
ATOM     35  C   UNL     1       1.134   4.087  21.277  0.00  0.00    +0.000 C 
ATOM     36  C   UNL     1       2.251   3.075  21.493  0.00  0.00    +0.000 C 
ATOM     37  C   UNL     1       3.435   3.705  22.232  0.00  0.00    +0.003 C 
ENDBRANCH  31  32
ENDBRANCH  11  31
ENDBRANCH   7  11
ENDBRANCH   3   5
BRANCH   1  38
ATOM     38  C   UNL     1       7.635  -0.963  26.804  0.00  0.00    +0.163 C 
BRANCH  38  41
ATOM     39  N   UNL     1       7.594  -3.217  25.778  0.00  0.00    -0.302 N 
ATOM     40  H   UNL     1       8.603  -3.124  25.870  0.00  0.00    +0.150 HD
ATOM     41  C   UNL     1       6.862  -2.074  26.010  0.00  0.00    +0.234 C 
ATOM     42  O   UNL     1       5.743  -1.937  25.528  0.00  0.00    -0.274 OA
BRANCH  39  43
ATOM     43  C   UNL     1       7.049  -4.424  25.126  0.00  0.00    +0.159 C 
BRANCH  43  44
ATOM     44  C   UNL     1       6.952  -5.561  26.174  0.00  0.00    +0.231 C 
ATOM     45  O   UNL     1       6.041  -6.387  26.204  0.00  0.00    -0.274 OA
ATOM     46  N   UNL     1       7.990  -5.705  27.051  0.00  0.00    -0.328 N 
ATOM     47  H   UNL     1       7.877  -6.425  27.750  0.00  0.00    +0.145 HD
ATOM     48  H   UNL     1       8.604  -4.933  27.270  0.00  0.00    +0.145 HD
ENDBRANCH  43  44
BRANCH  43  49
ATOM     49  C   UNL     1       7.902  -4.842  23.909  0.00  0.00    +0.032 C 
BRANCH  49  50
ATOM     50  C   UNL     1       7.959  -3.779  22.794  0.00  0.00    +0.005 C 
BRANCH  50  51
ATOM     51  C   UNL     1       6.629  -3.528  22.068  0.00  0.00    +0.041 C 
BRANCH  51  52
ATOM     52  C   UNL     1       5.793  -4.800  21.954  0.00  0.00    +0.243 C 
BRANCH  52  57
ATOM     53  N   UNL     1       2.806  -5.410  23.860  0.00  0.00    -0.289 N 
ATOM     54  H   UNL     1       2.368  -4.548  23.552  0.00  0.00    +0.255 HD
ATOM     55  H   UNL     1       2.180  -6.194  23.761  0.00  0.00    +0.255 HD
ATOM     56  C   UNL     1       4.003  -5.555  23.254  0.00  0.00    +0.376 C 
ATOM     57  N   UNL     1       4.476  -4.586  22.559  0.00  0.00    -0.114 NA
ATOM     58  N   UNL     1       4.546  -6.761  23.515  0.00  0.00    -0.289 N 
ATOM     59  H   UNL     1       5.357  -7.055  22.992  0.00  0.00    +0.255 HD
ATOM     60  H   UNL     1       3.963  -7.500  23.876  0.00  0.00    +0.255 HD
ENDBRANCH  52  57
ENDBRANCH  51  52
ENDBRANCH  50  51
ENDBRANCH  49  50
ENDBRANCH  43  49
ENDBRANCH  39  43
ENDBRANCH  38  41
BRANCH  38  61
ATOM     61  C   UNL     1       9.068  -0.712  26.268  0.00  0.00    +0.067 C 
BRANCH  61  62
ATOM     62  C   UNL     1       9.208   0.089  24.989  0.00  0.00    -0.045 A 
ATOM     63  C   UNL     1      10.125   1.152  24.927  0.00  0.00    +0.007 A 
ATOM     64  C   UNL     1      10.296   1.888  23.756  0.00  0.00    +0.045 A 
ATOM     65  C   UNL     1       9.541   1.578  22.636  0.00  0.00    +0.117 A 
ATOM     66  C   UNL     1       8.591   0.562  22.682  0.00  0.00    +0.045 A 
ATOM     67  C   UNL     1       8.421  -0.177  23.860  0.00  0.00    +0.007 A 
BRANCH  65  68
ATOM     68  O   UNL     1       9.761   2.304  21.501  0.00  0.00    -0.507 OA
ATOM     69  H   UNL     1       9.429   1.800  20.742  0.00  0.00    +0.292 HD
ENDBRANCH  65  68
ENDBRANCH  61  62
ENDBRANCH  38  61
ENDBRANCH   1  38
TORSDOF 20
ENDMDL
MODEL 3
REMARK VINA RESULT:      -6.8      2.339      9.188
REMARK  Name = 
REMARK  20 active torsions:
REMARK  status: ('A' for Active; 'I' for Inactive)
REMARK    1  A    between atoms: N_4  and  C_5
REMARK    2  A    between atoms: C_5  and  C_6
REMARK    3  A    between atoms: C_6  and  C_7
REMARK    4  A    between atoms: C_7  and  C_8
REMARK    5  A    between atoms: C_8  and  C_9
REMARK    6  A    between atoms: C_9  and  N_11
REMARK    7  A    between atoms: C_9  and  C_59
REMARK    8  A    between atoms: C_12  and  C_14
REMARK    9  A    between atoms: C_14  and  C_16
REMARK   10  A    between atoms: C_14  and  N_24
REMARK   11  A    between atoms: C_16  and  C_17
REMARK   12  A    between atoms: C_20  and  O_21
REMARK   13  A    between atoms: C_25  and  C_27
REMARK   14  A    between atoms: C_32  and  C_34
REMARK   15  A    between atoms: C_34  and  C_36
REMARK   16  A    between atoms: C_34  and  N_43
REMARK   17  A    between atoms: C_36  and  C_37
REMARK   18  A    between atoms: C_44  and  C_46
REMARK   19  A    between atoms: C_50  and  C_52
REMARK   20  A    between atoms: C_52  and  N_53
REMARK                            x       y       z     vdW  Elec       q    Type
REMARK                         _______ _______ _______ _____ _____    ______ ____
ROOT
ATOM      1  N   UNL     1       4.802  -0.759  26.919  0.00  0.00    -0.302 N 
ATOM      2  H   UNL     1       3.876  -0.508  26.596  0.00  0.00    +0.150 HD
ATOM      3  C   UNL     1       5.636   0.249  27.370  0.00  0.00    +0.234 C 
ATOM      4  O   UNL     1       6.693  -0.046  27.945  0.00  0.00    -0.274 OA
ENDROOT
BRANCH   3   5
ATOM      5  C   UNL     1       5.121   1.742  27.242  0.00  0.00    +0.163 C 
ATOM      6  N   UNL     1       4.180   2.131  26.159  0.00  0.00    -0.288 N 
ATOM      7  C   UNL     1       4.292   3.161  25.219  0.00  0.00    +0.237 C 
ATOM      8  O   UNL     1       3.329   3.902  24.998  0.00  0.00    -0.274 OA
ATOM      9  C   UNL     1       3.006   1.990  27.045  0.00  0.00    +0.111 C 
ATOM     10  C   UNL     1       3.968   2.067  28.225  0.00  0.00    +0.051 C 
BRANCH   7  11
ATOM     11  C   UNL     1       5.649   3.396  24.481  0.00  0.00    +0.159 C 
BRANCH  11  12
ATOM     12  N   UNL     1       6.166   2.127  23.889  0.00  0.00    -0.304 N 
ATOM     13  H   UNL     1       6.462   1.383  24.512  0.00  0.00    +0.149 HD
ATOM     14  C   UNL     1       6.681   2.135  22.596  0.00  0.00    +0.217 C 
ATOM     15  O   UNL     1       6.613   3.145  21.895  0.00  0.00    -0.275 OA
BRANCH  14  16
ATOM     16  C   UNL     1       7.343   0.858  22.047  0.00  0.00    +0.075 C 
ATOM     17  C   UNL     1       8.785   1.053  21.552  0.00  0.00    +0.013 C 
ATOM     18  C   UNL     1       9.397  -0.257  21.020  0.00  0.00    +0.007 C 
ATOM     19  C   UNL     1       9.297  -1.420  22.021  0.00  0.00    +0.027 C 
ATOM     20  C   UNL     1       7.827  -1.601  22.438  0.00  0.00    +0.007 C 
ATOM     21  C   UNL     1       7.212  -0.321  23.013  0.00  0.00    +0.013 C 
BRANCH  19  22
ATOM     22  C   UNL     1      10.241  -1.204  23.220  0.00  0.00    +0.247 C 
BRANCH  22  23
ATOM     23  N   UNL     1       9.451  -1.094  24.442  0.00  0.00    -0.114 NA
ATOM     24  C   UNL     1       9.766  -0.182  25.285  0.00  0.00    +0.376 C 
ATOM     25  N   UNL     1       9.062  -0.083  26.440  0.00  0.00    -0.289 N 
ATOM     26  H   UNL     1       8.820   0.852  26.726  0.00  0.00    +0.255 HD
ATOM     27  H   UNL     1       8.251  -0.692  26.414  0.00  0.00    +0.255 HD
ATOM     28  N   UNL     1      10.742   0.738  25.225  0.00  0.00    -0.289 N 
ATOM     29  H   UNL     1      10.741   1.524  25.854  0.00  0.00    +0.255 HD
ATOM     30  H   UNL     1      11.266   0.850  24.370  0.00  0.00    +0.255 HD
ENDBRANCH  22  23
ENDBRANCH  19  22
ENDBRANCH  14  16
ENDBRANCH  11  12
BRANCH  11  31
ATOM     31  C   UNL     1       6.742   3.951  25.467  0.00  0.00    +0.035 C 
BRANCH  31  32
ATOM     32  C   UNL     1       7.040   5.474  25.452  0.00  0.00    -0.009 C 
ATOM     33  C   UNL     1       6.674   6.189  24.141  0.00  0.00    +0.003 C 
ATOM     34  C   UNL     1       7.717   6.058  23.028  0.00  0.00    +0.000 C 
ATOM     35  C   UNL     1       9.103   6.479  23.497  0.00  0.00    +0.000 C 
ATOM     36  C   UNL     1       9.525   5.655  24.706  0.00  0.00    +0.000 C 
ATOM     37  C   UNL     1       8.510   5.783  25.846  0.00  0.00    +0.003 C 
ENDBRANCH  31  32
ENDBRANCH  11  31
ENDBRANCH   7  11
ENDBRANCH   3   5
BRANCH   1  38
ATOM     38  C   UNL     1       5.166  -2.201  26.942  0.00  0.00    +0.163 C 
BRANCH  38  41
ATOM     39  N   UNL     1       4.042  -4.404  27.068  0.00  0.00    -0.302 N 
ATOM     40  H   UNL     1       4.442  -4.505  26.138  0.00  0.00    +0.150 HD
ATOM     41  C   UNL     1       4.109  -3.143  27.618  0.00  0.00    +0.234 C 
ATOM     42  O   UNL     1       3.319  -2.794  28.488  0.00  0.00    -0.274 OA
BRANCH  39  43
ATOM     43  C   UNL     1       3.182  -5.484  27.592  0.00  0.00    +0.159 C 
BRANCH  43  44
ATOM     44  C   UNL     1       4.051  -6.743  27.839  0.00  0.00    +0.231 C 
ATOM     45  O   UNL     1       4.977  -7.089  27.108  0.00  0.00    -0.274 OA
ATOM     46  N   UNL     1       3.831  -7.449  28.989  0.00  0.00    -0.328 N 
ATOM     47  H   UNL     1       4.381  -8.289  29.100  0.00  0.00    +0.145 HD
ATOM     48  H   UNL     1       2.945  -7.403  29.472  0.00  0.00    +0.145 HD
ENDBRANCH  43  44
BRANCH  43  49
ATOM     49  C   UNL     1       2.006  -5.782  26.640  0.00  0.00    +0.032 C 
BRANCH  49  50
ATOM     50  C   UNL     1       1.405  -4.525  25.980  0.00  0.00    +0.005 C 
BRANCH  50  51
ATOM     51  C   UNL     1       1.291  -4.587  24.449  0.00  0.00    +0.041 C 
BRANCH  51  52
ATOM     52  C   UNL     1       1.877  -5.879  23.886  0.00  0.00    +0.243 C 
BRANCH  52  57
ATOM     53  N   UNL     1       5.074  -5.949  22.242  0.00  0.00    -0.289 N 
ATOM     54  H   UNL     1       4.829  -5.189  21.615  0.00  0.00    +0.255 HD
ATOM     55  H   UNL     1       5.974  -5.795  22.670  0.00  0.00    +0.255 HD
ATOM     56  C   UNL     1       4.061  -6.173  23.105  0.00  0.00    +0.376 C 
ATOM     57  N   UNL     1       2.943  -5.568  22.931  0.00  0.00    -0.114 NA
ATOM     58  N   UNL     1       4.408  -7.067  24.052  0.00  0.00    -0.289 N 
ATOM     59  H   UNL     1       3.799  -7.196  24.847  0.00  0.00    +0.255 HD
ATOM     60  H   UNL     1       5.381  -7.278  24.204  0.00  0.00    +0.255 HD
ENDBRANCH  52  57
ENDBRANCH  51  52
ENDBRANCH  50  51
ENDBRANCH  49  50
ENDBRANCH  43  49
ENDBRANCH  39  43
ENDBRANCH  38  41
BRANCH  38  61
ATOM     61  C   UNL     1       5.630  -2.700  25.549  0.00  0.00    +0.067 C 
BRANCH  61  62
ATOM     62  C   UNL     1       6.927  -3.481  25.480  0.00  0.00    -0.045 A 
ATOM     63  C   UNL     1       7.839  -3.416  26.547  0.00  0.00    +0.007 A 
ATOM     64  C   UNL     1       9.027  -4.146  26.524  0.00  0.00    +0.045 A 
ATOM     65  C   UNL     1       9.322  -4.938  25.426  0.00  0.00    +0.117 A 
ATOM     66  C   UNL     1       8.461  -4.985  24.334  0.00  0.00    +0.045 A 
ATOM     67  C   UNL     1       7.268  -4.251  24.359  0.00  0.00    +0.007 A 
BRANCH  65  68
ATOM     68  O   UNL     1      10.481  -5.659  25.458  0.00  0.00    -0.507 OA
ATOM     69  H   UNL     1      10.336  -6.497  24.991  0.00  0.00    +0.292 HD
ENDBRANCH  65  68
ENDBRANCH  61  62
ENDBRANCH  38  61
ENDBRANCH   1  38
TORSDOF 20
ENDMDL
MODEL 4
REMARK VINA RESULT:      -6.8      2.703      8.434
REMARK  Name = 
REMARK  20 active torsions:
REMARK  status: ('A' for Active; 'I' for Inactive)
REMARK    1  A    between atoms: N_4  and  C_5
REMARK    2  A    between atoms: C_5  and  C_6
REMARK    3  A    between atoms: C_6  and  C_7
REMARK    4  A    between atoms: C_7  and  C_8
REMARK    5  A    between atoms: C_8  and  C_9
REMARK    6  A    between atoms: C_9  and  N_11
REMARK    7  A    between atoms: C_9  and  C_59
REMARK    8  A    between atoms: C_12  and  C_14
REMARK    9  A    between atoms: C_14  and  C_16
REMARK   10  A    between atoms: C_14  and  N_24
REMARK   11  A    between atoms: C_16  and  C_17
REMARK   12  A    between atoms: C_20  and  O_21
REMARK   13  A    between atoms: C_25  and  C_27
REMARK   14  A    between atoms: C_32  and  C_34
REMARK   15  A    between atoms: C_34  and  C_36
REMARK   16  A    between atoms: C_34  and  N_43
REMARK   17  A    between atoms: C_36  and  C_37
REMARK   18  A    between atoms: C_44  and  C_46
REMARK   19  A    between atoms: C_50  and  C_52
REMARK   20  A    between atoms: C_52  and  N_53
REMARK                            x       y       z     vdW  Elec       q    Type
REMARK                         _______ _______ _______ _____ _____    ______ ____
ROOT
ATOM      1  N   UNL     1       4.795  -1.793  27.395  0.00  0.00    -0.302 N 
ATOM      2  H   UNL     1       5.140  -1.445  26.510  0.00  0.00    +0.150 HD
ATOM      3  C   UNL     1       4.702  -0.910  28.458  0.00  0.00    +0.234 C 
ATOM      4  O   UNL     1       4.110  -1.258  29.488  0.00  0.00    -0.274 OA
ENDROOT
BRANCH   3   5
ATOM      5  C   UNL     1       5.251   0.560  28.241  0.00  0.00    +0.163 C 
ATOM      6  N   UNL     1       4.320   1.716  28.171  0.00  0.00    -0.288 N 
ATOM      7  C   UNL     1       4.207   2.702  27.185  0.00  0.00    +0.237 C 
ATOM      8  O   UNL     1       4.120   3.891  27.508  0.00  0.00    -0.274 OA
ATOM      9  C   UNL     1       4.521   2.043  29.598  0.00  0.00    +0.111 C 
ATOM     10  C   UNL     1       5.790   1.199  29.546  0.00  0.00    +0.051 C 
BRANCH   7  11
ATOM     11  C   UNL     1       4.233   2.297  25.675  0.00  0.00    +0.159 C 
BRANCH  11  12
ATOM     12  N   UNL     1       5.633   2.114  25.192  0.00  0.00    -0.304 N 
ATOM     13  H   UNL     1       6.148   2.927  24.871  0.00  0.00    +0.149 HD
ATOM     14  C   UNL     1       6.042   0.864  24.737  0.00  0.00    +0.217 C 
ATOM     15  O   UNL     1       5.303  -0.115  24.832  0.00  0.00    -0.275 OA
BRANCH  14  16
ATOM     16  C   UNL     1       7.439   0.718  24.106  0.00  0.00    +0.075 C 
ATOM     17  C   UNL     1       7.607   1.442  22.761  0.00  0.00    +0.013 C 
ATOM     18  C   UNL     1       9.024   1.265  22.182  0.00  0.00    +0.007 C 
ATOM     19  C   UNL     1      10.134   1.652  23.173  0.00  0.00    +0.027 C 
ATOM     20  C   UNL     1       9.945   0.858  24.476  0.00  0.00    +0.007 C 
ATOM     21  C   UNL     1       8.557   1.056  25.095  0.00  0.00    +0.013 C 
BRANCH  19  22
ATOM     22  C   UNL     1      10.174   3.176  23.395  0.00  0.00    +0.247 C 
BRANCH  22  23
ATOM     23  N   UNL     1      11.563   3.625  23.409  0.00  0.00    -0.114 NA
ATOM     24  C   UNL     1      11.792   4.885  23.370  0.00  0.00    +0.376 C 
ATOM     25  N   UNL     1      13.076   5.319  23.353  0.00  0.00    -0.289 N 
ATOM     26  H   UNL     1      13.279   6.108  23.946  0.00  0.00    +0.255 HD
ATOM     27  H   UNL     1      13.713   4.548  23.519  0.00  0.00    +0.255 HD
ATOM     28  N   UNL     1      10.926   5.910  23.327  0.00  0.00    -0.289 N 
ATOM     29  H   UNL     1      11.237   6.848  23.515  0.00  0.00    +0.255 HD
ATOM     30  H   UNL     1       9.940   5.733  23.450  0.00  0.00    +0.255 HD
ENDBRANCH  22  23
ENDBRANCH  19  22
ENDBRANCH  14  16
ENDBRANCH  11  12
BRANCH  11  31
ATOM     31  C   UNL     1       3.552   3.399  24.782  0.00  0.00    +0.035 C 
BRANCH  31  32
ATOM     32  C   UNL     1       3.834   3.384  23.256  0.00  0.00    -0.009 C 
ATOM     33  C   UNL     1       4.670   4.569  22.745  0.00  0.00    +0.003 C 
ATOM     34  C   UNL     1       3.877   5.855  22.502  0.00  0.00    +0.000 C 
ATOM     35  C   UNL     1       2.675   5.618  21.596  0.00  0.00    +0.000 C 
ATOM     36  C   UNL     1       1.768   4.550  22.190  0.00  0.00    +0.000 C 
ATOM     37  C   UNL     1       2.531   3.242  22.424  0.00  0.00    +0.003 C 
ENDBRANCH  31  32
ENDBRANCH  11  31
ENDBRANCH   7  11
ENDBRANCH   3   5
BRANCH   1  38
ATOM     38  C   UNL     1       4.355  -3.213  27.464  0.00  0.00    +0.163 C 
BRANCH  38  41
ATOM     39  N   UNL     1       3.320  -5.056  26.174  0.00  0.00    -0.302 N 
ATOM     40  H   UNL     1       4.016  -5.608  26.672  0.00  0.00    +0.150 HD
ATOM     41  C   UNL     1       3.458  -3.689  26.269  0.00  0.00    +0.234 C 
ATOM     42  O   UNL     1       2.989  -2.950  25.410  0.00  0.00    -0.274 OA
BRANCH  39  43
ATOM     43  C   UNL     1       2.458  -5.729  25.182  0.00  0.00    +0.159 C 
BRANCH  43  44
ATOM     44  C   UNL     1       2.125  -7.155  25.690  0.00  0.00    +0.231 C 
ATOM     45  O   UNL     1       1.477  -7.976  25.045  0.00  0.00    -0.274 OA
ATOM     46  N   UNL     1       2.666  -7.544  26.884  0.00  0.00    -0.328 N 
ATOM     47  H   UNL     1       2.394  -8.460  27.210  0.00  0.00    +0.145 HD
ATOM     48  H   UNL     1       2.952  -6.866  27.577  0.00  0.00    +0.145 HD
ENDBRANCH  43  44
BRANCH  43  49
ATOM     49  C   UNL     1       3.119  -5.761  23.789  0.00  0.00    +0.032 C 
BRANCH  49  50
ATOM     50  C   UNL     1       4.493  -6.459  23.767  0.00  0.00    +0.005 C 
BRANCH  50  51
ATOM     51  C   UNL     1       5.697  -5.519  23.601  0.00  0.00    +0.041 C 
BRANCH  51  52
ATOM     52  C   UNL     1       5.804  -4.976  22.178  0.00  0.00    +0.243 C 
BRANCH  52  57
ATOM     53  N   UNL     1       8.168  -2.268  22.120  0.00  0.00    -0.289 N 
ATOM     54  H   UNL     1       8.907  -2.849  21.738  0.00  0.00    +0.255 HD
ATOM     55  H   UNL     1       8.080  -1.404  21.606  0.00  0.00    +0.255 HD
ATOM     56  C   UNL     1       7.031  -2.987  22.227  0.00  0.00    +0.376 C 
ATOM     57  N   UNL     1       7.067  -4.252  22.016  0.00  0.00    -0.114 NA
ATOM     58  N   UNL     1       5.987  -2.211  22.580  0.00  0.00    -0.289 N 
ATOM     59  H   UNL     1       5.055  -2.596  22.534  0.00  0.00    +0.255 HD
ATOM     60  H   UNL     1       6.056  -1.210  22.482  0.00  0.00    +0.255 HD
ENDBRANCH  52  57
ENDBRANCH  51  52
ENDBRANCH  50  51
ENDBRANCH  49  50
ENDBRANCH  43  49
ENDBRANCH  39  43
ENDBRANCH  38  41
BRANCH  38  61
ATOM     61  C   UNL     1       5.540  -4.169  27.760  0.00  0.00    +0.067 C 
BRANCH  61  62
ATOM     62  C   UNL     1       6.768  -4.057  26.878  0.00  0.00    -0.045 A 
ATOM     63  C   UNL     1       7.513  -5.208  26.571  0.00  0.00    +0.007 A 
ATOM     64  C   UNL     1       8.630  -5.141  25.740  0.00  0.00    +0.045 A 
ATOM     65  C   UNL     1       9.023  -3.919  25.218  0.00  0.00    +0.117 A 
ATOM     66  C   UNL     1       8.332  -2.755  25.544  0.00  0.00    +0.045 A 
ATOM     67  C   UNL     1       7.210  -2.824  26.379  0.00  0.00    +0.007 A 
BRANCH  65  68
ATOM     68  O   UNL     1      10.104  -3.902  24.385  0.00  0.00    -0.507 OA
ATOM     69  H   UNL     1       9.790  -3.805  23.473  0.00  0.00    +0.292 HD
ENDBRANCH  65  68
ENDBRANCH  61  62
ENDBRANCH  38  61
ENDBRANCH   1  38
TORSDOF 20
ENDMDL
MODEL 5
REMARK VINA RESULT:      -6.7      2.320      9.004
REMARK  Name = 
REMARK  20 active torsions:
REMARK  status: ('A' for Active; 'I' for Inactive)
REMARK    1  A    between atoms: N_4  and  C_5
REMARK    2  A    between atoms: C_5  and  C_6
REMARK    3  A    between atoms: C_6  and  C_7
REMARK    4  A    between atoms: C_7  and  C_8
REMARK    5  A    between atoms: C_8  and  C_9
REMARK    6  A    between atoms: C_9  and  N_11
REMARK    7  A    between atoms: C_9  and  C_59
REMARK    8  A    between atoms: C_12  and  C_14
REMARK    9  A    between atoms: C_14  and  C_16
REMARK   10  A    between atoms: C_14  and  N_24
REMARK   11  A    between atoms: C_16  and  C_17
REMARK   12  A    between atoms: C_20  and  O_21
REMARK   13  A    between atoms: C_25  and  C_27
REMARK   14  A    between atoms: C_32  and  C_34
REMARK   15  A    between atoms: C_34  and  C_36
REMARK   16  A    between atoms: C_34  and  N_43
REMARK   17  A    between atoms: C_36  and  C_37
REMARK   18  A    between atoms: C_44  and  C_46
REMARK   19  A    between atoms: C_50  and  C_52
REMARK   20  A    between atoms: C_52  and  N_53
REMARK                            x       y       z     vdW  Elec       q    Type
REMARK                         _______ _______ _______ _____ _____    ______ ____
ROOT
ATOM      1  N   UNL     1       6.712  -1.137  26.580  0.00  0.00    -0.302 N 
ATOM      2  H   UNL     1       7.716  -1.241  26.654  0.00  0.00    +0.150 HD
ATOM      3  C   UNL     1       6.152   0.085  26.913  0.00  0.00    +0.234 C 
ATOM      4  O   UNL     1       4.960   0.300  26.651  0.00  0.00    -0.274 OA
ENDROOT
BRANCH   3   5
ATOM      5  C   UNL     1       7.114   1.200  27.496  0.00  0.00    +0.163 C 
ATOM      6  N   UNL     1       6.609   2.571  27.772  0.00  0.00    -0.288 N 
ATOM      7  C   UNL     1       7.111   3.801  27.336  0.00  0.00    +0.237 C 
ATOM      8  O   UNL     1       7.240   4.734  28.135  0.00  0.00    -0.274 OA
ATOM      9  C   UNL     1       6.387   2.268  29.201  0.00  0.00    +0.111 C 
ATOM     10  C   UNL     1       7.320   1.075  29.027  0.00  0.00    +0.051 C 
BRANCH   7  11
ATOM     11  C   UNL     1       7.545   3.980  25.845  0.00  0.00    +0.159 C 
BRANCH  11  12
ATOM     12  N   UNL     1       8.297   2.785  25.358  0.00  0.00    -0.304 N 
ATOM     13  H   UNL     1       9.226   2.610  25.726  0.00  0.00    +0.149 HD
ATOM     14  C   UNL     1       7.970   2.228  24.125  0.00  0.00    +0.217 C 
ATOM     15  O   UNL     1       7.001   2.634  23.485  0.00  0.00    -0.275 OA
BRANCH  14  16
ATOM     16  C   UNL     1       8.843   1.089  23.565  0.00  0.00    +0.075 C 
ATOM     17  C   UNL     1       9.917   0.576  24.536  0.00  0.00    +0.013 C 
ATOM     18  C   UNL     1      10.754  -0.564  23.924  0.00  0.00    +0.007 C 
ATOM     19  C   UNL     1       9.895  -1.714  23.373  0.00  0.00    +0.027 C 
ATOM     20  C   UNL     1       8.877  -1.148  22.369  0.00  0.00    +0.007 C 
ATOM     21  C   UNL     1       8.002  -0.043  22.971  0.00  0.00    +0.013 C 
BRANCH  19  22
ATOM     22  C   UNL     1       9.236  -2.512  24.515  0.00  0.00    +0.247 C 
BRANCH  22  23
ATOM     23  N   UNL     1       9.690  -3.898  24.458  0.00  0.00    -0.114 NA
ATOM     24  C   UNL     1       9.435  -4.659  25.457  0.00  0.00    +0.376 C 
ATOM     25  N   UNL     1       9.873  -5.942  25.435  0.00  0.00    -0.289 N 
ATOM     26  H   UNL     1       9.217  -6.635  25.758  0.00  0.00    +0.255 HD
ATOM     27  H   UNL     1      10.246  -6.173  24.521  0.00  0.00    +0.255 HD
ATOM     28  N   UNL     1       8.781  -4.383  26.596  0.00  0.00    -0.289 N 
ATOM     29  H   UNL     1       8.468  -5.127  27.197  0.00  0.00    +0.255 HD
ATOM     30  H   UNL     1       8.303  -3.500  26.693  0.00  0.00    +0.255 HD
ENDBRANCH  22  23
ENDBRANCH  19  22
ENDBRANCH  14  16
ENDBRANCH  11  12
BRANCH  11  31
ATOM     31  C   UNL     1       8.472   5.239  25.671  0.00  0.00    +0.035 C 
BRANCH  31  32
ATOM     32  C   UNL     1       7.870   6.509  25.014  0.00  0.00    -0.009 C 
ATOM     33  C   UNL     1       6.333   6.560  25.001  0.00  0.00    +0.003 C 
ATOM     34  C   UNL     1       5.676   5.766  23.871  0.00  0.00    +0.000 C 
ATOM     35  C   UNL     1       6.235   6.149  22.507  0.00  0.00    +0.000 C 
ATOM     36  C   UNL     1       7.744   5.947  22.478  0.00  0.00    +0.000 C 
ATOM     37  C   UNL     1       8.432   6.748  23.587  0.00  0.00    +0.003 C 
ENDBRANCH  31  32
ENDBRANCH  11  31
ENDBRANCH   7  11
ENDBRANCH   3   5
BRANCH   1  38
ATOM     38  C   UNL     1       5.927  -2.287  26.057  0.00  0.00    +0.163 C 
BRANCH  38  41
ATOM     39  N   UNL     1       3.505  -2.513  26.523  0.00  0.00    -0.302 N 
ATOM     40  H   UNL     1       3.442  -1.793  25.805  0.00  0.00    +0.150 HD
ATOM     41  C   UNL     1       4.770  -2.782  26.994  0.00  0.00    +0.234 C 
ATOM     42  O   UNL     1       4.935  -3.274  28.105  0.00  0.00    -0.274 OA
BRANCH  39  43
ATOM     43  C   UNL     1       2.266  -2.957  27.192  0.00  0.00    +0.159 C 
BRANCH  43  44
ATOM     44  C   UNL     1       1.900  -1.937  28.300  0.00  0.00    +0.231 C 
ATOM     45  O   UNL     1       1.371  -2.247  29.366  0.00  0.00    -0.274 OA
ATOM     46  N   UNL     1       2.279  -0.637  28.115  0.00  0.00    -0.328 N 
ATOM     47  H   UNL     1       1.987   0.011  28.832  0.00  0.00    +0.145 HD
ATOM     48  H   UNL     1       2.448  -0.266  27.190  0.00  0.00    +0.145 HD
ENDBRANCH  43  44
BRANCH  43  49
ATOM     49  C   UNL     1       2.410  -4.385  27.756  0.00  0.00    +0.032 C 
BRANCH  49  50
ATOM     50  C   UNL     1       2.027  -5.493  26.755  0.00  0.00    +0.005 C 
BRANCH  50  51
ATOM     51  C   UNL     1       3.119  -5.850  25.734  0.00  0.00    +0.041 C 
BRANCH  51  52
ATOM     52  C   UNL     1       3.908  -7.087  26.154  0.00  0.00    +0.243 C 
BRANCH  52  57
ATOM     53  N   UNL     1       6.429  -6.552  28.661  0.00  0.00    -0.289 N 
ATOM     54  H   UNL     1       7.037  -6.051  28.022  0.00  0.00    +0.255 HD
ATOM     55  H   UNL     1       6.317  -6.050  29.529  0.00  0.00    +0.255 HD
ATOM     56  C   UNL     1       5.278  -6.878  28.037  0.00  0.00    +0.376 C 
ATOM     57  N   UNL     1       5.173  -6.684  26.773  0.00  0.00    -0.114 NA
ATOM     58  N   UNL     1       4.382  -7.405  28.895  0.00  0.00    -0.289 N 
ATOM     59  H   UNL     1       3.430  -7.537  28.587  0.00  0.00    +0.255 HD
ATOM     60  H   UNL     1       4.511  -7.280  29.887  0.00  0.00    +0.255 HD
ENDBRANCH  52  57
ENDBRANCH  51  52
ENDBRANCH  50  51
ENDBRANCH  49  50
ENDBRANCH  43  49
ENDBRANCH  39  43
ENDBRANCH  38  41
BRANCH  38  61
ATOM     61  C   UNL     1       5.473  -2.055  24.592  0.00  0.00    +0.067 C 
BRANCH  61  62
ATOM     62  C   UNL     1       5.693  -3.183  23.603  0.00  0.00    -0.045 A 
ATOM     63  C   UNL     1       5.976  -4.477  24.071  0.00  0.00    +0.007 A 
ATOM     64  C   UNL     1       6.156  -5.539  23.186  0.00  0.00    +0.045 A 
ATOM     65  C   UNL     1       6.068  -5.315  21.822  0.00  0.00    +0.117 A 
ATOM     66  C   UNL     1       5.836  -4.035  21.328  0.00  0.00    +0.045 A 
ATOM     67  C   UNL     1       5.656  -2.969  22.218  0.00  0.00    +0.007 A 
BRANCH  65  68
ATOM     68  O   UNL     1       6.219  -6.388  20.992  0.00  0.00    -0.507 OA
ATOM     69  H   UNL     1       6.774  -6.123  20.241  0.00  0.00    +0.292 HD
ENDBRANCH  65  68
ENDBRANCH  61  62
ENDBRANCH  38  61
ENDBRANCH   1  38
TORSDOF 20
ENDMDL
MODEL 6
REMARK VINA RESULT:      -6.7      1.652      3.817
REMARK  Name = 
REMARK  20 active torsions:
REMARK  status: ('A' for Active; 'I' for Inactive)
REMARK    1  A    between atoms: N_4  and  C_5
REMARK    2  A    between atoms: C_5  and  C_6
REMARK    3  A    between atoms: C_6  and  C_7
REMARK    4  A    between atoms: C_7  and  C_8
REMARK    5  A    between atoms: C_8  and  C_9
REMARK    6  A    between atoms: C_9  and  N_11
REMARK    7  A    between atoms: C_9  and  C_59
REMARK    8  A    between atoms: C_12  and  C_14
REMARK    9  A    between atoms: C_14  and  C_16
REMARK   10  A    between atoms: C_14  and  N_24
REMARK   11  A    between atoms: C_16  and  C_17
REMARK   12  A    between atoms: C_20  and  O_21
REMARK   13  A    between atoms: C_25  and  C_27
REMARK   14  A    between atoms: C_32  and  C_34
REMARK   15  A    between atoms: C_34  and  C_36
REMARK   16  A    between atoms: C_34  and  N_43
REMARK   17  A    between atoms: C_36  and  C_37
REMARK   18  A    between atoms: C_44  and  C_46
REMARK   19  A    between atoms: C_50  and  C_52
REMARK   20  A    between atoms: C_52  and  N_53
REMARK                            x       y       z     vdW  Elec       q    Type
REMARK                         _______ _______ _______ _____ _____    ______ ____
ROOT
ATOM      1  N   UNL     1       5.179   0.676  26.666  0.00  0.00    -0.302 N 
ATOM      2  H   UNL     1       4.319   1.140  26.930  0.00  0.00    +0.150 HD
ATOM      3  C   UNL     1       5.251  -0.700  26.797  0.00  0.00    +0.234 C 
ATOM      4  O   UNL     1       6.211  -1.310  26.306  0.00  0.00    -0.274 OA
ENDROOT
BRANCH   3   5
ATOM      5  C   UNL     1       4.018  -1.440  27.462  0.00  0.00    +0.163 C 
ATOM      6  N   UNL     1       4.227  -2.483  28.501  0.00  0.00    -0.288 N 
ATOM      7  C   UNL     1       3.741  -3.793  28.548  0.00  0.00    +0.237 C 
ATOM      8  O   UNL     1       3.242  -4.230  29.590  0.00  0.00    -0.274 OA
ATOM      9  C   UNL     1       4.011  -1.518  29.599  0.00  0.00    +0.111 C 
ATOM     10  C   UNL     1       3.344  -0.603  28.579  0.00  0.00    +0.051 C 
BRANCH   7  11
ATOM     11  C   UNL     1       3.793  -4.689  27.267  0.00  0.00    +0.159 C 
BRANCH  11  12
ATOM     12  N   UNL     1       4.947  -4.315  26.398  0.00  0.00    -0.304 N 
ATOM     13  H   UNL     1       4.818  -3.586  25.703  0.00  0.00    +0.149 HD
ATOM     14  C   UNL     1       5.978  -5.228  26.198  0.00  0.00    +0.217 C 
ATOM     15  O   UNL     1       6.007  -6.293  26.814  0.00  0.00    -0.275 OA
BRANCH  14  16
ATOM     16  C   UNL     1       7.089  -4.893  25.186  0.00  0.00    +0.075 C 
ATOM     17  C   UNL     1       6.588  -4.265  23.877  0.00  0.00    +0.013 C 
ATOM     18  C   UNL     1       7.743  -3.946  22.908  0.00  0.00    +0.007 C 
ATOM     19  C   UNL     1       8.853  -3.099  23.551  0.00  0.00    +0.027 C 
ATOM     20  C   UNL     1       9.351  -3.802  24.824  0.00  0.00    +0.007 C 
ATOM     21  C   UNL     1       8.225  -4.088  25.823  0.00  0.00    +0.013 C 
BRANCH  19  22
ATOM     22  C   UNL     1       8.373  -1.656  23.807  0.00  0.00    +0.247 C 
BRANCH  22  23
ATOM     23  N   UNL     1       9.529  -0.765  23.850  0.00  0.00    -0.114 NA
ATOM     24  C   UNL     1       9.817  -0.202  24.964  0.00  0.00    +0.376 C 
ATOM     25  N   UNL     1      10.868   0.651  25.017  0.00  0.00    -0.289 N 
ATOM     26  H   UNL     1      11.468   0.559  25.822  0.00  0.00    +0.255 HD
ATOM     27  H   UNL     1      11.394   0.620  24.150  0.00  0.00    +0.255 HD
ATOM     28  N   UNL     1       9.210  -0.308  26.157  0.00  0.00    -0.289 N 
ATOM     29  H   UNL     1       9.666   0.020  26.991  0.00  0.00    +0.255 HD
ATOM     30  H   UNL     1       8.485  -0.997  26.285  0.00  0.00    +0.255 HD
ENDBRANCH  22  23
ENDBRANCH  19  22
ENDBRANCH  14  16
ENDBRANCH  11  12
BRANCH  11  31
ATOM     31  C   UNL     1       2.478  -4.541  26.418  0.00  0.00    +0.035 C 
BRANCH  31  32
ATOM     32  C   UNL     1       1.805  -5.830  25.875  0.00  0.00    -0.009 C 
ATOM     33  C   UNL     1       2.784  -6.926  25.423  0.00  0.00    +0.003 C 
ATOM     34  C   UNL     1       3.357  -6.733  24.018  0.00  0.00    +0.000 C 
ATOM     35  C   UNL     1       2.261  -6.535  22.980  0.00  0.00    +0.000 C 
ATOM     36  C   UNL     1       1.387  -5.346  23.354  0.00  0.00    +0.000 C 
ATOM     37  C   UNL     1       0.781  -5.521  24.749  0.00  0.00    +0.003 C 
ENDBRANCH  31  32
ENDBRANCH  11  31
ENDBRANCH   7  11
ENDBRANCH   3   5
BRANCH   1  38
ATOM     38  C   UNL     1       6.273   1.507  26.096  0.00  0.00    +0.163 C 
BRANCH  38  41
ATOM     39  N   UNL     1       7.298   2.324  23.994  0.00  0.00    -0.302 N 
ATOM     40  H   UNL     1       7.958   2.745  24.644  0.00  0.00    +0.150 HD
ATOM     41  C   UNL     1       6.161   1.787  24.556  0.00  0.00    +0.234 C 
ATOM     42  O   UNL     1       5.136   1.655  23.895  0.00  0.00    -0.274 OA
BRANCH  39  43
ATOM     43  C   UNL     1       7.454   2.592  22.551  0.00  0.00    +0.159 C 
BRANCH  43  44
ATOM     44  C   UNL     1       8.836   2.064  22.088  0.00  0.00    +0.231 C 
ATOM     45  O   UNL     1       9.903   2.406  22.593  0.00  0.00    -0.274 OA
ATOM     46  N   UNL     1       8.852   1.092  21.127  0.00  0.00    -0.328 N 
ATOM     47  H   UNL     1       9.767   0.800  20.814  0.00  0.00    +0.145 HD
ATOM     48  H   UNL     1       8.078   0.972  20.488  0.00  0.00    +0.145 HD
ENDBRANCH  43  44
BRANCH  43  49
ATOM     49  C   UNL     1       7.282   4.093  22.234  0.00  0.00    +0.032 C 
BRANCH  49  50
ATOM     50  C   UNL     1       7.223   4.991  23.485  0.00  0.00    +0.005 C 
BRANCH  50  51
ATOM     51  C   UNL     1       8.431   5.921  23.675  0.00  0.00    +0.041 C 
BRANCH  51  52
ATOM     52  C   UNL     1       9.565   5.234  24.431  0.00  0.00    +0.243 C 
BRANCH  52  57
ATOM     53  N   UNL     1      12.908   6.258  23.593  0.00  0.00    -0.289 N 
ATOM     54  H   UNL     1      12.855   7.094  24.166  0.00  0.00    +0.255 HD
ATOM     55  H   UNL     1      13.757   5.745  23.773  0.00  0.00    +0.255 HD
ATOM     56  C   UNL     1      11.770   5.544  23.719  0.00  0.00    +0.376 C 
ATOM     57  N   UNL     1      10.779   6.051  24.357  0.00  0.00    -0.114 NA
ATOM     58  N   UNL     1      11.864   4.351  23.099  0.00  0.00    -0.289 N 
ATOM     59  H   UNL     1      11.145   3.661  23.258  0.00  0.00    +0.255 HD
ATOM     60  H   UNL     1      12.771   3.993  22.845  0.00  0.00    +0.255 HD
ENDBRANCH  52  57
ENDBRANCH  51  52
ENDBRANCH  50  51
ENDBRANCH  49  50
ENDBRANCH  43  49
ENDBRANCH  39  43
ENDBRANCH  38  41
BRANCH  38  61
ATOM     61  C   UNL     1       6.523   2.786  26.935  0.00  0.00    +0.067 C 
BRANCH  61  62
ATOM     62  C   UNL     1       5.316   3.624  27.311  0.00  0.00    -0.045 A 
ATOM     63  C   UNL     1       4.799   4.553  26.394  0.00  0.00    +0.007 A 
ATOM     64  C   UNL     1       3.674   5.317  26.701  0.00  0.00    +0.045 A 
ATOM     65  C   UNL     1       3.063   5.170  27.936  0.00  0.00    +0.117 A 
ATOM     66  C   UNL     1       3.582   4.292  28.882  0.00  0.00    +0.045 A 
ATOM     67  C   UNL     1       4.712   3.525  28.573  0.00  0.00    +0.007 A 
BRANCH  65  68
ATOM     68  O   UNL     1       1.946   5.915  28.184  0.00  0.00    -0.507 OA
ATOM     69  H   UNL     1       1.687   5.785  29.109  0.00  0.00    +0.292 HD
ENDBRANCH  65  68
ENDBRANCH  61  62
ENDBRANCH  38  61
ENDBRANCH   1  38
TORSDOF 20
ENDMDL
MODEL 7
REMARK VINA RESULT:      -6.6      3.991      9.838
REMARK  Name = 
REMARK  20 active torsions:
REMARK  status: ('A' for Active; 'I' for Inactive)
REMARK    1  A    between atoms: N_4  and  C_5
REMARK    2  A    between atoms: C_5  and  C_6
REMARK    3  A    between atoms: C_6  and  C_7
REMARK    4  A    between atoms: C_7  and  C_8
REMARK    5  A    between atoms: C_8  and  C_9
REMARK    6  A    between atoms: C_9  and  N_11
REMARK    7  A    between atoms: C_9  and  C_59
REMARK    8  A    between atoms: C_12  and  C_14
REMARK    9  A    between atoms: C_14  and  C_16
REMARK   10  A    between atoms: C_14  and  N_24
REMARK   11  A    between atoms: C_16  and  C_17
REMARK   12  A    between atoms: C_20  and  O_21
REMARK   13  A    between atoms: C_25  and  C_27
REMARK   14  A    between atoms: C_32  and  C_34
REMARK   15  A    between atoms: C_34  and  C_36
REMARK   16  A    between atoms: C_34  and  N_43
REMARK   17  A    between atoms: C_36  and  C_37
REMARK   18  A    between atoms: C_44  and  C_46
REMARK   19  A    between atoms: C_50  and  C_52
REMARK   20  A    between atoms: C_52  and  N_53
REMARK                            x       y       z     vdW  Elec       q    Type
REMARK                         _______ _______ _______ _____ _____    ______ ____
ROOT
ATOM      1  N   UNL     1       4.714  -1.201  26.881  0.00  0.00    -0.302 N 
ATOM      2  H   UNL     1       5.580  -1.722  26.940  0.00  0.00    +0.150 HD
ATOM      3  C   UNL     1       4.774   0.136  26.529  0.00  0.00    +0.234 C 
ATOM      4  O   UNL     1       3.728   0.744  26.264  0.00  0.00    -0.274 OA
ENDROOT
BRANCH   3   5
ATOM      5  C   UNL     1       6.208   0.786  26.352  0.00  0.00    +0.163 C 
ATOM      6  N   UNL     1       6.394   2.257  26.452  0.00  0.00    -0.288 N 
ATOM      7  C   UNL     1       7.001   3.135  25.548  0.00  0.00    +0.237 C 
ATOM      8  O   UNL     1       7.805   3.980  25.954  0.00  0.00    -0.274 OA
ATOM      9  C   UNL     1       6.804   2.171  27.869  0.00  0.00    +0.111 C 
ATOM     10  C   UNL     1       7.075   0.689  27.634  0.00  0.00    +0.051 C 
BRANCH   7  11
ATOM     11  C   UNL     1       6.690   3.016  24.021  0.00  0.00    +0.159 C 
BRANCH  11  12
ATOM     12  N   UNL     1       5.225   2.862  23.781  0.00  0.00    -0.304 N 
ATOM     13  H   UNL     1       4.869   1.951  23.509  0.00  0.00    +0.149 HD
ATOM     14  C   UNL     1       4.463   3.981  23.460  0.00  0.00    +0.217 C 
ATOM     15  O   UNL     1       4.955   5.108  23.481  0.00  0.00    -0.275 OA
BRANCH  14  16
ATOM     16  C   UNL     1       2.984   3.792  23.073  0.00  0.00    +0.075 C 
ATOM     17  C   UNL     1       2.118   5.050  23.239  0.00  0.00    +0.013 C 
ATOM     18  C   UNL     1       0.653   4.804  22.831  0.00  0.00    +0.007 C 
ATOM     19  C   UNL     1       0.512   4.203  21.423  0.00  0.00    +0.027 C 
ATOM     20  C   UNL     1       1.355   2.920  21.334  0.00  0.00    +0.007 C 
ATOM     21  C   UNL     1       2.827   3.153  21.691  0.00  0.00    +0.013 C 
BRANCH  19  22
ATOM     22  C   UNL     1       0.872   5.238  20.339  0.00  0.00    +0.247 C 
BRANCH  22  23
ATOM     23  N   UNL     1       1.038   4.557  19.059  0.00  0.00    -0.114 NA
ATOM     24  C   UNL     1       1.807   5.091  18.185  0.00  0.00    +0.376 C 
ATOM     25  N   UNL     1       1.951   4.489  16.979  0.00  0.00    -0.289 N 
ATOM     26  H   UNL     1       2.892   4.450  16.619  0.00  0.00    +0.255 HD
ATOM     27  H   UNL     1       1.511   3.575  16.985  0.00  0.00    +0.255 HD
ATOM     28  N   UNL     1       2.527   6.222  18.258  0.00  0.00    -0.289 N 
ATOM     29  H   UNL     1       3.249   6.411  17.583  0.00  0.00    +0.255 HD
ATOM     30  H   UNL     1       2.601   6.708  19.139  0.00  0.00    +0.255 HD
ENDBRANCH  22  23
ENDBRANCH  19  22
ENDBRANCH  14  16
ENDBRANCH  11  12
BRANCH  11  31
ATOM     31  C   UNL     1       7.418   1.773  23.389  0.00  0.00    +0.035 C 
BRANCH  31  32
ATOM     32  C   UNL     1       8.970   1.754  23.387  0.00  0.00    -0.009 C 
ATOM     33  C   UNL     1       9.608   1.444  22.023  0.00  0.00    +0.003 C 
ATOM     34  C   UNL     1       9.671  -0.043  21.669  0.00  0.00    +0.000 C 
ATOM     35  C   UNL     1      10.337  -0.861  22.768  0.00  0.00    +0.000 C 
ATOM     36  C   UNL     1       9.602  -0.670  24.087  0.00  0.00    +0.000 C 
ATOM     37  C   UNL     1       9.542   0.809  24.479  0.00  0.00    +0.003 C 
ENDBRANCH  31  32
ENDBRANCH  11  31
ENDBRANCH   7  11
ENDBRANCH   3   5
BRANCH   1  38
ATOM     38  C   UNL     1       3.441  -1.933  27.117  0.00  0.00    +0.163 C 
BRANCH  38  41
ATOM     39  N   UNL     1       3.963  -3.392  25.185  0.00  0.00    -0.302 N 
ATOM     40  H   UNL     1       4.885  -2.976  25.299  0.00  0.00    +0.150 HD
ATOM     41  C   UNL     1       2.949  -2.814  25.915  0.00  0.00    +0.234 C 
ATOM     42  O   UNL     1       1.780  -2.917  25.558  0.00  0.00    -0.274 OA
BRANCH  39  43
ATOM     43  C   UNL     1       3.740  -4.326  24.063  0.00  0.00    +0.159 C 
BRANCH  43  44
ATOM     44  C   UNL     1       3.605  -5.764  24.625  0.00  0.00    +0.231 C 
ATOM     45  O   UNL     1       2.551  -6.396  24.640  0.00  0.00    -0.274 OA
ATOM     46  N   UNL     1       4.747  -6.392  25.037  0.00  0.00    -0.328 N 
ATOM     47  H   UNL     1       4.622  -7.310  25.440  0.00  0.00    +0.145 HD
ATOM     48  H   UNL     1       5.565  -5.867  25.315  0.00  0.00    +0.145 HD
ENDBRANCH  43  44
BRANCH  43  49
ATOM     49  C   UNL     1       4.866  -4.227  23.013  0.00  0.00    +0.032 C 
BRANCH  49  50
ATOM     50  C   UNL     1       5.913  -3.139  23.323  0.00  0.00    +0.005 C 
BRANCH  50  51
ATOM     51  C   UNL     1       7.370  -3.546  23.056  0.00  0.00    +0.041 C 
BRANCH  51  52
ATOM     52  C   UNL     1       7.647  -4.985  23.481  0.00  0.00    +0.243 C 
BRANCH  52  57
ATOM     53  N   UNL     1      10.417  -5.567  25.698  0.00  0.00    -0.289 N 
ATOM     54  H   UNL     1      11.101  -5.271  25.009  0.00  0.00    +0.255 HD
ATOM     55  H   UNL     1      10.578  -5.122  26.588  0.00  0.00    +0.255 HD
ATOM     56  C   UNL     1       9.172  -5.415  25.200  0.00  0.00    +0.376 C 
ATOM     57  N   UNL     1       9.025  -5.106  23.963  0.00  0.00    -0.114 NA
ATOM     58  N   UNL     1       8.232  -5.648  26.137  0.00  0.00    -0.289 N 
ATOM     59  H   UNL     1       7.273  -5.408  25.937  0.00  0.00    +0.255 HD
ATOM     60  H   UNL     1       8.492  -5.649  27.111  0.00  0.00    +0.255 HD
ENDBRANCH  52  57
ENDBRANCH  51  52
ENDBRANCH  50  51
ENDBRANCH  49  50
ENDBRANCH  43  49
ENDBRANCH  39  43
ENDBRANCH  38  41
BRANCH  38  61
ATOM     61  C   UNL     1       3.456  -2.694  28.468  0.00  0.00    +0.067 C 
BRANCH  61  62
ATOM     62  C   UNL     1       3.992  -4.112  28.469  0.00  0.00    -0.045 A 
ATOM     63  C   UNL     1       5.377  -4.334  28.403  0.00  0.00    +0.007 A 
ATOM     64  C   UNL     1       5.901  -5.626  28.430  0.00  0.00    +0.045 A 
ATOM     65  C   UNL     1       5.042  -6.711  28.509  0.00  0.00    +0.117 A 
ATOM     66  C   UNL     1       3.664  -6.523  28.527  0.00  0.00    +0.045 A 
ATOM     67  C   UNL     1       3.139  -5.225  28.500  0.00  0.00    +0.007 A 
BRANCH  65  68
ATOM     68  O   UNL     1       5.597  -7.957  28.564  0.00  0.00    -0.507 OA
ATOM     69  H   UNL     1       6.533  -7.890  28.317  0.00  0.00    +0.292 HD
ENDBRANCH  65  68
ENDBRANCH  61  62
ENDBRANCH  38  61
ENDBRANCH   1  38
TORSDOF 20
ENDMDL
MODEL 8
REMARK VINA RESULT:      -6.4      1.824      2.419
REMARK  Name = 
REMARK  20 active torsions:
REMARK  status: ('A' for Active; 'I' for Inactive)
REMARK    1  A    between atoms: N_4  and  C_5
REMARK    2  A    between atoms: C_5  and  C_6
REMARK    3  A    between atoms: C_6  and  C_7
REMARK    4  A    between atoms: C_7  and  C_8
REMARK    5  A    between atoms: C_8  and  C_9
REMARK    6  A    between atoms: C_9  and  N_11
REMARK    7  A    between atoms: C_9  and  C_59
REMARK    8  A    between atoms: C_12  and  C_14
REMARK    9  A    between atoms: C_14  and  C_16
REMARK   10  A    between atoms: C_14  and  N_24
REMARK   11  A    between atoms: C_16  and  C_17
REMARK   12  A    between atoms: C_20  and  O_21
REMARK   13  A    between atoms: C_25  and  C_27
REMARK   14  A    between atoms: C_32  and  C_34
REMARK   15  A    between atoms: C_34  and  C_36
REMARK   16  A    between atoms: C_34  and  N_43
REMARK   17  A    between atoms: C_36  and  C_37
REMARK   18  A    between atoms: C_44  and  C_46
REMARK   19  A    between atoms: C_50  and  C_52
REMARK   20  A    between atoms: C_52  and  N_53
REMARK                            x       y       z     vdW  Elec       q    Type
REMARK                         _______ _______ _______ _____ _____    ______ ____
ROOT
ATOM      1  N   UNL     1       5.379  -0.027  27.181  0.00  0.00    -0.302 N 
ATOM      2  H   UNL     1       5.812  -0.606  27.889  0.00  0.00    +0.150 HD
ATOM      3  C   UNL     1       3.998  -0.033  27.081  0.00  0.00    +0.234 C 
ATOM      4  O   UNL     1       3.436   0.802  26.360  0.00  0.00    -0.274 OA
ENDROOT
BRANCH   3   5
ATOM      5  C   UNL     1       3.199  -1.037  28.010  0.00  0.00    +0.163 C 
ATOM      6  N   UNL     1       3.898  -1.818  29.064  0.00  0.00    -0.288 N 
ATOM      7  C   UNL     1       3.893  -3.198  29.291  0.00  0.00    +0.237 C 
ATOM      8  O   UNL     1       3.731  -3.635  30.435  0.00  0.00    -0.274 OA
ATOM      9  C   UNL     1       3.538  -0.842  30.112  0.00  0.00    +0.111 C 
ATOM     10  C   UNL     1       2.458  -0.324  29.169  0.00  0.00    +0.051 C 
BRANCH   7  11
ATOM     11  C   UNL     1       4.052  -4.185  28.089  0.00  0.00    +0.159 C 
BRANCH  11  12
ATOM     12  N   UNL     1       5.317  -3.922  27.341  0.00  0.00    -0.304 N 
ATOM     13  H   UNL     1       5.264  -3.458  26.441  0.00  0.00    +0.149 HD
ATOM     14  C   UNL     1       6.443  -4.695  27.609  0.00  0.00    +0.217 C 
ATOM     15  O   UNL     1       6.443  -5.514  28.528  0.00  0.00    -0.275 OA
BRANCH  14  16
ATOM     16  C   UNL     1       7.698  -4.516  26.735  0.00  0.00    +0.075 C 
ATOM     17  C   UNL     1       7.651  -5.267  25.395  0.00  0.00    +0.013 C 
ATOM     18  C   UNL     1       8.928  -5.047  24.563  0.00  0.00    +0.007 C 
ATOM     19  C   UNL     1       9.271  -3.561  24.365  0.00  0.00    +0.027 C 
ATOM     20  C   UNL     1       9.358  -2.876  25.739  0.00  0.00    +0.007 C 
ATOM     21  C   UNL     1       8.078  -3.044  26.567  0.00  0.00    +0.013 C 
BRANCH  19  22
ATOM     22  C   UNL     1       8.267  -2.881  23.414  0.00  0.00    +0.247 C 
BRANCH  22  23
ATOM     23  N   UNL     1       7.753  -3.869  22.470  0.00  0.00    -0.114 NA
ATOM     24  C   UNL     1       6.574  -3.700  22.000  0.00  0.00    +0.376 C 
ATOM     25  N   UNL     1       6.068  -4.623  21.145  0.00  0.00    -0.289 N 
ATOM     26  H   UNL     1       5.576  -4.256  20.345  0.00  0.00    +0.255 HD
ATOM     27  H   UNL     1       6.786  -5.286  20.875  0.00  0.00    +0.255 HD
ATOM     28  N   UNL     1       5.693  -2.715  22.235  0.00  0.00    -0.289 N 
ATOM     29  H   UNL     1       4.892  -2.594  21.639  0.00  0.00    +0.255 HD
ATOM     30  H   UNL     1       5.984  -1.905  22.762  0.00  0.00    +0.255 HD
ENDBRANCH  22  23
ENDBRANCH  19  22
ENDBRANCH  14  16
ENDBRANCH  11  12
BRANCH  11  31
ATOM     31  C   UNL     1       2.854  -4.045  27.078  0.00  0.00    +0.035 C 
BRANCH  31  32
ATOM     32  C   UNL     1       2.280  -5.335  26.435  0.00  0.00    -0.009 C 
ATOM     33  C   UNL     1       3.078  -6.614  26.738  0.00  0.00    +0.003 C 
ATOM     34  C   UNL     1       4.311  -6.824  25.857  0.00  0.00    +0.000 C 
ATOM     35  C   UNL     1       3.970  -6.744  24.375  0.00  0.00    +0.000 C 
ATOM     36  C   UNL     1       3.320  -5.406  24.053  0.00  0.00    +0.000 C 
ATOM     37  C   UNL     1       2.069  -5.178  24.905  0.00  0.00    +0.003 C 
ENDBRANCH  31  32
ENDBRANCH  11  31
ENDBRANCH   7  11
ENDBRANCH   3   5
BRANCH   1  38
ATOM     38  C   UNL     1       6.260   0.835  26.348  0.00  0.00    +0.163 C 
BRANCH  38  41
ATOM     39  N   UNL     1       6.491   3.293  26.154  0.00  0.00    -0.302 N 
ATOM     40  H   UNL     1       6.436   3.079  25.160  0.00  0.00    +0.150 HD
ATOM     41  C   UNL     1       6.645   2.212  26.993  0.00  0.00    +0.234 C 
ATOM     42  O   UNL     1       7.144   2.347  28.105  0.00  0.00    -0.274 OA
BRANCH  39  43
ATOM     43  C   UNL     1       6.711   4.693  26.567  0.00  0.00    +0.159 C 
BRANCH  43  44
ATOM     44  C   UNL     1       5.516   5.554  26.084  0.00  0.00    +0.231 C 
ATOM     45  O   UNL     1       4.347   5.175  26.109  0.00  0.00    -0.274 OA
ATOM     46  N   UNL     1       5.776   6.839  25.699  0.00  0.00    -0.328 N 
ATOM     47  H   UNL     1       4.985   7.360  25.347  0.00  0.00    +0.145 HD
ATOM     48  H   UNL     1       6.696   7.119  25.389  0.00  0.00    +0.145 HD
ENDBRANCH  43  44
BRANCH  43  49
ATOM     49  C   UNL     1       8.055   5.234  26.036  0.00  0.00    +0.032 C 
BRANCH  49  50
ATOM     50  C   UNL     1       8.533   4.549  24.740  0.00  0.00    +0.005 C 
BRANCH  50  51
ATOM     51  C   UNL     1       8.573   5.459  23.502  0.00  0.00    +0.041 C 
BRANCH  51  52
ATOM     52  C   UNL     1       7.568   5.020  22.441  0.00  0.00    +0.243 C 
BRANCH  52  57
ATOM     53  N   UNL     1       4.009   5.252  22.895  0.00  0.00    -0.289 N 
ATOM     54  H   UNL     1       4.040   6.254  23.057  0.00  0.00    +0.255 HD
ATOM     55  H   UNL     1       3.300   5.012  22.219  0.00  0.00    +0.255 HD
ATOM     56  C   UNL     1       5.247   4.797  22.610  0.00  0.00    +0.376 C 
ATOM     57  N   UNL     1       6.250   5.586  22.738  0.00  0.00    -0.114 NA
ATOM     58  N   UNL     1       5.224   3.502  22.235  0.00  0.00    -0.289 N 
ATOM     59  H   UNL     1       6.058   3.094  21.841  0.00  0.00    +0.255 HD
ATOM     60  H   UNL     1       4.352   3.082  21.955  0.00  0.00    +0.255 HD
ENDBRANCH  52  57
ENDBRANCH  51  52
ENDBRANCH  50  51
ENDBRANCH  49  50
ENDBRANCH  43  49
ENDBRANCH  39  43
ENDBRANCH  38  41
BRANCH  38  61
ATOM     61  C   UNL     1       7.482   0.051  25.802  0.00  0.00    +0.067 C 
BRANCH  61  62
ATOM     62  C   UNL     1       8.241   0.657  24.638  0.00  0.00    -0.045 A 
ATOM     63  C   UNL     1       9.605   0.963  24.778  0.00  0.00    +0.007 A 
ATOM     64  C   UNL     1      10.335   1.495  23.717  0.00  0.00    +0.045 A 
ATOM     65  C   UNL     1       9.706   1.740  22.507  0.00  0.00    +0.117 A 
ATOM     66  C   UNL     1       8.345   1.492  22.354  0.00  0.00    +0.045 A 
ATOM     67  C   UNL     1       7.612   0.957  23.421  0.00  0.00    +0.007 A 
BRANCH  65  68
ATOM     68  O   UNL     1      10.464   2.233  21.485  0.00  0.00    -0.507 OA
ATOM     69  H   UNL     1      11.328   2.495  21.839  0.00  0.00    +0.292 HD
ENDBRANCH  65  68
ENDBRANCH  61  62
ENDBRANCH  38  61
ENDBRANCH   1  38
TORSDOF 20
ENDMDL
MODEL 9
REMARK VINA RESULT:      -6.3      2.875      9.016
REMARK  Name = 
REMARK  20 active torsions:
REMARK  status: ('A' for Active; 'I' for Inactive)
REMARK    1  A    between atoms: N_4  and  C_5
REMARK    2  A    between atoms: C_5  and  C_6
REMARK    3  A    between atoms: C_6  and  C_7
REMARK    4  A    between atoms: C_7  and  C_8
REMARK    5  A    between atoms: C_8  and  C_9
REMARK    6  A    between atoms: C_9  and  N_11
REMARK    7  A    between atoms: C_9  and  C_59
REMARK    8  A    between atoms: C_12  and  C_14
REMARK    9  A    between atoms: C_14  and  C_16
REMARK   10  A    between atoms: C_14  and  N_24
REMARK   11  A    between atoms: C_16  and  C_17
REMARK   12  A    between atoms: C_20  and  O_21
REMARK   13  A    between atoms: C_25  and  C_27
REMARK   14  A    between atoms: C_32  and  C_34
REMARK   15  A    between atoms: C_34  and  C_36
REMARK   16  A    between atoms: C_34  and  N_43
REMARK   17  A    between atoms: C_36  and  C_37
REMARK   18  A    between atoms: C_44  and  C_46
REMARK   19  A    between atoms: C_50  and  C_52
REMARK   20  A    between atoms: C_52  and  N_53
REMARK                            x       y       z     vdW  Elec       q    Type
REMARK                         _______ _______ _______ _____ _____    ______ ____
ROOT
ATOM      1  N   UNL     1       3.064  -2.475  26.729  0.00  0.00    -0.302 N 
ATOM      2  H   UNL     1       4.037  -2.735  26.640  0.00  0.00    +0.150 HD
ATOM      3  C   UNL     1       2.757  -1.146  26.969  0.00  0.00    +0.234 C 
ATOM      4  O   UNL     1       1.580  -0.769  26.892  0.00  0.00    -0.274 OA
ENDROOT
BRANCH   3   5
ATOM      5  C   UNL     1       3.963  -0.144  27.199  0.00  0.00    +0.163 C 
ATOM      6  N   UNL     1       3.717   1.308  27.397  0.00  0.00    -0.288 N 
ATOM      7  C   UNL     1       4.268   2.399  26.716  0.00  0.00    +0.237 C 
ATOM      8  O   UNL     1       4.692   3.371  27.349  0.00  0.00    -0.274 OA
ATOM      9  C   UNL     1       3.777   1.180  28.867  0.00  0.00    +0.111 C 
ATOM     10  C   UNL     1       4.484  -0.154  28.658  0.00  0.00    +0.051 C 
BRANCH   7  11
ATOM     11  C   UNL     1       4.383   2.366  25.158  0.00  0.00    +0.159 C 
BRANCH  11  12
ATOM     12  N   UNL     1       5.804   2.212  24.727  0.00  0.00    -0.304 N 
ATOM     13  H   UNL     1       6.301   3.028  24.386  0.00  0.00    +0.149 HD
ATOM     14  C   UNL     1       6.270   0.958  24.342  0.00  0.00    +0.217 C 
ATOM     15  O   UNL     1       5.563  -0.042  24.459  0.00  0.00    -0.275 OA
BRANCH  14  16
ATOM     16  C   UNL     1       7.691   0.834  23.762  0.00  0.00    +0.075 C 
ATOM     17  C   UNL     1       7.947   1.699  22.518  0.00  0.00    +0.013 C 
ATOM     18  C   UNL     1       9.384   1.539  21.987  0.00  0.00    +0.007 C 
ATOM     19  C   UNL     1      10.456   1.770  23.065  0.00  0.00    +0.027 C 
ATOM     20  C   UNL     1      10.179   0.841  24.259  0.00  0.00    +0.007 C 
ATOM     21  C   UNL     1       8.769   1.017  24.833  0.00  0.00    +0.013 C 
BRANCH  19  22
ATOM     22  C   UNL     1      10.531   3.258  23.462  0.00  0.00    +0.247 C 
BRANCH  22  23
ATOM     23  N   UNL     1      11.917   3.708  23.379  0.00  0.00    -0.114 NA
ATOM     24  C   UNL     1      12.137   4.961  23.228  0.00  0.00    +0.376 C 
ATOM     25  N   UNL     1      13.417   5.396  23.119  0.00  0.00    -0.289 N 
ATOM     26  H   UNL     1      13.641   6.231  23.637  0.00  0.00    +0.255 HD
ATOM     27  H   UNL     1      14.065   4.642  23.320  0.00  0.00    +0.255 HD
ATOM     28  N   UNL     1      11.265   5.978  23.139  0.00  0.00    -0.289 N 
ATOM     29  H   UNL     1      11.578   6.929  23.236  0.00  0.00    +0.255 HD
ATOM     30  H   UNL     1      10.286   5.809  23.318  0.00  0.00    +0.255 HD
ENDBRANCH  22  23
ENDBRANCH  19  22
ENDBRANCH  14  16
ENDBRANCH  11  12
BRANCH  11  31
ATOM     31  C   UNL     1       3.825   3.690  24.519  0.00  0.00    +0.035 C 
BRANCH  31  32
ATOM     32  C   UNL     1       3.035   3.588  23.187  0.00  0.00    -0.009 C 
ATOM     33  C   UNL     1       3.174   4.808  22.262  0.00  0.00    +0.003 C 
ATOM     34  C   UNL     1       2.263   5.985  22.614  0.00  0.00    +0.000 C 
ATOM     35  C   UNL     1       0.804   5.562  22.726  0.00  0.00    +0.000 C 
ATOM     36  C   UNL     1       0.652   4.456  23.761  0.00  0.00    +0.000 C 
ATOM     37  C   UNL     1       1.537   3.254  23.422  0.00  0.00    +0.003 C 
ENDBRANCH  31  32
ENDBRANCH  11  31
ENDBRANCH   7  11
ENDBRANCH   3   5
BRANCH   1  38
ATOM     38  C   UNL     1       2.037  -3.533  26.533  0.00  0.00    +0.163 C 
BRANCH  38  41
ATOM     39  N   UNL     1       3.363  -4.303  24.588  0.00  0.00    -0.302 N 
ATOM     40  H   UNL     1       4.024  -3.617  24.945  0.00  0.00    +0.150 HD
ATOM     41  C   UNL     1       2.107  -4.278  25.153  0.00  0.00    +0.234 C 
ATOM     42  O   UNL     1       1.136  -4.720  24.548  0.00  0.00    -0.274 OA
BRANCH  39  43
ATOM     43  C   UNL     1       3.686  -5.018  23.336  0.00  0.00    +0.159 C 
BRANCH  43  44
ATOM     44  C   UNL     1       3.846  -6.528  23.647  0.00  0.00    +0.231 C 
ATOM     45  O   UNL     1       4.862  -7.023  24.130  0.00  0.00    -0.274 OA
ATOM     46  N   UNL     1       2.756  -7.331  23.458  0.00  0.00    -0.328 N 
ATOM     47  H   UNL     1       2.904  -8.316  23.625  0.00  0.00    +0.145 HD
ATOM     48  H   UNL     1       2.014  -7.070  22.823  0.00  0.00    +0.145 HD
ENDBRANCH  43  44
BRANCH  43  49
ATOM     49  C   UNL     1       4.949  -4.437  22.665  0.00  0.00    +0.032 C 
BRANCH  49  50
ATOM     50  C   UNL     1       5.563  -3.243  23.422  0.00  0.00    +0.005 C 
BRANCH  50  51
ATOM     51  C   UNL     1       7.099  -3.214  23.449  0.00  0.00    +0.041 C 
BRANCH  51  52
ATOM     52  C   UNL     1       7.690  -4.585  23.763  0.00  0.00    +0.243 C 
BRANCH  52  57
ATOM     53  N   UNL     1       8.261  -5.749  27.117  0.00  0.00    -0.289 N 
ATOM     54  H   UNL     1       7.285  -5.645  27.378  0.00  0.00    +0.255 HD
ATOM     55  H   UNL     1       8.617  -6.653  27.387  0.00  0.00    +0.255 HD
ATOM     56  C   UNL     1       8.421  -5.438  25.814  0.00  0.00    +0.376 C 
ATOM     57  N   UNL     1       7.439  -4.926  25.165  0.00  0.00    -0.114 NA
ATOM     58  N   UNL     1       9.670  -5.714  25.389  0.00  0.00    -0.289 N 
ATOM     59  H   UNL     1       9.868  -5.681  24.400  0.00  0.00    +0.255 HD
ATOM     60  H   UNL     1      10.257  -6.325  25.936  0.00  0.00    +0.255 HD
ENDBRANCH  52  57
ENDBRANCH  51  52
ENDBRANCH  50  51
ENDBRANCH  49  50
ENDBRANCH  43  49
ENDBRANCH  39  43
ENDBRANCH  38  41
BRANCH  38  61
ATOM     61  C   UNL     1       1.961  -4.495  27.746  0.00  0.00    +0.067 C 
BRANCH  61  62
ATOM     62  C   UNL     1       3.228  -5.231  28.138  0.00  0.00    -0.045 A 
ATOM     63  C   UNL     1       3.990  -4.777  29.226  0.00  0.00    +0.007 A 
ATOM     64  C   UNL     1       5.144  -5.449  29.627  0.00  0.00    +0.045 A 
ATOM     65  C   UNL     1       5.555  -6.576  28.933  0.00  0.00    +0.117 A 
ATOM     66  C   UNL     1       4.846  -7.021  27.822  0.00  0.00    +0.045 A 
ATOM     67  C   UNL     1       3.688  -6.344  27.420  0.00  0.00    +0.007 A 
BRANCH  65  68
ATOM     68  O   UNL     1       6.673  -7.222  29.377  0.00  0.00    -0.507 OA
ATOM     69  H   UNL     1       6.407  -7.884  30.035  0.00  0.00    +0.292 HD
ENDBRANCH  65  68
ENDBRANCH  61  62
ENDBRANCH  38  61
ENDBRANCH   1  38
TORSDOF 20
ENDMDL
