MODEL 1
REMARK VINA RESULT:      -7.4      0.000      0.000
REMARK  Name = 
REMARK  5 active torsions:
REMARK  status: ('A' for Active; 'I' for Inactive)
REMARK    1  A    between atoms: O_1  and  C_2
REMARK    2  A    between atoms: C_2  and  C_3
REMARK    3  A    between atoms: C_3  and  N_4
REMARK    4  A    between atoms: C_11  and  C_20
REMARK    5  A    between atoms: C_12  and  C_14
REMARK                            x       y       z     vdW  Elec       q    Type
REMARK                         _______ _______ _______ _____ _____    ______ ____
ROOT
ATOM      1  N   UNL     1       4.272  -7.001  25.369  0.00  0.00    -0.326 N 
ATOM      2  H   UNL     1       4.208  -6.422  24.549  0.00  0.00    +0.148 HD
ATOM      3  C   UNL     1       5.162  -6.517  26.329  0.00  0.00    +0.132 A 
ATOM      4  C   UNL     1       6.145  -5.502  26.145  0.00  0.00    +0.067 A 
ATOM      5  C   UNL     1       6.718  -4.661  25.082  0.00  0.00    +0.020 A 
ATOM      6  C   UNL     1       7.669  -3.814  25.692  0.00  0.00    +0.057 A 
ATOM      7  N   UNL     1       7.685  -4.143  27.025  0.00  0.00    -0.338 N 
ATOM      8  H   UNL     1       8.269  -3.714  27.724  0.00  0.00    +0.167 HD
ATOM      9  C   UNL     1       6.834  -5.160  27.305  0.00  0.00    +0.144 A 
ATOM     10  N   UNL     1       6.713  -5.659  28.542  0.00  0.00    -0.218 NA
ATOM     11  C   UNL     1       5.809  -6.632  28.582  0.00  0.00    +0.225 A 
ATOM     12  N   UNL     1       5.050  -7.069  27.571  0.00  0.00    -0.220 NA
ENDROOT
BRANCH   5  13
ATOM     13  C   UNL     1       6.479  -4.658  23.621  0.00  0.00    -0.015 A 
ATOM     14  C   UNL     1       6.863  -5.747  22.812  0.00  0.00    +0.008 A 
ATOM     15  C   UNL     1       6.755  -5.703  21.415  0.00  0.00    +0.001 A 
ATOM     16  C   UNL     1       6.156  -4.610  20.802  0.00  0.00    +0.000 A 
ATOM     17  C   UNL     1       5.722  -3.544  21.583  0.00  0.00    +0.001 A 
ATOM     18  C   UNL     1       5.934  -3.546  22.970  0.00  0.00    +0.008 A 
ENDBRANCH   5  13
BRANCH   6  19
ATOM     19  C   UNL     1       8.592  -2.770  25.198  0.00  0.00    -0.001 A 
ATOM     20  C   UNL     1       9.426  -3.025  24.094  0.00  0.00    +0.010 A 
ATOM     21  C   UNL     1      10.207  -2.012  23.531  0.00  0.00    +0.001 A 
ATOM     22  C   UNL     1      10.156  -0.724  24.057  0.00  0.00    +0.000 A 
ATOM     23  C   UNL     1       9.376  -0.467  25.182  0.00  0.00    +0.001 A 
ATOM     24  C   UNL     1       8.628  -1.492  25.767  0.00  0.00    +0.010 A 
ENDBRANCH   6  19
BRANCH   1  25
ATOM     25  C   UNL     1       2.955  -7.417  25.877  0.00  0.00    +0.130 C 
BRANCH  25  26
ATOM     26  C   UNL     1       2.192  -8.347  24.916  0.00  0.00    +0.174 C 
BRANCH  26  27
ATOM     27  O   UNL     1       2.324  -9.712  25.317  0.00  0.00    -0.393 OA
ATOM     28  H   UNL     1       2.892 -10.137  24.649  0.00  0.00    +0.209 HD
ENDBRANCH  26  27
ENDBRANCH  25  26
ENDBRANCH   1  25
TORSDOF 5
ENDMDL
MODEL 2
REMARK VINA RESULT:      -6.9      6.837     10.108
REMARK  Name = 
REMARK  5 active torsions:
REMARK  status: ('A' for Active; 'I' for Inactive)
REMARK    1  A    between atoms: O_1  and  C_2
REMARK    2  A    between atoms: C_2  and  C_3
REMARK    3  A    between atoms: C_3  and  N_4
REMARK    4  A    between atoms: C_11  and  C_20
REMARK    5  A    between atoms: C_12  and  C_14
REMARK                            x       y       z     vdW  Elec       q    Type
REMARK                         _______ _______ _______ _____ _____    ______ ____
ROOT
ATOM      1  N   UNL     1      10.887   4.789  23.386  0.00  0.00    -0.326 N 
ATOM      2  H   UNL     1      11.124   3.818  23.277  0.00  0.00    +0.148 HD
ATOM      3  C   UNL     1       9.825   5.012  24.263  0.00  0.00    +0.132 A 
ATOM      4  C   UNL     1       8.912   4.038  24.760  0.00  0.00    +0.067 A 
ATOM      5  C   UNL     1       8.578   2.614  24.599  0.00  0.00    +0.020 A 
ATOM      6  C   UNL     1       7.531   2.329  25.504  0.00  0.00    +0.057 A 
ATOM      7  N   UNL     1       7.239   3.509  26.145  0.00  0.00    -0.338 N 
ATOM      8  H   UNL     1       6.529   3.630  26.848  0.00  0.00    +0.167 HD
ATOM      9  C   UNL     1       8.003   4.532  25.692  0.00  0.00    +0.144 A 
ATOM     10  N   UNL     1       7.863   5.779  26.161  0.00  0.00    -0.218 NA
ATOM     11  C   UNL     1       8.729   6.609  25.589  0.00  0.00    +0.225 A 
ATOM     12  N   UNL     1       9.674   6.296  24.695  0.00  0.00    -0.220 NA
ENDROOT
BRANCH   5  13
ATOM     13  C   UNL     1       9.110   1.598  23.664  0.00  0.00    -0.015 A 
ATOM     14  C   UNL     1       8.781   1.618  22.293  0.00  0.00    +0.008 A 
ATOM     15  C   UNL     1       9.177   0.593  21.423  0.00  0.00    +0.001 A 
ATOM     16  C   UNL     1      10.009  -0.420  21.882  0.00  0.00    +0.000 A 
ATOM     17  C   UNL     1      10.391  -0.435  23.220  0.00  0.00    +0.001 A 
ATOM     18  C   UNL     1       9.900   0.533  24.110  0.00  0.00    +0.008 A 
ENDBRANCH   5  13
BRANCH   6  19
ATOM     19  C   UNL     1       6.740   1.122  25.825  0.00  0.00    -0.001 A 
ATOM     20  C   UNL     1       6.195   0.336  24.793  0.00  0.00    +0.010 A 
ATOM     21  C   UNL     1       5.559  -0.877  25.070  0.00  0.00    +0.001 A 
ATOM     22  C   UNL     1       5.469  -1.329  26.384  0.00  0.00    +0.000 A 
ATOM     23  C   UNL     1       5.956  -0.538  27.421  0.00  0.00    +0.001 A 
ATOM     24  C   UNL     1       6.556   0.694  27.145  0.00  0.00    +0.010 A 
ENDBRANCH   6  19
BRANCH   1  25
ATOM     25  C   UNL     1      12.068   5.644  23.589  0.00  0.00    +0.130 C 
BRANCH  25  26
ATOM     26  C   UNL     1      13.152   5.460  22.511  0.00  0.00    +0.174 C 
BRANCH  26  27
ATOM     27  O   UNL     1      14.391   5.058  23.099  0.00  0.00    -0.393 OA
ATOM     28  H   UNL     1      14.572   5.696  23.812  0.00  0.00    +0.209 HD
ENDBRANCH  26  27
ENDBRANCH  25  26
ENDBRANCH   1  25
TORSDOF 5
ENDMDL
MODEL 3
REMARK VINA RESULT:      -6.9      2.860      4.587
REMARK  Name = 
REMARK  5 active torsions:
REMARK  status: ('A' for Active; 'I' for Inactive)
REMARK    1  A    between atoms: O_1  and  C_2
REMARK    2  A    between atoms: C_2  and  C_3
REMARK    3  A    between atoms: C_3  and  N_4
REMARK    4  A    between atoms: C_11  and  C_20
REMARK    5  A    between atoms: C_12  and  C_14
REMARK                            x       y       z     vdW  Elec       q    Type
REMARK                         _______ _______ _______ _____ _____    ______ ____
ROOT
ATOM      1  N   UNL     1       6.397  -4.220  27.080  0.00  0.00    -0.326 N 
ATOM      2  H   UNL     1       6.256  -3.270  27.378  0.00  0.00    +0.148 HD
ATOM      3  C   UNL     1       7.465  -4.379  26.195  0.00  0.00    +0.132 A 
ATOM      4  C   UNL     1       8.146  -3.345  25.489  0.00  0.00    +0.067 A 
ATOM      5  C   UNL     1       8.073  -1.893  25.261  0.00  0.00    +0.020 A 
ATOM      6  C   UNL     1       9.171  -1.547  24.442  0.00  0.00    +0.057 A 
ATOM      7  N   UNL     1       9.841  -2.717  24.176  0.00  0.00    -0.338 N 
ATOM      8  H   UNL     1      10.669  -2.798  23.610  0.00  0.00    +0.167 HD
ATOM      9  C   UNL     1       9.233  -3.788  24.741  0.00  0.00    +0.144 A 
ATOM     10  N   UNL     1       9.703  -5.031  24.583  0.00  0.00    -0.218 NA
ATOM     11  C   UNL     1       8.961  -5.915  25.241  0.00  0.00    +0.225 A 
ATOM     12  N   UNL     1       7.901  -5.658  26.017  0.00  0.00    -0.220 NA
ENDROOT
BRANCH   5  13
ATOM     13  C   UNL     1       7.064  -0.899  25.689  0.00  0.00    -0.015 A 
ATOM     14  C   UNL     1       6.177  -0.309  24.765  0.00  0.00    +0.008 A 
ATOM     15  C   UNL     1       5.303   0.723  25.136  0.00  0.00    +0.001 A 
ATOM     16  C   UNL     1       5.217   1.111  26.467  0.00  0.00    +0.000 A 
ATOM     17  C   UNL     1       6.046   0.508  27.408  0.00  0.00    +0.001 A 
ATOM     18  C   UNL     1       6.996  -0.445  27.011  0.00  0.00    +0.008 A 
ENDBRANCH   5  13
BRANCH   6  19
ATOM     19  C   UNL     1       9.658  -0.287  23.842  0.00  0.00    -0.001 A 
ATOM     20  C   UNL     1       9.509  -0.055  22.462  0.00  0.00    +0.010 A 
ATOM     21  C   UNL     1       9.841   1.180  21.899  0.00  0.00    +0.001 A 
ATOM     22  C   UNL     1      10.316   2.207  22.711  0.00  0.00    +0.000 A 
ATOM     23  C   UNL     1      10.519   1.976  24.069  0.00  0.00    +0.001 A 
ATOM     24  C   UNL     1      10.224   0.727  24.622  0.00  0.00    +0.010 A 
ENDBRANCH   6  19
BRANCH   1  25
ATOM     25  C   UNL     1       6.351  -5.180  28.196  0.00  0.00    +0.130 C 
BRANCH  25  26
ATOM     26  C   UNL     1       5.140  -6.130  28.139  0.00  0.00    +0.174 C 
BRANCH  26  27
ATOM     27  O   UNL     1       5.535  -7.475  28.416  0.00  0.00    -0.393 OA
ATOM     28  H   UNL     1       6.275  -7.670  27.813  0.00  0.00    +0.209 HD
ENDBRANCH  26  27
ENDBRANCH  25  26
ENDBRANCH   1  25
TORSDOF 5
ENDMDL
MODEL 4
REMARK VINA RESULT:      -6.7      2.884      4.993
REMARK  Name = 
REMARK  5 active torsions:
REMARK  status: ('A' for Active; 'I' for Inactive)
REMARK    1  A    between atoms: O_1  and  C_2
REMARK    2  A    between atoms: C_2  and  C_3
REMARK    3  A    between atoms: C_3  and  N_4
REMARK    4  A    between atoms: C_11  and  C_20
REMARK    5  A    between atoms: C_12  and  C_14
REMARK                            x       y       z     vdW  Elec       q    Type
REMARK                         _______ _______ _______ _____ _____    ______ ____
ROOT
ATOM      1  N   UNL     1       5.605  -4.386  25.942  0.00  0.00    -0.326 N 
ATOM      2  H   UNL     1       5.936  -3.667  26.563  0.00  0.00    +0.148 HD
ATOM      3  C   UNL     1       6.226  -4.377  24.692  0.00  0.00    +0.132 A 
ATOM      4  C   UNL     1       7.023  -3.331  24.144  0.00  0.00    +0.067 A 
ATOM      5  C   UNL     1       7.458  -1.960  24.453  0.00  0.00    +0.020 A 
ATOM      6  C   UNL     1       8.321  -1.555  23.411  0.00  0.00    +0.057 A 
ATOM      7  N   UNL     1       8.377  -2.602  22.523  0.00  0.00    -0.338 N 
ATOM      8  H   UNL     1       8.910  -2.613  21.669  0.00  0.00    +0.167 HD
ATOM      9  C   UNL     1       7.589  -3.634  22.908  0.00  0.00    +0.144 A 
ATOM     10  N   UNL     1       7.472  -4.747  22.173  0.00  0.00    -0.218 NA
ATOM     11  C   UNL     1       6.666  -5.628  22.755  0.00  0.00    +0.225 A 
ATOM     12  N   UNL     1       6.060  -5.503  23.941  0.00  0.00    -0.220 NA
ENDROOT
BRANCH   5  13
ATOM     13  C   UNL     1       7.084  -1.057  25.564  0.00  0.00    -0.015 A 
ATOM     14  C   UNL     1       5.885  -0.315  25.535  0.00  0.00    +0.008 A 
ATOM     15  C   UNL     1       5.580   0.636  26.519  0.00  0.00    +0.001 A 
ATOM     16  C   UNL     1       6.416   0.785  27.618  0.00  0.00    +0.000 A 
ATOM     17  C   UNL     1       7.581   0.027  27.697  0.00  0.00    +0.001 A 
ATOM     18  C   UNL     1       7.935  -0.841  26.653  0.00  0.00    +0.008 A 
ENDBRANCH   5  13
BRANCH   6  19
ATOM     19  C   UNL     1       9.067  -0.315  23.108  0.00  0.00    -0.001 A 
ATOM     20  C   UNL     1       8.745   0.447  21.969  0.00  0.00    +0.010 A 
ATOM     21  C   UNL     1       9.345   1.687  21.737  0.00  0.00    +0.001 A 
ATOM     22  C   UNL     1      10.270   2.191  22.649  0.00  0.00    +0.000 A 
ATOM     23  C   UNL     1      10.639   1.426  23.752  0.00  0.00    +0.001 A 
ATOM     24  C   UNL     1      10.066   0.168  23.960  0.00  0.00    +0.010 A 
ENDBRANCH   6  19
BRANCH   1  25
ATOM     25  C   UNL     1       5.509  -5.703  26.594  0.00  0.00    +0.130 C 
BRANCH  25  26
ATOM     26  C   UNL     1       6.235  -5.770  27.950  0.00  0.00    +0.174 C 
BRANCH  26  27
ATOM     27  O   UNL     1       7.630  -6.024  27.768  0.00  0.00    -0.393 OA
ATOM     28  H   UNL     1       8.019  -6.052  28.661  0.00  0.00    +0.209 HD
ENDBRANCH  26  27
ENDBRANCH  25  26
ENDBRANCH   1  25
TORSDOF 5
ENDMDL
MODEL 5
REMARK VINA RESULT:      -6.5      4.665      6.819
REMARK  Name = 
REMARK  5 active torsions:
REMARK  status: ('A' for Active; 'I' for Inactive)
REMARK    1  A    between atoms: O_1  and  C_2
REMARK    2  A    between atoms: C_2  and  C_3
REMARK    3  A    between atoms: C_3  and  N_4
REMARK    4  A    between atoms: C_11  and  C_20
REMARK    5  A    between atoms: C_12  and  C_14
REMARK                            x       y       z     vdW  Elec       q    Type
REMARK                         _______ _______ _______ _____ _____    ______ ____
ROOT
ATOM      1  N   UNL     1       6.060  -1.575  23.340  0.00  0.00    -0.326 N 
ATOM      2  H   UNL     1       5.569  -0.740  23.609  0.00  0.00    +0.148 HD
ATOM      3  C   UNL     1       7.448  -1.466  23.435  0.00  0.00    +0.132 A 
ATOM      4  C   UNL     1       8.199  -0.265  23.587  0.00  0.00    +0.067 A 
ATOM      5  C   UNL     1       8.006   1.194  23.619  0.00  0.00    +0.020 A 
ATOM      6  C   UNL     1       9.271   1.773  23.867  0.00  0.00    +0.057 A 
ATOM      7  N   UNL     1      10.165   0.734  23.950  0.00  0.00    -0.338 N 
ATOM      8  H   UNL     1      11.154   0.828  24.116  0.00  0.00    +0.167 HD
ATOM      9  C   UNL     1       9.568  -0.465  23.744  0.00  0.00    +0.144 A 
ATOM     10  N   UNL     1      10.261  -1.610  23.753  0.00  0.00    -0.218 NA
ATOM     11  C   UNL     1       9.468  -2.656  23.550  0.00  0.00    +0.225 A 
ATOM     12  N   UNL     1       8.138  -2.641  23.400  0.00  0.00    -0.220 NA
ENDROOT
BRANCH   5  13
ATOM     13  C   UNL     1       6.796   2.013  23.385  0.00  0.00    -0.015 A 
ATOM     14  C   UNL     1       6.679   2.843  22.251  0.00  0.00    +0.008 A 
ATOM     15  C   UNL     1       5.594   3.715  22.082  0.00  0.00    +0.001 A 
ATOM     16  C   UNL     1       4.543   3.693  22.989  0.00  0.00    +0.000 A 
ATOM     17  C   UNL     1       4.610   2.845  24.090  0.00  0.00    +0.001 A 
ATOM     18  C   UNL     1       5.749   2.057  24.312  0.00  0.00    +0.008 A 
ENDBRANCH   5  13
BRANCH   6  19
ATOM     19  C   UNL     1       9.766   3.160  23.996  0.00  0.00    -0.001 A 
ATOM     20  C   UNL     1      11.004   3.526  23.436  0.00  0.00    +0.010 A 
ATOM     21  C   UNL     1      11.428   4.858  23.431  0.00  0.00    +0.001 A 
ATOM     22  C   UNL     1      10.613   5.847  23.977  0.00  0.00    +0.000 A 
ATOM     23  C   UNL     1       9.410   5.494  24.582  0.00  0.00    +0.001 A 
ATOM     24  C   UNL     1       9.007   4.156  24.621  0.00  0.00    +0.010 A 
ENDBRANCH   6  19
BRANCH   1  25
ATOM     25  C   UNL     1       5.478  -2.793  23.927  0.00  0.00    +0.130 C 
BRANCH  25  26
ATOM     26  C   UNL     1       4.918  -3.773  22.880  0.00  0.00    +0.174 C 
BRANCH  26  27
ATOM     27  O   UNL     1       5.468  -3.505  21.588  0.00  0.00    -0.393 OA
ATOM     28  H   UNL     1       6.435  -3.581  21.684  0.00  0.00    +0.209 HD
ENDBRANCH  26  27
ENDBRANCH  25  26
ENDBRANCH   1  25
TORSDOF 5
ENDMDL
MODEL 6
REMARK VINA RESULT:      -6.3      3.672      6.659
REMARK  Name = 
REMARK  5 active torsions:
REMARK  status: ('A' for Active; 'I' for Inactive)
REMARK    1  A    between atoms: O_1  and  C_2
REMARK    2  A    between atoms: C_2  and  C_3
REMARK    3  A    between atoms: C_3  and  N_4
REMARK    4  A    between atoms: C_11  and  C_20
REMARK    5  A    between atoms: C_12  and  C_14
REMARK                            x       y       z     vdW  Elec       q    Type
REMARK                         _______ _______ _______ _____ _____    ______ ____
ROOT
ATOM      1  N   UNL     1       8.413  -0.807  22.741  0.00  0.00    -0.326 N 
ATOM      2  H   UNL     1       8.495  -1.753  22.411  0.00  0.00    +0.148 HD
ATOM      3  C   UNL     1       8.029  -0.708  24.079  0.00  0.00    +0.132 A 
ATOM      4  C   UNL     1       7.489  -1.750  24.888  0.00  0.00    +0.067 A 
ATOM      5  C   UNL     1       7.041  -3.148  24.783  0.00  0.00    +0.020 A 
ATOM      6  C   UNL     1       6.656  -3.557  26.079  0.00  0.00    +0.057 A 
ATOM      7  N   UNL     1       6.835  -2.469  26.900  0.00  0.00    -0.338 N 
ATOM      8  H   UNL     1       6.641  -2.447  27.887  0.00  0.00    +0.167 HD
ATOM      9  C   UNL     1       7.278  -1.387  26.216  0.00  0.00    +0.144 A 
ATOM     10  N   UNL     1       7.492  -0.211  26.818  0.00  0.00    -0.218 NA
ATOM     11  C   UNL     1       7.943   0.696  25.957  0.00  0.00    +0.225 A 
ATOM     12  N   UNL     1       8.216   0.510  24.661  0.00  0.00    -0.220 NA
ENDROOT
BRANCH   5  13
ATOM     13  C   UNL     1       6.909  -4.032  23.604  0.00  0.00    -0.015 A 
ATOM     14  C   UNL     1       5.917  -3.809  22.627  0.00  0.00    +0.008 A 
ATOM     15  C   UNL     1       5.702  -4.709  21.574  0.00  0.00    +0.001 A 
ATOM     16  C   UNL     1       6.550  -5.797  21.410  0.00  0.00    +0.000 A 
ATOM     17  C   UNL     1       7.569  -6.011  22.333  0.00  0.00    +0.001 A 
ATOM     18  C   UNL     1       7.709  -5.169  23.446  0.00  0.00    +0.008 A 
ENDBRANCH   5  13
BRANCH   6  19
ATOM     19  C   UNL     1       6.107  -4.805  26.649  0.00  0.00    -0.001 A 
ATOM     20  C   UNL     1       6.616  -5.318  27.856  0.00  0.00    +0.010 A 
ATOM     21  C   UNL     1       6.024  -6.420  28.479  0.00  0.00    +0.001 A 
ATOM     22  C   UNL     1       4.904  -7.020  27.908  0.00  0.00    +0.000 A 
ATOM     23  C   UNL     1       4.420  -6.558  26.687  0.00  0.00    +0.001 A 
ATOM     24  C   UNL     1       5.039  -5.481  26.047  0.00  0.00    +0.010 A 
ENDBRANCH   6  19
BRANCH   1  25
ATOM     25  C   UNL     1       9.556   0.034  22.346  0.00  0.00    +0.130 C 
BRANCH  25  26
ATOM     26  C   UNL     1       9.157   1.247  21.486  0.00  0.00    +0.174 C 
BRANCH  26  27
ATOM     27  O   UNL     1      10.192   2.233  21.486  0.00  0.00    -0.393 OA
ATOM     28  H   UNL     1      11.017   1.760  21.273  0.00  0.00    +0.209 HD
ENDBRANCH  26  27
ENDBRANCH  25  26
ENDBRANCH   1  25
TORSDOF 5
ENDMDL
MODEL 7
REMARK VINA RESULT:      -6.2      6.553      9.913
REMARK  Name = 
REMARK  5 active torsions:
REMARK  status: ('A' for Active; 'I' for Inactive)
REMARK    1  A    between atoms: O_1  and  C_2
REMARK    2  A    between atoms: C_2  and  C_3
REMARK    3  A    between atoms: C_3  and  N_4
REMARK    4  A    between atoms: C_11  and  C_20
REMARK    5  A    between atoms: C_12  and  C_14
REMARK                            x       y       z     vdW  Elec       q    Type
REMARK                         _______ _______ _______ _____ _____    ______ ____
ROOT
ATOM      1  N   UNL     1       8.180   5.884  24.101  0.00  0.00    -0.326 N 
ATOM      2  H   UNL     1       7.373   5.285  24.112  0.00  0.00    +0.148 HD
ATOM      3  C   UNL     1       9.384   5.202  23.914  0.00  0.00    +0.132 A 
ATOM      4  C   UNL     1       9.592   3.797  24.026  0.00  0.00    +0.067 A 
ATOM      5  C   UNL     1       8.870   2.573  24.408  0.00  0.00    +0.020 A 
ATOM      6  C   UNL     1       9.758   1.491  24.213  0.00  0.00    +0.057 A 
ATOM      7  N   UNL     1      10.941   2.034  23.772  0.00  0.00    -0.338 N 
ATOM      8  H   UNL     1      11.773   1.513  23.550  0.00  0.00    +0.167 HD
ATOM      9  C   UNL     1      10.882   3.385  23.699  0.00  0.00    +0.144 A 
ATOM     10  N   UNL     1      11.935   4.119  23.318  0.00  0.00    -0.218 NA
ATOM     11  C   UNL     1      11.639   5.414  23.301  0.00  0.00    +0.225 A 
ATOM     12  N   UNL     1      10.453   5.973  23.568  0.00  0.00    -0.220 NA
ENDROOT
BRANCH   5  13
ATOM     13  C   UNL     1       7.511   2.388  24.963  0.00  0.00    -0.015 A 
ATOM     14  C   UNL     1       7.211   2.730  26.297  0.00  0.00    +0.008 A 
ATOM     15  C   UNL     1       5.963   2.444  26.870  0.00  0.00    +0.001 A 
ATOM     16  C   UNL     1       4.948   1.912  26.085  0.00  0.00    +0.000 A 
ATOM     17  C   UNL     1       5.204   1.613  24.751  0.00  0.00    +0.001 A 
ATOM     18  C   UNL     1       6.487   1.798  24.214  0.00  0.00    +0.008 A 
ENDBRANCH   5  13
BRANCH   6  19
ATOM     19  C   UNL     1       9.671   0.030  24.421  0.00  0.00    -0.001 A 
ATOM     20  C   UNL     1       9.103  -0.486  25.600  0.00  0.00    +0.010 A 
ATOM     21  C   UNL     1       8.889  -1.858  25.757  0.00  0.00    +0.001 A 
ATOM     22  C   UNL     1       9.231  -2.735  24.730  0.00  0.00    +0.000 A 
ATOM     23  C   UNL     1       9.843  -2.245  23.579  0.00  0.00    +0.001 A 
ATOM     24  C   UNL     1      10.092  -0.877  23.442  0.00  0.00    +0.010 A 
ENDBRANCH   6  19
BRANCH   1  25
ATOM     25  C   UNL     1       7.991   7.078  23.259  0.00  0.00    +0.130 C 
BRANCH  25  26
ATOM     26  C   UNL     1       7.069   6.836  22.050  0.00  0.00    +0.174 C 
BRANCH  26  27
ATOM     27  O   UNL     1       6.815   5.441  21.875  0.00  0.00    -0.393 OA
ATOM     28  H   UNL     1       5.882   5.367  21.605  0.00  0.00    +0.209 HD
ENDBRANCH  26  27
ENDBRANCH  25  26
ENDBRANCH   1  25
TORSDOF 5
ENDMDL
MODEL 8
REMARK VINA RESULT:      -6.2      4.871      7.746
REMARK  Name = 
REMARK  5 active torsions:
REMARK  status: ('A' for Active; 'I' for Inactive)
REMARK    1  A    between atoms: O_1  and  C_2
REMARK    2  A    between atoms: C_2  and  C_3
REMARK    3  A    between atoms: C_3  and  N_4
REMARK    4  A    between atoms: C_11  and  C_20
REMARK    5  A    between atoms: C_12  and  C_14
REMARK                            x       y       z     vdW  Elec       q    Type
REMARK                         _______ _______ _______ _____ _____    ______ ____
ROOT
ATOM      1  N   UNL     1       8.197   1.689  25.343  0.00  0.00    -0.326 N 
ATOM      2  H   UNL     1       7.363   1.223  25.656  0.00  0.00    +0.148 HD
ATOM      3  C   UNL     1       8.759   1.126  24.197  0.00  0.00    +0.132 A 
ATOM      4  C   UNL     1       8.448  -0.145  23.633  0.00  0.00    +0.067 A 
ATOM      5  C   UNL     1       7.639  -1.341  23.915  0.00  0.00    +0.020 A 
ATOM      6  C   UNL     1       7.806  -2.222  22.823  0.00  0.00    +0.057 A 
ATOM      7  N   UNL     1       8.678  -1.606  21.958  0.00  0.00    -0.338 N 
ATOM      8  H   UNL     1       8.998  -1.990  21.084  0.00  0.00    +0.167 HD
ATOM      9  C   UNL     1       9.102  -0.411  22.432  0.00  0.00    +0.144 A 
ATOM     10  N   UNL     1       9.980   0.345  21.760  0.00  0.00    -0.218 NA
ATOM     11  C   UNL     1      10.233   1.479  22.404  0.00  0.00    +0.225 A 
ATOM     12  N   UNL     1       9.681   1.894  23.550  0.00  0.00    -0.220 NA
ENDROOT
BRANCH   5  13
ATOM     13  C   UNL     1       6.827  -1.698  25.100  0.00  0.00    -0.015 A 
ATOM     14  C   UNL     1       7.270  -2.661  26.031  0.00  0.00    +0.008 A 
ATOM     15  C   UNL     1       6.456  -3.097  27.086  0.00  0.00    +0.001 A 
ATOM     16  C   UNL     1       5.222  -2.497  27.301  0.00  0.00    +0.000 A 
ATOM     17  C   UNL     1       4.783  -1.508  26.426  0.00  0.00    +0.001 A 
ATOM     18  C   UNL     1       5.554  -1.155  25.308  0.00  0.00    +0.008 A 
ENDBRANCH   5  13
BRANCH   6  19
ATOM     19  C   UNL     1       7.298  -3.571  22.495  0.00  0.00    -0.001 A 
ATOM     20  C   UNL     1       6.326  -3.739  21.492  0.00  0.00    +0.010 A 
ATOM     21  C   UNL     1       5.932  -5.013  21.075  0.00  0.00    +0.001 A 
ATOM     22  C   UNL     1       6.514  -6.141  21.649  0.00  0.00    +0.000 A 
ATOM     23  C   UNL     1       7.438  -5.992  22.680  0.00  0.00    +0.001 A 
ATOM     24  C   UNL     1       7.801  -4.717  23.122  0.00  0.00    +0.010 A 
ENDBRANCH   6  19
BRANCH   1  25
ATOM     25  C   UNL     1       8.058   3.155  25.327  0.00  0.00    +0.130 C 
BRANCH  25  26
ATOM     26  C   UNL     1       6.899   3.652  24.444  0.00  0.00    +0.174 C 
BRANCH  26  27
ATOM     27  O   UNL     1       7.383   4.110  23.180  0.00  0.00    -0.393 OA
ATOM     28  H   UNL     1       7.497   3.315  22.628  0.00  0.00    +0.209 HD
ENDBRANCH  26  27
ENDBRANCH  25  26
ENDBRANCH   1  25
TORSDOF 5
ENDMDL
MODEL 9
REMARK VINA RESULT:      -6.2      4.713      7.423
REMARK  Name = 
REMARK  5 active torsions:
REMARK  status: ('A' for Active; 'I' for Inactive)
REMARK    1  A    between atoms: O_1  and  C_2
REMARK    2  A    between atoms: C_2  and  C_3
REMARK    3  A    between atoms: C_3  and  N_4
REMARK    4  A    between atoms: C_11  and  C_20
REMARK    5  A    between atoms: C_12  and  C_14
REMARK                            x       y       z     vdW  Elec       q    Type
REMARK                         _______ _______ _______ _____ _____    ______ ____
ROOT
ATOM      1  N   UNL     1       7.884  -1.909  25.643  0.00  0.00    -0.326 N 
ATOM      2  H   UNL     1       7.520  -1.207  26.264  0.00  0.00    +0.148 HD
ATOM      3  C   UNL     1       8.614  -1.389  24.573  0.00  0.00    +0.132 A 
ATOM      4  C   UNL     1       8.643  -0.031  24.142  0.00  0.00    +0.067 A 
ATOM      5  C   UNL     1       8.003   1.262  24.434  0.00  0.00    +0.020 A 
ATOM      6  C   UNL     1       8.606   2.222  23.590  0.00  0.00    +0.057 A 
ATOM      7  N   UNL     1       9.525   1.544  22.825  0.00  0.00    -0.338 N 
ATOM      8  H   UNL     1      10.114   1.957  22.121  0.00  0.00    +0.167 HD
ATOM      9  C   UNL     1       9.531   0.217  23.099  0.00  0.00    +0.144 A 
ATOM     10  N   UNL     1      10.332  -0.635  22.448  0.00  0.00    -0.218 NA
ATOM     11  C   UNL     1      10.182  -1.876  22.896  0.00  0.00    +0.225 A 
ATOM     12  N   UNL     1       9.391  -2.281  23.897  0.00  0.00    -0.220 NA
ENDROOT
BRANCH   5  13
ATOM     13  C   UNL     1       6.895   1.605  25.352  0.00  0.00    -0.015 A 
ATOM     14  C   UNL     1       5.549   1.537  24.936  0.00  0.00    +0.008 A 
ATOM     15  C   UNL     1       4.499   1.977  25.755  0.00  0.00    +0.001 A 
ATOM     16  C   UNL     1       4.763   2.391  27.054  0.00  0.00    +0.000 A 
ATOM     17  C   UNL     1       6.079   2.419  27.506  0.00  0.00    +0.001 A 
ATOM     18  C   UNL     1       7.134   2.083  26.645  0.00  0.00    +0.008 A 
ENDBRANCH   5  13
BRANCH   6  19
ATOM     19  C   UNL     1       8.416   3.671  23.369  0.00  0.00    -0.001 A 
ATOM     20  C   UNL     1       9.320   4.597  23.920  0.00  0.00    +0.010 A 
ATOM     21  C   UNL     1       9.235   5.958  23.614  0.00  0.00    +0.001 A 
ATOM     22  C   UNL     1       8.249   6.412  22.741  0.00  0.00    +0.000 A 
ATOM     23  C   UNL     1       7.314   5.516  22.229  0.00  0.00    +0.001 A 
ATOM     24  C   UNL     1       7.378   4.162  22.569  0.00  0.00    +0.010 A 
ENDBRANCH   6  19
BRANCH   1  25
ATOM     25  C   UNL     1       8.518  -3.030  26.358  0.00  0.00    +0.130 C 
BRANCH  25  26
ATOM     26  C   UNL     1       7.538  -4.161  26.718  0.00  0.00    +0.174 C 
BRANCH  26  27
ATOM     27  O   UNL     1       8.238  -5.298  27.225  0.00  0.00    -0.393 OA
ATOM     28  H   UNL     1       8.630  -5.020  28.073  0.00  0.00    +0.209 HD
ENDBRANCH  26  27
ENDBRANCH  25  26
ENDBRANCH   1  25
TORSDOF 5
ENDMDL
