MODEL 1
REMARK VINA RESULT:      -5.4      0.000      0.000
REMARK  Name = 
REMARK  12 active torsions:
REMARK  status: ('A' for Active; 'I' for Inactive)
REMARK    1  A    between atoms: C_1  and  C_2
REMARK    2  A    between atoms: C_2  and  N_4
REMARK    3  A    between atoms: C_2  and  C_5
REMARK    4  A    between atoms: C_5  and  C_7
REMARK    5  A    between atoms: C_5  and  N_15
REMARK    6  A    between atoms: C_7  and  C_8
REMARK    7  A    between atoms: C_8  and  C_9
REMARK    8  A    between atoms: C_9  and  C_10
REMARK    9  A    between atoms: C_10  and  C_11
REMARK   10  A    between atoms: C_11  and  C_12
REMARK   11  A    between atoms: C_12  and  O_13
REMARK   12  A    between atoms: C_16  and  O_17
REMARK                            x       y       z     vdW  Elec       q    Type
REMARK                         _______ _______ _______ _____ _____    ______ ____
ROOT
ATOM      1  C   UNL     1      10.230   4.958  23.905  0.00  0.00    +0.093 C 
ENDROOT
BRANCH   1   2
ATOM      2  N   UNL     1      11.565   4.802  23.308  0.00  0.00    -0.277 N 
ATOM      3  H   UNL     1      11.647   4.172  22.529  0.00  0.00    +0.152 HD
ATOM      4  C   UNL     1      12.669   5.426  23.799  0.00  0.00    +0.398 C 
ATOM      5  O   UNL     1      12.697   6.204  24.734  0.00  0.00    -0.227 OA
BRANCH   4   6
ATOM      6  O   UNL     1      13.769   5.075  23.110  0.00  0.00    -0.466 OA
ATOM      7  H   UNL     1      13.568   4.508  22.350  0.00  0.00    +0.297 HD
ENDBRANCH   4   6
ENDBRANCH   1   2
BRANCH   1   9
ATOM      8  C   UNL     1       8.887   7.107  24.357  0.00  0.00    +0.025 C 
ATOM      9  C   UNL     1       9.434   6.161  23.286  0.00  0.00    +0.068 C 
BRANCH   9  10
ATOM     10  N   UNL     1       8.339   5.740  22.399  0.00  0.00    -0.326 NA
ATOM     11  H   UNL     1       8.629   5.830  21.427  0.00  0.00    +0.119 HD
ATOM     12  H   UNL     1       8.158   4.749  22.555  0.00  0.00    +0.119 HD
ENDBRANCH   9  10
ENDBRANCH   1   9
BRANCH   1  13
ATOM     13  C   UNL     1       9.498   3.589  23.873  0.00  0.00    +0.024 C 
BRANCH  13  14
ATOM     14  C   UNL     1      10.374   2.433  23.385  0.00  0.00    +0.002 C 
BRANCH  14  15
ATOM     15  C   UNL     1       9.966   1.871  22.026  0.00  0.00    +0.001 C 
BRANCH  15  16
ATOM     16  C   UNL     1       9.227   0.548  22.247  0.00  0.00    +0.011 C 
BRANCH  16  17
ATOM     17  C   UNL     1       9.885  -0.300  23.324  0.00  0.00    +0.120 C 
BRANCH  17  18
ATOM     18  C   UNL     1      10.182  -1.696  22.823  0.00  0.00    +0.305 C 
ATOM     19  O   UNL     1      10.349  -2.679  23.522  0.00  0.00    -0.251 OA
BRANCH  18  20
ATOM     20  O   UNL     1      10.240  -1.746  21.473  0.00  0.00    -0.481 OA
ATOM     21  H   UNL     1       9.441  -1.402  21.033  0.00  0.00    +0.295 HD
ENDBRANCH  18  20
ENDBRANCH  17  18
ENDBRANCH  16  17
ENDBRANCH  15  16
ENDBRANCH  14  15
ENDBRANCH  13  14
ENDBRANCH   1  13
TORSDOF 11
ENDMDL
MODEL 2
REMARK VINA RESULT:      -5.3      5.342      8.755
REMARK  Name = 
REMARK  12 active torsions:
REMARK  status: ('A' for Active; 'I' for Inactive)
REMARK    1  A    between atoms: C_1  and  C_2
REMARK    2  A    between atoms: C_2  and  N_4
REMARK    3  A    between atoms: C_2  and  C_5
REMARK    4  A    between atoms: C_5  and  C_7
REMARK    5  A    between atoms: C_5  and  N_15
REMARK    6  A    between atoms: C_7  and  C_8
REMARK    7  A    between atoms: C_8  and  C_9
REMARK    8  A    between atoms: C_9  and  C_10
REMARK    9  A    between atoms: C_10  and  C_11
REMARK   10  A    between atoms: C_11  and  C_12
REMARK   11  A    between atoms: C_12  and  O_13
REMARK   12  A    between atoms: C_16  and  O_17
REMARK                            x       y       z     vdW  Elec       q    Type
REMARK                         _______ _______ _______ _____ _____    ______ ____
ROOT
ATOM      1  C   UNL     1       7.347  -4.521  23.411  0.00  0.00    +0.093 C 
ENDROOT
BRANCH   1   2
ATOM      2  N   UNL     1       7.461  -5.089  24.763  0.00  0.00    -0.277 N 
ATOM      3  H   UNL     1       6.605  -5.262  25.259  0.00  0.00    +0.152 HD
ATOM      4  C   UNL     1       8.658  -5.329  25.362  0.00  0.00    +0.398 C 
ATOM      5  O   UNL     1       9.756  -5.156  24.867  0.00  0.00    -0.227 OA
BRANCH   4   6
ATOM      6  O   UNL     1       8.488  -5.797  26.611  0.00  0.00    -0.466 OA
ATOM      7  H   UNL     1       8.551  -5.099  27.282  0.00  0.00    +0.297 HD
ENDBRANCH   4   6
ENDBRANCH   1   2
BRANCH   1   9
ATOM      8  C   UNL     1       6.698  -5.888  21.329  0.00  0.00    +0.025 C 
ATOM      9  C   UNL     1       6.186  -5.174  22.583  0.00  0.00    +0.068 C 
BRANCH   9  10
ATOM     10  N   UNL     1       5.131  -4.220  22.206  0.00  0.00    -0.326 NA
ATOM     11  H   UNL     1       5.520  -3.280  22.155  0.00  0.00    +0.119 HD
ATOM     12  H   UNL     1       4.807  -4.449  21.267  0.00  0.00    +0.119 HD
ENDBRANCH   9  10
ENDBRANCH   1   9
BRANCH   1  13
ATOM     13  C   UNL     1       7.301  -2.972  23.516  0.00  0.00    +0.024 C 
BRANCH  13  14
ATOM     14  C   UNL     1       8.404  -2.267  22.722  0.00  0.00    +0.002 C 
BRANCH  14  15
ATOM     15  C   UNL     1       9.444  -1.563  23.588  0.00  0.00    +0.001 C 
BRANCH  15  16
ATOM     16  C   UNL     1      10.274  -0.636  22.696  0.00  0.00    +0.011 C 
BRANCH  16  17
ATOM     17  C   UNL     1       9.503  -0.188  21.464  0.00  0.00    +0.120 C 
BRANCH  17  18
ATOM     18  C   UNL     1       9.004   1.233  21.612  0.00  0.00    +0.305 C 
ATOM     19  O   UNL     1       7.847   1.561  21.802  0.00  0.00    -0.251 OA
BRANCH  18  20
ATOM     20  O   UNL     1      10.008   2.133  21.515  0.00  0.00    -0.481 OA
ATOM     21  H   UNL     1       9.759   2.949  21.043  0.00  0.00    +0.295 HD
ENDBRANCH  18  20
ENDBRANCH  17  18
ENDBRANCH  16  17
ENDBRANCH  15  16
ENDBRANCH  14  15
ENDBRANCH  13  14
ENDBRANCH   1  13
TORSDOF 11
ENDMDL
MODEL 3
REMARK VINA RESULT:      -5.0      5.658      8.458
REMARK  Name = 
REMARK  12 active torsions:
REMARK  status: ('A' for Active; 'I' for Inactive)
REMARK    1  A    between atoms: C_1  and  C_2
REMARK    2  A    between atoms: C_2  and  N_4
REMARK    3  A    between atoms: C_2  and  C_5
REMARK    4  A    between atoms: C_5  and  C_7
REMARK    5  A    between atoms: C_5  and  N_15
REMARK    6  A    between atoms: C_7  and  C_8
REMARK    7  A    between atoms: C_8  and  C_9
REMARK    8  A    between atoms: C_9  and  C_10
REMARK    9  A    between atoms: C_10  and  C_11
REMARK   10  A    between atoms: C_11  and  C_12
REMARK   11  A    between atoms: C_12  and  O_13
REMARK   12  A    between atoms: C_16  and  O_17
REMARK                            x       y       z     vdW  Elec       q    Type
REMARK                         _______ _______ _______ _____ _____    ______ ____
ROOT
ATOM      1  C   UNL     1       7.506  -3.709  25.771  0.00  0.00    +0.093 C 
ENDROOT
BRANCH   1   2
ATOM      2  N   UNL     1       7.737  -3.760  24.320  0.00  0.00    -0.277 N 
ATOM      3  H   UNL     1       8.433  -3.140  23.945  0.00  0.00    +0.152 HD
ATOM      4  C   UNL     1       7.018  -4.560  23.488  0.00  0.00    +0.398 C 
ATOM      5  O   UNL     1       6.150  -5.345  23.820  0.00  0.00    -0.227 OA
BRANCH   4   6
ATOM      6  O   UNL     1       7.385  -4.380  22.207  0.00  0.00    -0.466 OA
ATOM      7  H   UNL     1       7.305  -5.189  21.679  0.00  0.00    +0.297 HD
ENDBRANCH   4   6
ENDBRANCH   1   2
BRANCH   1   9
ATOM      8  C   UNL     1       9.693  -5.063  25.685  0.00  0.00    +0.025 C 
ATOM      9  C   UNL     1       8.556  -4.555  26.574  0.00  0.00    +0.068 C 
BRANCH   9  10
ATOM     10  N   UNL     1       7.959  -5.687  27.300  0.00  0.00    -0.326 NA
ATOM     11  H   UNL     1       7.868  -6.486  26.675  0.00  0.00    +0.119 HD
ATOM     12  H   UNL     1       8.599  -5.972  28.040  0.00  0.00    +0.119 HD
ENDBRANCH   9  10
ENDBRANCH   1   9
BRANCH   1  13
ATOM     13  C   UNL     1       7.371  -2.225  26.211  0.00  0.00    +0.024 C 
BRANCH  13  14
ATOM     14  C   UNL     1       8.713  -1.511  26.391  0.00  0.00    +0.002 C 
BRANCH  14  15
ATOM     15  C   UNL     1       8.845  -0.219  25.590  0.00  0.00    +0.001 C 
BRANCH  15  16
ATOM     16  C   UNL     1      10.207  -0.218  24.889  0.00  0.00    +0.011 C 
BRANCH  16  17
ATOM     17  C   UNL     1      10.069  -0.188  23.375  0.00  0.00    +0.120 C 
BRANCH  17  18
ATOM     18  C   UNL     1      10.194  -1.574  22.782  0.00  0.00    +0.305 C 
ATOM     19  O   UNL     1      10.305  -2.608  23.416  0.00  0.00    -0.251 OA
BRANCH  18  20
ATOM     20  O   UNL     1      10.162  -1.550  21.430  0.00  0.00    -0.481 OA
ATOM     21  H   UNL     1      11.045  -1.530  21.017  0.00  0.00    +0.295 HD
ENDBRANCH  18  20
ENDBRANCH  17  18
ENDBRANCH  16  17
ENDBRANCH  15  16
ENDBRANCH  14  15
ENDBRANCH  13  14
ENDBRANCH   1  13
TORSDOF 11
ENDMDL
MODEL 4
REMARK VINA RESULT:      -5.0      3.936      6.993
REMARK  Name = 
REMARK  12 active torsions:
REMARK  status: ('A' for Active; 'I' for Inactive)
REMARK    1  A    between atoms: C_1  and  C_2
REMARK    2  A    between atoms: C_2  and  N_4
REMARK    3  A    between atoms: C_2  and  C_5
REMARK    4  A    between atoms: C_5  and  C_7
REMARK    5  A    between atoms: C_5  and  N_15
REMARK    6  A    between atoms: C_7  and  C_8
REMARK    7  A    between atoms: C_8  and  C_9
REMARK    8  A    between atoms: C_9  and  C_10
REMARK    9  A    between atoms: C_10  and  C_11
REMARK   10  A    between atoms: C_11  and  C_12
REMARK   11  A    between atoms: C_12  and  O_13
REMARK   12  A    between atoms: C_16  and  O_17
REMARK                            x       y       z     vdW  Elec       q    Type
REMARK                         _______ _______ _______ _____ _____    ______ ____
ROOT
ATOM      1  C   UNL     1       8.209  -2.263  24.012  0.00  0.00    +0.093 C 
ENDROOT
BRANCH   1   2
ATOM      2  N   UNL     1       8.482  -1.538  22.762  0.00  0.00    -0.277 N 
ATOM      3  H   UNL     1       7.720  -1.026  22.355  0.00  0.00    +0.152 HD
ATOM      4  C   UNL     1       9.686  -1.585  22.133  0.00  0.00    +0.398 C 
ATOM      5  O   UNL     1      10.678  -2.172  22.523  0.00  0.00    -0.227 OA
BRANCH   4   6
ATOM      6  O   UNL     1       9.660  -0.883  20.985  0.00  0.00    -0.466 OA
ATOM      7  H   UNL     1      10.482  -0.966  20.478  0.00  0.00    +0.297 HD
ENDBRANCH   4   6
ENDBRANCH   1   2
BRANCH   1   9
ATOM      8  C   UNL     1       7.190  -4.602  24.357  0.00  0.00    +0.025 C 
ATOM      9  C   UNL     1       8.404  -3.813  23.860  0.00  0.00    +0.068 C 
BRANCH   9  10
ATOM     10  N   UNL     1       9.618  -4.314  24.523  0.00  0.00    -0.326 NA
ATOM     11  H   UNL     1      10.441  -3.890  24.099  0.00  0.00    +0.119 HD
ATOM     12  H   UNL     1       9.606  -4.010  25.495  0.00  0.00    +0.119 HD
ENDBRANCH   9  10
ENDBRANCH   1   9
BRANCH   1  13
ATOM     13  C   UNL     1       9.009  -1.601  25.167  0.00  0.00    +0.024 C 
BRANCH  13  14
ATOM     14  C   UNL     1       8.999  -0.071  25.126  0.00  0.00    +0.002 C 
BRANCH  14  15
ATOM     15  C   UNL     1      10.386   0.563  25.124  0.00  0.00    +0.001 C 
BRANCH  15  16
ATOM     16  C   UNL     1      10.521   1.439  23.875  0.00  0.00    +0.011 C 
BRANCH  16  17
ATOM     17  C   UNL     1       9.301   2.322  23.663  0.00  0.00    +0.120 C 
BRANCH  17  18
ATOM     18  C   UNL     1       8.797   2.234  22.239  0.00  0.00    +0.305 C 
ATOM     19  O   UNL     1       7.629   2.264  21.898  0.00  0.00    -0.251 OA
BRANCH  18  20
ATOM     20  O   UNL     1       9.811   2.121  21.351  0.00  0.00    -0.481 OA
ATOM     21  H   UNL     1      10.546   1.562  21.664  0.00  0.00    +0.295 HD
ENDBRANCH  18  20
ENDBRANCH  17  18
ENDBRANCH  16  17
ENDBRANCH  15  16
ENDBRANCH  14  15
ENDBRANCH  13  14
ENDBRANCH   1  13
TORSDOF 11
ENDMDL
MODEL 5
REMARK VINA RESULT:      -5.0      8.924     10.392
REMARK  Name = 
REMARK  12 active torsions:
REMARK  status: ('A' for Active; 'I' for Inactive)
REMARK    1  A    between atoms: C_1  and  C_2
REMARK    2  A    between atoms: C_2  and  N_4
REMARK    3  A    between atoms: C_2  and  C_5
REMARK    4  A    between atoms: C_5  and  C_7
REMARK    5  A    between atoms: C_5  and  N_15
REMARK    6  A    between atoms: C_7  and  C_8
REMARK    7  A    between atoms: C_8  and  C_9
REMARK    8  A    between atoms: C_9  and  C_10
REMARK    9  A    between atoms: C_10  and  C_11
REMARK   10  A    between atoms: C_11  and  C_12
REMARK   11  A    between atoms: C_12  and  O_13
REMARK   12  A    between atoms: C_16  and  O_17
REMARK                            x       y       z     vdW  Elec       q    Type
REMARK                         _______ _______ _______ _____ _____    ______ ____
ROOT
ATOM      1  C   UNL     1       5.993  -4.548  26.291  0.00  0.00    +0.093 C 
ENDROOT
BRANCH   1   2
ATOM      2  N   UNL     1       5.495  -5.499  25.286  0.00  0.00    -0.277 N 
ATOM      3  H   UNL     1       5.607  -5.244  24.320  0.00  0.00    +0.152 HD
ATOM      4  C   UNL     1       4.858  -6.654  25.617  0.00  0.00    +0.398 C 
ATOM      5  O   UNL     1       4.659  -7.066  26.744  0.00  0.00    -0.227 OA
BRANCH   4   6
ATOM      6  O   UNL     1       4.455  -7.316  24.518  0.00  0.00    -0.466 OA
ATOM      7  H   UNL     1       5.190  -7.536  23.925  0.00  0.00    +0.297 HD
ENDBRANCH   4   6
ENDBRANCH   1   2
BRANCH   1   9
ATOM      8  C   UNL     1       8.375  -5.159  25.530  0.00  0.00    +0.025 C 
ATOM      9  C   UNL     1       7.470  -4.856  26.726  0.00  0.00    +0.068 C 
BRANCH   9  10
ATOM     10  N   UNL     1       7.572  -5.949  27.706  0.00  0.00    -0.326 NA
ATOM     11  H   UNL     1       8.195  -6.672  27.351  0.00  0.00    +0.119 HD
ATOM     12  H   UNL     1       8.008  -5.585  28.553  0.00  0.00    +0.119 HD
ENDBRANCH   9  10
ENDBRANCH   1   9
BRANCH   1  13
ATOM     13  C   UNL     1       5.735  -3.101  25.791  0.00  0.00    +0.024 C 
BRANCH  13  14
ATOM     14  C   UNL     1       5.390  -3.015  24.303  0.00  0.00    +0.002 C 
BRANCH  14  15
ATOM     15  C   UNL     1       6.538  -2.534  23.422  0.00  0.00    +0.001 C 
BRANCH  15  16
ATOM     16  C   UNL     1       6.453  -3.255  22.073  0.00  0.00    +0.011 C 
BRANCH  16  17
ATOM     17  C   UNL     1       7.149  -4.606  22.103  0.00  0.00    +0.120 C 
BRANCH  17  18
ATOM     18  C   UNL     1       6.309  -5.675  21.439  0.00  0.00    +0.305 C 
ATOM     19  O   UNL     1       5.899  -5.643  20.293  0.00  0.00    -0.251 OA
BRANCH  18  20
ATOM     20  O   UNL     1       6.055  -6.708  22.274  0.00  0.00    -0.481 OA
ATOM     21  H   UNL     1       5.161  -7.084  22.172  0.00  0.00    +0.295 HD
ENDBRANCH  18  20
ENDBRANCH  17  18
ENDBRANCH  16  17
ENDBRANCH  15  16
ENDBRANCH  14  15
ENDBRANCH  13  14
ENDBRANCH   1  13
TORSDOF 11
ENDMDL
MODEL 6
REMARK VINA RESULT:      -5.0      5.224      8.650
REMARK  Name = 
REMARK  12 active torsions:
REMARK  status: ('A' for Active; 'I' for Inactive)
REMARK    1  A    between atoms: C_1  and  C_2
REMARK    2  A    between atoms: C_2  and  N_4
REMARK    3  A    between atoms: C_2  and  C_5
REMARK    4  A    between atoms: C_5  and  C_7
REMARK    5  A    between atoms: C_5  and  N_15
REMARK    6  A    between atoms: C_7  and  C_8
REMARK    7  A    between atoms: C_8  and  C_9
REMARK    8  A    between atoms: C_9  and  C_10
REMARK    9  A    between atoms: C_10  and  C_11
REMARK   10  A    between atoms: C_11  and  C_12
REMARK   11  A    between atoms: C_12  and  O_13
REMARK   12  A    between atoms: C_16  and  O_17
REMARK                            x       y       z     vdW  Elec       q    Type
REMARK                         _______ _______ _______ _____ _____    ______ ____
ROOT
ATOM      1  C   UNL     1       7.977  -4.266  24.608  0.00  0.00    +0.093 C 
ENDROOT
BRANCH   1   2
ATOM      2  N   UNL     1       7.793  -5.177  23.468  0.00  0.00    -0.277 N 
ATOM      3  H   UNL     1       8.130  -6.117  23.575  0.00  0.00    +0.152 HD
ATOM      4  C   UNL     1       7.245  -4.778  22.289  0.00  0.00    +0.398 C 
ATOM      5  O   UNL     1       6.808  -3.670  22.039  0.00  0.00    -0.227 OA
BRANCH   4   6
ATOM      6  O   UNL     1       7.241  -5.782  21.394  0.00  0.00    -0.466 OA
ATOM      7  H   UNL     1       6.895  -6.609  21.764  0.00  0.00    +0.297 HD
ENDBRANCH   4   6
ENDBRANCH   1   2
BRANCH   1   9
ATOM      8  C   UNL     1       6.899  -3.711  26.879  0.00  0.00    +0.025 C 
ATOM      9  C   UNL     1       7.342  -4.827  25.930  0.00  0.00    +0.068 C 
BRANCH   9  10
ATOM     10  N   UNL     1       8.225  -5.759  26.649  0.00  0.00    -0.326 NA
ATOM     11  H   UNL     1       8.391  -5.416  27.594  0.00  0.00    +0.119 HD
ATOM     12  H   UNL     1       7.742  -6.652  26.748  0.00  0.00    +0.119 HD
ENDBRANCH   9  10
ENDBRANCH   1   9
BRANCH   1  13
ATOM     13  C   UNL     1       9.475  -3.871  24.705  0.00  0.00    +0.024 C 
BRANCH  13  14
ATOM     14  C   UNL     1       9.833  -2.611  23.913  0.00  0.00    +0.002 C 
BRANCH  14  15
ATOM     15  C   UNL     1       9.412  -1.309  24.588  0.00  0.00    +0.001 C 
BRANCH  15  16
ATOM     16  C   UNL     1      10.305  -0.179  24.067  0.00  0.00    +0.011 C 
BRANCH  16  17
ATOM     17  C   UNL     1       9.495   0.957  23.462  0.00  0.00    +0.120 C 
BRANCH  17  18
ATOM     18  C   UNL     1       9.656   1.010  21.959  0.00  0.00    +0.305 C 
ATOM     19  O   UNL     1       9.338   0.128  21.181  0.00  0.00    -0.251 OA
BRANCH  18  20
ATOM     20  O   UNL     1      10.201   2.178  21.550  0.00  0.00    -0.481 OA
ATOM     21  H   UNL     1      10.959   2.067  20.946  0.00  0.00    +0.295 HD
ENDBRANCH  18  20
ENDBRANCH  17  18
ENDBRANCH  16  17
ENDBRANCH  15  16
ENDBRANCH  14  15
ENDBRANCH  13  14
ENDBRANCH   1  13
TORSDOF 11
ENDMDL
MODEL 7
REMARK VINA RESULT:      -5.0      5.403      8.802
REMARK  Name = 
REMARK  12 active torsions:
REMARK  status: ('A' for Active; 'I' for Inactive)
REMARK    1  A    between atoms: C_1  and  C_2
REMARK    2  A    between atoms: C_2  and  N_4
REMARK    3  A    between atoms: C_2  and  C_5
REMARK    4  A    between atoms: C_5  and  C_7
REMARK    5  A    between atoms: C_5  and  N_15
REMARK    6  A    between atoms: C_7  and  C_8
REMARK    7  A    between atoms: C_8  and  C_9
REMARK    8  A    between atoms: C_9  and  C_10
REMARK    9  A    between atoms: C_10  and  C_11
REMARK   10  A    between atoms: C_11  and  C_12
REMARK   11  A    between atoms: C_12  and  O_13
REMARK   12  A    between atoms: C_16  and  O_17
REMARK                            x       y       z     vdW  Elec       q    Type
REMARK                         _______ _______ _______ _____ _____    ______ ____
ROOT
ATOM      1  C   UNL     1       8.498  -3.584  26.072  0.00  0.00    +0.093 C 
ENDROOT
BRANCH   1   2
ATOM      2  N   UNL     1       7.119  -4.007  26.360  0.00  0.00    -0.277 N 
ATOM      3  H   UNL     1       6.379  -3.449  25.972  0.00  0.00    +0.152 HD
ATOM      4  C   UNL     1       6.826  -5.069  27.157  0.00  0.00    +0.398 C 
ATOM      5  O   UNL     1       7.631  -5.814  27.685  0.00  0.00    -0.227 OA
BRANCH   4   6
ATOM      6  O   UNL     1       5.497  -5.211  27.304  0.00  0.00    -0.466 OA
ATOM      7  H   UNL     1       5.004  -4.940  26.514  0.00  0.00    +0.297 HD
ENDBRANCH   4   6
ENDBRANCH   1   2
BRANCH   1   9
ATOM      8  C   UNL     1       8.094  -4.837  23.860  0.00  0.00    +0.025 C 
ATOM      9  C   UNL     1       9.137  -4.393  24.889  0.00  0.00    +0.068 C 
BRANCH   9  10
ATOM     10  N   UNL     1       9.913  -5.560  25.334  0.00  0.00    -0.326 NA
ATOM     11  H   UNL     1      10.349  -5.361  26.232  0.00  0.00    +0.119 HD
ATOM     12  H   UNL     1       9.272  -6.336  25.491  0.00  0.00    +0.119 HD
ENDBRANCH   9  10
ENDBRANCH   1   9
BRANCH   1  13
ATOM     13  C   UNL     1       8.532  -2.039  25.918  0.00  0.00    +0.024 C 
BRANCH  13  14
ATOM     14  C   UNL     1       9.397  -1.555  24.752  0.00  0.00    +0.002 C 
BRANCH  14  15
ATOM     15  C   UNL     1       8.775  -0.424  23.939  0.00  0.00    +0.001 C 
BRANCH  15  16
ATOM     16  C   UNL     1       8.578  -0.909  22.500  0.00  0.00    +0.011 C 
BRANCH  16  17
ATOM     17  C   UNL     1       9.428  -0.126  21.512  0.00  0.00    +0.120 C 
BRANCH  17  18
ATOM     18  C   UNL     1       9.039   1.335  21.487  0.00  0.00    +0.305 C 
ATOM     19  O   UNL     1       7.904   1.765  21.384  0.00  0.00    -0.251 OA
BRANCH  18  20
ATOM     20  O   UNL     1      10.116   2.146  21.601  0.00  0.00    -0.481 OA
ATOM     21  H   UNL     1      10.967   1.684  21.492  0.00  0.00    +0.295 HD
ENDBRANCH  18  20
ENDBRANCH  17  18
ENDBRANCH  16  17
ENDBRANCH  15  16
ENDBRANCH  14  15
ENDBRANCH  13  14
ENDBRANCH   1  13
TORSDOF 11
ENDMDL
MODEL 8
REMARK VINA RESULT:      -4.9      4.476      6.054
REMARK  Name = 
REMARK  12 active torsions:
REMARK  status: ('A' for Active; 'I' for Inactive)
REMARK    1  A    between atoms: C_1  and  C_2
REMARK    2  A    between atoms: C_2  and  N_4
REMARK    3  A    between atoms: C_2  and  C_5
REMARK    4  A    between atoms: C_5  and  C_7
REMARK    5  A    between atoms: C_5  and  N_15
REMARK    6  A    between atoms: C_7  and  C_8
REMARK    7  A    between atoms: C_8  and  C_9
REMARK    8  A    between atoms: C_9  and  C_10
REMARK    9  A    between atoms: C_10  and  C_11
REMARK   10  A    between atoms: C_11  and  C_12
REMARK   11  A    between atoms: C_12  and  O_13
REMARK   12  A    between atoms: C_16  and  O_17
REMARK                            x       y       z     vdW  Elec       q    Type
REMARK                         _______ _______ _______ _____ _____    ______ ____
ROOT
ATOM      1  C   UNL     1       8.904  -0.040  21.952  0.00  0.00    +0.093 C 
ENDROOT
BRANCH   1   2
ATOM      2  N   UNL     1       7.750   0.136  22.848  0.00  0.00    -0.277 N 
ATOM      3  H   UNL     1       7.615  -0.559  23.561  0.00  0.00    +0.152 HD
ATOM      4  C   UNL     1       6.858   1.153  22.709  0.00  0.00    +0.398 C 
ATOM      5  O   UNL     1       6.912   2.047  21.886  0.00  0.00    -0.227 OA
BRANCH   4   6
ATOM      6  O   UNL     1       5.870   1.057  23.616  0.00  0.00    -0.466 OA
ATOM      7  H   UNL     1       5.123   0.528  23.298  0.00  0.00    +0.297 HD
ENDBRANCH   4   6
ENDBRANCH   1   2
BRANCH   1   9
ATOM      8  C   UNL     1      10.258   1.010  23.872  0.00  0.00    +0.025 C 
ATOM      9  C   UNL     1      10.118   0.868  22.355  0.00  0.00    +0.068 C 
BRANCH   9  10
ATOM     10  N   UNL     1      10.075   2.204  21.740  0.00  0.00    -0.326 NA
ATOM     11  H   UNL     1       9.495   2.823  22.304  0.00  0.00    +0.119 HD
ATOM     12  H   UNL     1      11.015   2.599  21.755  0.00  0.00    +0.119 HD
ENDBRANCH   9  10
ENDBRANCH   1   9
BRANCH   1  13
ATOM     13  C   UNL     1       9.219  -1.555  21.824  0.00  0.00    +0.024 C 
BRANCH  13  14
ATOM     14  C   UNL     1       8.637  -2.404  22.958  0.00  0.00    +0.002 C 
BRANCH  14  15
ATOM     15  C   UNL     1       9.624  -2.706  24.082  0.00  0.00    +0.001 C 
BRANCH  15  16
ATOM     16  C   UNL     1       8.852  -3.311  25.258  0.00  0.00    +0.011 C 
BRANCH  16  17
ATOM     17  C   UNL     1       8.702  -4.819  25.128  0.00  0.00    +0.120 C 
BRANCH  17  18
ATOM     18  C   UNL     1       7.645  -5.351  26.069  0.00  0.00    +0.305 C 
ATOM     19  O   UNL     1       6.460  -5.465  25.811  0.00  0.00    -0.251 OA
BRANCH  18  20
ATOM     20  O   UNL     1       8.166  -5.708  27.265  0.00  0.00    -0.481 OA
ATOM     21  H   UNL     1       8.158  -4.991  27.925  0.00  0.00    +0.295 HD
ENDBRANCH  18  20
ENDBRANCH  17  18
ENDBRANCH  16  17
ENDBRANCH  15  16
ENDBRANCH  14  15
ENDBRANCH  13  14
ENDBRANCH   1  13
TORSDOF 11
ENDMDL
MODEL 9
REMARK VINA RESULT:      -4.9      3.977      5.564
REMARK  Name = 
REMARK  12 active torsions:
REMARK  status: ('A' for Active; 'I' for Inactive)
REMARK    1  A    between atoms: C_1  and  C_2
REMARK    2  A    between atoms: C_2  and  N_4
REMARK    3  A    between atoms: C_2  and  C_5
REMARK    4  A    between atoms: C_5  and  C_7
REMARK    5  A    between atoms: C_5  and  N_15
REMARK    6  A    between atoms: C_7  and  C_8
REMARK    7  A    between atoms: C_8  and  C_9
REMARK    8  A    between atoms: C_9  and  C_10
REMARK    9  A    between atoms: C_10  and  C_11
REMARK   10  A    between atoms: C_11  and  C_12
REMARK   11  A    between atoms: C_12  and  O_13
REMARK   12  A    between atoms: C_16  and  O_17
REMARK                            x       y       z     vdW  Elec       q    Type
REMARK                         _______ _______ _______ _____ _____    ______ ____
ROOT
ATOM      1  C   UNL     1       9.420   0.225  23.257  0.00  0.00    +0.093 C 
ENDROOT
BRANCH   1   2
ATOM      2  N   UNL     1       9.478   0.313  24.724  0.00  0.00    -0.277 N 
ATOM      3  H   UNL     1      10.364   0.552  25.133  0.00  0.00    +0.152 HD
ATOM      4  C   UNL     1       8.412   0.034  25.521  0.00  0.00    +0.398 C 
ATOM      5  O   UNL     1       7.295  -0.269  25.145  0.00  0.00    -0.227 OA
BRANCH   4   6
ATOM      6  O   UNL     1       8.741   0.135  26.821  0.00  0.00    -0.466 OA
ATOM      7  H   UNL     1       9.686  -0.010  26.978  0.00  0.00    +0.297 HD
ENDBRANCH   4   6
ENDBRANCH   1   2
BRANCH   1   9
ATOM      8  C   UNL     1      10.486   2.552  23.532  0.00  0.00    +0.025 C 
ATOM      9  C   UNL     1      10.160   1.419  22.556  0.00  0.00    +0.068 C 
BRANCH   9  10
ATOM     10  N   UNL     1       9.426   1.962  21.403  0.00  0.00    -0.326 NA
ATOM     11  H   UNL     1      10.035   2.580  20.868  0.00  0.00    +0.119 HD
ATOM     12  H   UNL     1       9.181   1.192  20.781  0.00  0.00    +0.119 HD
ENDBRANCH   9  10
ENDBRANCH   1   9
BRANCH   1  13
ATOM     13  C   UNL     1       9.876  -1.192  22.816  0.00  0.00    +0.024 C 
BRANCH  13  14
ATOM     14  C   UNL     1       8.734  -2.077  22.308  0.00  0.00    +0.002 C 
BRANCH  14  15
ATOM     15  C   UNL     1       8.282  -3.143  23.301  0.00  0.00    +0.001 C 
BRANCH  15  16
ATOM     16  C   UNL     1       9.378  -3.324  24.355  0.00  0.00    +0.011 C 
BRANCH  16  17
ATOM     17  C   UNL     1       8.804  -3.635  25.729  0.00  0.00    +0.120 C 
BRANCH  17  18
ATOM     18  C   UNL     1       8.790  -5.124  25.997  0.00  0.00    +0.305 C 
ATOM     19  O   UNL     1       7.880  -5.740  26.522  0.00  0.00    -0.251 OA
BRANCH  18  20
ATOM     20  O   UNL     1       9.927  -5.723  25.576  0.00  0.00    -0.481 OA
ATOM     21  H   UNL     1      10.719  -5.459  26.078  0.00  0.00    +0.295 HD
ENDBRANCH  18  20
ENDBRANCH  17  18
ENDBRANCH  16  17
ENDBRANCH  15  16
ENDBRANCH  14  15
ENDBRANCH  13  14
ENDBRANCH   1  13
TORSDOF 11
ENDMDL
