MODEL 1
REMARK VINA RESULT:      -3.7      0.000      0.000
REMARK  Name = 
REMARK  5 active torsions:
REMARK  status: ('A' for Active; 'I' for Inactive)
REMARK    1  A    between atoms: N_1  and  C_2
REMARK    2  A    between atoms: C_2  and  C_4
REMARK    3  A    between atoms: C_2  and  C_7
REMARK    4  A    between atoms: C_4  and  S_5
REMARK    5  A    between atoms: C_7  and  O_8
REMARK                            x       y       z     vdW  Elec       q    Type
REMARK                         _______ _______ _______ _____ _____    ______ ____
ROOT
ATOM      1  C   UNK     1       9.053  -4.671  26.303  0.00  0.00    +0.174 C 
ENDROOT
BRANCH   1   2
ATOM      2  N   UNK     1       9.899  -5.469  25.350  0.00  0.00    -0.318 NA
ATOM      3  H   UNK     1      10.467  -4.812  24.795  0.00  0.00    +0.119 HD
ATOM      4  H   UNK     1      10.638  -5.916  25.917  0.00  0.00    +0.119 HD
ENDBRANCH   1   2
BRANCH   1   5
ATOM      5  C   UNK     1       7.741  -5.439  26.515  0.00  0.00    +0.323 C 
ATOM      6  O   UNK     1       6.846  -5.530  25.690  0.00  0.00    -0.249 OA
BRANCH   5   7
ATOM      7  O   UNK     1       7.697  -6.015  27.743  0.00  0.00    -0.480 OA
ATOM      8  H   UNK     1       7.698  -5.268  28.395  0.00  0.00    +0.295 HD
ENDBRANCH   5   7
ENDBRANCH   1   5
BRANCH   1   9
ATOM      9  C   UNK     1       8.679  -3.255  25.849  0.00  0.00    +0.147 C 
BRANCH   9  10
ATOM     10  S   UNK     1       8.901  -3.034  24.112  0.00  0.00    +0.113 S 
ATOM     11  O   UNK     1      10.338  -2.938  23.721  0.00  0.00    -0.244 OA
ENDBRANCH   9  10
ENDBRANCH   1   9
TORSDOF 5
ENDMDL
MODEL 2
REMARK VINA RESULT:      -3.4      4.360      6.232
REMARK  Name = 
REMARK  5 active torsions:
REMARK  status: ('A' for Active; 'I' for Inactive)
REMARK    1  A    between atoms: N_1  and  C_2
REMARK    2  A    between atoms: C_2  and  C_4
REMARK    3  A    between atoms: C_2  and  C_7
REMARK    4  A    between atoms: C_4  and  S_5
REMARK    5  A    between atoms: C_7  and  O_8
REMARK                            x       y       z     vdW  Elec       q    Type
REMARK                         _______ _______ _______ _____ _____    ______ ____
ROOT
ATOM      1  C   UNK     1       9.146  -0.392  22.042  0.00  0.00    +0.174 C 
ENDROOT
BRANCH   1   2
ATOM      2  N   UNK     1      10.127  -1.364  21.447  0.00  0.00    -0.318 NA
ATOM      3  H   UNK     1       9.865  -1.527  20.464  0.00  0.00    +0.119 HD
ATOM      4  H   UNK     1      11.012  -0.848  21.320  0.00  0.00    +0.119 HD
ENDBRANCH   1   2
BRANCH   1   5
ATOM      5  C   UNK     1       9.919   0.883  22.408  0.00  0.00    +0.323 C 
ATOM      6  O   UNK     1      10.575   1.032  23.425  0.00  0.00    -0.249 OA
BRANCH   5   7
ATOM      7  O   UNK     1       9.786   1.835  21.450  0.00  0.00    -0.480 OA
ATOM      8  H   UNK     1       9.595   2.682  21.931  0.00  0.00    +0.295 HD
ENDBRANCH   5   7
ENDBRANCH   1   5
BRANCH   1   9
ATOM      9  C   UNK     1       8.416  -0.857  23.307  0.00  0.00    +0.147 C 
BRANCH   9  10
ATOM     10  S   UNK     1       8.672  -2.574  23.628  0.00  0.00    +0.113 S 
ATOM     11  O   UNK     1      10.107  -2.912  23.854  0.00  0.00    -0.244 OA
ENDBRANCH   9  10
ENDBRANCH   1   9
TORSDOF 5
ENDMDL
MODEL 3
REMARK VINA RESULT:      -3.4      5.898      6.872
REMARK  Name = 
REMARK  5 active torsions:
REMARK  status: ('A' for Active; 'I' for Inactive)
REMARK    1  A    between atoms: N_1  and  C_2
REMARK    2  A    between atoms: C_2  and  C_4
REMARK    3  A    between atoms: C_2  and  C_7
REMARK    4  A    between atoms: C_4  and  S_5
REMARK    5  A    between atoms: C_7  and  O_8
REMARK                            x       y       z     vdW  Elec       q    Type
REMARK                         _______ _______ _______ _____ _____    ______ ____
ROOT
ATOM      1  C   UNK     1       8.647   0.061  22.083  0.00  0.00    +0.174 C 
ENDROOT
BRANCH   1   2
ATOM      2  N   UNK     1       9.891  -0.552  21.504  0.00  0.00    -0.318 NA
ATOM      3  H   UNK     1      10.363   0.158  20.926  0.00  0.00    +0.119 HD
ATOM      4  H   UNK     1      10.566  -0.636  22.281  0.00  0.00    +0.119 HD
ENDBRANCH   1   2
BRANCH   1   5
ATOM      5  C   UNK     1       8.631   1.544  21.687  0.00  0.00    +0.323 C 
ATOM      6  O   UNK     1       7.623   2.215  21.541  0.00  0.00    -0.249 OA
BRANCH   5   7
ATOM      7  O   UNK     1       9.889   2.026  21.521  0.00  0.00    -0.480 OA
ATOM      8  H   UNK     1      10.172   1.742  20.614  0.00  0.00    +0.295 HD
ENDBRANCH   5   7
ENDBRANCH   1   5
BRANCH   1   9
ATOM      9  C   UNK     1       8.511   0.001  23.609  0.00  0.00    +0.147 C 
BRANCH   9  10
ATOM     10  S   UNK     1      10.066  -0.258  24.404  0.00  0.00    +0.113 S 
ATOM     11  O   UNK     1      11.051   0.824  24.112  0.00  0.00    -0.244 OA
ENDBRANCH   9  10
ENDBRANCH   1   9
TORSDOF 5
ENDMDL
MODEL 4
REMARK VINA RESULT:      -3.4      1.987      2.085
REMARK  Name = 
REMARK  5 active torsions:
REMARK  status: ('A' for Active; 'I' for Inactive)
REMARK    1  A    between atoms: N_1  and  C_2
REMARK    2  A    between atoms: C_2  and  C_4
REMARK    3  A    between atoms: C_2  and  C_7
REMARK    4  A    between atoms: C_4  and  S_5
REMARK    5  A    between atoms: C_7  and  O_8
REMARK                            x       y       z     vdW  Elec       q    Type
REMARK                         _______ _______ _______ _____ _____    ______ ____
ROOT
ATOM      1  C   UNK     1       8.105  -4.759  26.082  0.00  0.00    +0.174 C 
ENDROOT
BRANCH   1   2
ATOM      2  N   UNK     1       8.077  -5.743  27.218  0.00  0.00    -0.318 NA
ATOM      3  H   UNK     1       7.807  -5.239  28.075  0.00  0.00    +0.119 HD
ATOM      4  H   UNK     1       7.240  -6.330  27.078  0.00  0.00    +0.119 HD
ENDBRANCH   1   2
BRANCH   1   5
ATOM      5  C   UNK     1       9.031  -5.326  24.997  0.00  0.00    +0.323 C 
ATOM      6  O   UNK     1       8.696  -5.559  23.847  0.00  0.00    -0.249 OA
BRANCH   5   7
ATOM      7  O   UNK     1      10.284  -5.536  25.475  0.00  0.00    -0.480 OA
ATOM      8  H   UNK     1      10.269  -5.235  26.420  0.00  0.00    +0.295 HD
ENDBRANCH   5   7
ENDBRANCH   1   5
BRANCH   1   9
ATOM      9  C   UNK     1       8.614  -3.352  26.419  0.00  0.00    +0.147 C 
BRANCH   9  10
ATOM     10  S   UNK     1       8.384  -2.225  25.080  0.00  0.00    +0.113 S 
ATOM     11  O   UNK     1       9.650  -1.929  24.349  0.00  0.00    -0.244 OA
ENDBRANCH   9  10
ENDBRANCH   1   9
TORSDOF 5
ENDMDL
MODEL 5
REMARK VINA RESULT:      -3.3      4.727      6.497
REMARK  Name = 
REMARK  5 active torsions:
REMARK  status: ('A' for Active; 'I' for Inactive)
REMARK    1  A    between atoms: N_1  and  C_2
REMARK    2  A    between atoms: C_2  and  C_4
REMARK    3  A    between atoms: C_2  and  C_7
REMARK    4  A    between atoms: C_4  and  S_5
REMARK    5  A    between atoms: C_7  and  O_8
REMARK                            x       y       z     vdW  Elec       q    Type
REMARK                         _______ _______ _______ _____ _____    ______ ____
ROOT
ATOM      1  C   UNK     1      10.126  -0.079  22.251  0.00  0.00    +0.174 C 
ENDROOT
BRANCH   1   2
ATOM      2  N   UNK     1      10.436   0.080  23.714  0.00  0.00    -0.318 NA
ATOM      3  H   UNK     1      10.823   1.023  23.861  0.00  0.00    +0.119 HD
ATOM      4  H   UNK     1       9.529   0.175  24.198  0.00  0.00    +0.119 HD
ENDBRANCH   1   2
BRANCH   1   5
ATOM      5  C   UNK     1       9.349   1.167  21.802  0.00  0.00    +0.323 C 
ATOM      6  O   UNK     1       8.136   1.229  21.690  0.00  0.00    -0.249 OA
BRANCH   5   7
ATOM      7  O   UNK     1      10.185   2.205  21.546  0.00  0.00    -0.480 OA
ATOM      8  H   UNK     1      10.122   2.371  20.569  0.00  0.00    +0.295 HD
ENDBRANCH   5   7
ENDBRANCH   1   5
BRANCH   1   9
ATOM      9  C   UNK     1       9.281  -1.300  21.868  0.00  0.00    +0.147 C 
BRANCH   9  10
ATOM     10  S   UNK     1       8.929  -2.326  23.261  0.00  0.00    +0.113 S 
ATOM     11  O   UNK     1      10.147  -2.982  23.819  0.00  0.00    -0.244 OA
ENDBRANCH   9  10
ENDBRANCH   1   9
TORSDOF 5
ENDMDL
MODEL 6
REMARK VINA RESULT:      -3.3      2.390      2.565
REMARK  Name = 
REMARK  5 active torsions:
REMARK  status: ('A' for Active; 'I' for Inactive)
REMARK    1  A    between atoms: N_1  and  C_2
REMARK    2  A    between atoms: C_2  and  C_4
REMARK    3  A    between atoms: C_2  and  C_7
REMARK    4  A    between atoms: C_4  and  S_5
REMARK    5  A    between atoms: C_7  and  O_8
REMARK                            x       y       z     vdW  Elec       q    Type
REMARK                         _______ _______ _______ _____ _____    ______ ____
ROOT
ATOM      1  C   UNK     1       8.735  -4.031  24.709  0.00  0.00    +0.174 C 
ENDROOT
BRANCH   1   2
ATOM      2  N   UNK     1       9.952  -3.357  24.139  0.00  0.00    -0.318 NA
ATOM      3  H   UNK     1      10.339  -2.726  24.856  0.00  0.00    +0.119 HD
ATOM      4  H   UNK     1      10.695  -4.074  24.104  0.00  0.00    +0.119 HD
ENDBRANCH   1   2
BRANCH   1   5
ATOM      5  C   UNK     1       9.175  -4.808  25.958  0.00  0.00    +0.323 C 
ATOM      6  O   UNK     1       8.602  -4.778  27.035  0.00  0.00    -0.249 OA
BRANCH   5   7
ATOM      7  O   UNK     1      10.288  -5.545  25.716  0.00  0.00    -0.480 OA
ATOM      8  H   UNK     1      10.141  -6.417  26.165  0.00  0.00    +0.295 HD
ENDBRANCH   5   7
ENDBRANCH   1   5
BRANCH   1   9
ATOM      9  C   UNK     1       8.019  -5.025  23.788  0.00  0.00    +0.147 C 
BRANCH   9  10
ATOM     10  S   UNK     1       7.130  -4.212  22.497  0.00  0.00    +0.113 S 
ATOM     11  O   UNK     1       7.688  -2.868  22.168  0.00  0.00    -0.244 OA
ENDBRANCH   9  10
ENDBRANCH   1   9
TORSDOF 5
ENDMDL
MODEL 7
REMARK VINA RESULT:      -3.3      2.422      3.722
REMARK  Name = 
REMARK  5 active torsions:
REMARK  status: ('A' for Active; 'I' for Inactive)
REMARK    1  A    between atoms: N_1  and  C_2
REMARK    2  A    between atoms: C_2  and  C_4
REMARK    3  A    between atoms: C_2  and  C_7
REMARK    4  A    between atoms: C_4  and  S_5
REMARK    5  A    between atoms: C_7  and  O_8
REMARK                            x       y       z     vdW  Elec       q    Type
REMARK                         _______ _______ _______ _____ _____    ______ ____
ROOT
ATOM      1  C   UNK     1       8.140  -5.476  25.687  0.00  0.00    +0.174 C 
ENDROOT
BRANCH   1   2
ATOM      2  N   UNK     1       8.259  -5.574  27.182  0.00  0.00    -0.318 NA
ATOM      3  H   UNK     1       8.378  -4.622  27.560  0.00  0.00    +0.119 HD
ATOM      4  H   UNK     1       7.316  -5.797  27.538  0.00  0.00    +0.119 HD
ENDBRANCH   1   2
BRANCH   1   5
ATOM      5  C   UNK     1       9.333  -4.655  25.177  0.00  0.00    +0.323 C 
ATOM      6  O   UNK     1       9.274  -3.491  24.816  0.00  0.00    -0.249 OA
BRANCH   5   7
ATOM      7  O   UNK     1      10.476  -5.386  25.182  0.00  0.00    -0.480 OA
ATOM      8  H   UNK     1      10.234  -6.268  25.568  0.00  0.00    +0.295 HD
ENDBRANCH   5   7
ENDBRANCH   1   5
BRANCH   1   9
ATOM      9  C   UNK     1       6.869  -4.805  25.153  0.00  0.00    +0.147 C 
BRANCH   9  10
ATOM     10  S   UNK     1       5.423  -5.345  26.010  0.00  0.00    +0.113 S 
ATOM     11  O   UNK     1       5.559  -6.726  26.559  0.00  0.00    -0.244 OA
ENDBRANCH   9  10
ENDBRANCH   1   9
TORSDOF 5
ENDMDL
MODEL 8
REMARK VINA RESULT:      -3.3      6.083      7.306
REMARK  Name = 
REMARK  5 active torsions:
REMARK  status: ('A' for Active; 'I' for Inactive)
REMARK    1  A    between atoms: N_1  and  C_2
REMARK    2  A    between atoms: C_2  and  C_4
REMARK    3  A    between atoms: C_2  and  C_7
REMARK    4  A    between atoms: C_4  and  S_5
REMARK    5  A    between atoms: C_7  and  O_8
REMARK                            x       y       z     vdW  Elec       q    Type
REMARK                         _______ _______ _______ _____ _____    ______ ____
ROOT
ATOM      1  C   UNK     1       9.662   1.276  23.714  0.00  0.00    +0.174 C 
ENDROOT
BRANCH   1   2
ATOM      2  N   UNK     1       8.255   1.155  23.196  0.00  0.00    -0.318 NA
ATOM      3  H   UNK     1       7.652   0.840  23.970  0.00  0.00    +0.119 HD
ATOM      4  H   UNK     1       7.905   2.118  23.069  0.00  0.00    +0.119 HD
ENDBRANCH   1   2
BRANCH   1   5
ATOM      5  C   UNK     1      10.354   2.397  22.926  0.00  0.00    +0.323 C 
ATOM      6  O   UNK     1      11.037   3.277  23.422  0.00  0.00    -0.249 OA
BRANCH   5   7
ATOM      7  O   UNK     1      10.115   2.286  21.594  0.00  0.00    -0.480 OA
ATOM      8  H   UNK     1      10.688   2.968  21.157  0.00  0.00    +0.295 HD
ENDBRANCH   5   7
ENDBRANCH   1   5
BRANCH   1   9
ATOM      9  C   UNK     1      10.539   0.025  23.584  0.00  0.00    +0.147 C 
BRANCH   9  10
ATOM     10  S   UNK     1       9.845  -1.160  22.474  0.00  0.00    +0.113 S 
ATOM     11  O   UNK     1       9.410  -0.555  21.181  0.00  0.00    -0.244 OA
ENDBRANCH   9  10
ENDBRANCH   1   9
TORSDOF 5
ENDMDL
MODEL 9
REMARK VINA RESULT:      -3.3      6.151      6.820
REMARK  Name = 
REMARK  5 active torsions:
REMARK  status: ('A' for Active; 'I' for Inactive)
REMARK    1  A    between atoms: N_1  and  C_2
REMARK    2  A    between atoms: C_2  and  C_4
REMARK    3  A    between atoms: C_2  and  C_7
REMARK    4  A    between atoms: C_4  and  S_5
REMARK    5  A    between atoms: C_7  and  O_8
REMARK                            x       y       z     vdW  Elec       q    Type
REMARK                         _______ _______ _______ _____ _____    ______ ____
ROOT
ATOM      1  C   UNK     1       9.829   0.705  21.844  0.00  0.00    +0.174 C 
ENDROOT
BRANCH   1   2
ATOM      2  N   UNK     1       8.779   1.537  21.161  0.00  0.00    -0.318 NA
ATOM      3  H   UNK     1       8.009   0.915  20.875  0.00  0.00    +0.119 HD
ATOM      4  H   UNK     1       8.310   2.084  21.901  0.00  0.00    +0.119 HD
ENDBRANCH   1   2
BRANCH   1   5
ATOM      5  C   UNK     1       9.311  -0.739  21.905  0.00  0.00    +0.323 C 
ATOM      6  O   UNK     1       8.211  -1.067  22.319  0.00  0.00    -0.249 OA
BRANCH   5   7
ATOM      7  O   UNK     1      10.232  -1.616  21.433  0.00  0.00    -0.480 OA
ATOM      8  H   UNK     1      10.651  -1.176  20.648  0.00  0.00    +0.295 HD
ENDBRANCH   5   7
ENDBRANCH   1   5
BRANCH   1   9
ATOM      9  C   UNK     1      10.190   1.116  23.276  0.00  0.00    +0.147 C 
BRANCH   9  10
ATOM     10  S   UNK     1      10.444   2.857  23.422  0.00  0.00    +0.113 S 
ATOM     11  O   UNK     1       9.172   3.634  23.363  0.00  0.00    -0.244 OA
ENDBRANCH   9  10
ENDBRANCH   1   9
TORSDOF 5
ENDMDL
