MODEL 1
REMARK VINA RESULT:      -5.1      0.000      0.000
REMARK  Name = 
REMARK  26 active torsions:
REMARK  status: ('A' for Active; 'I' for Inactive)
REMARK    1  A    between atoms: C_2  and  O_3
REMARK    2  A    between atoms: C_2  and  C_4
REMARK    3  A    between atoms: C_2  and  C_23
REMARK    4  A    between atoms: C_4  and  O_5
REMARK    5  A    between atoms: O_5  and  C_6
REMARK    6  A    between atoms: C_6  and  C_8
REMARK    7  A    between atoms: C_8  and  C_9
REMARK    8  A    between atoms: C_9  and  C_10
REMARK    9  A    between atoms: C_10  and  C_11
REMARK   10  A    between atoms: C_11  and  C_12
REMARK   11  A    between atoms: C_12  and  C_13
REMARK   12  A    between atoms: C_13  and  C_14
REMARK   13  A    between atoms: C_14  and  C_15
REMARK   14  A    between atoms: C_15  and  C_16
REMARK   15  A    between atoms: C_16  and  C_17
REMARK   16  A    between atoms: C_17  and  C_18
REMARK   17  A    between atoms: C_18  and  C_19
REMARK   18  A    between atoms: C_19  and  C_20
REMARK   19  A    between atoms: C_20  and  C_21
REMARK   20  A    between atoms: C_21  and  C_22
REMARK   21  A    between atoms: C_23  and  O_25
REMARK   22  A    between atoms: C_23  and  C_26
REMARK   23  A    between atoms: C_26  and  O_27
REMARK   24  A    between atoms: C_28  and  O_29
REMARK   25  A    between atoms: C_28  and  C_30
REMARK   26  A    between atoms: C_30  and  O_31
REMARK                            x       y       z     vdW  Elec       q    Type
REMARK                         _______ _______ _______ _____ _____    ______ ____
ROOT
ATOM      1  O   UNL     1       6.294  -0.244  24.798  0.00  0.00    -0.462 OA
ENDROOT
BRANCH   1   2
ATOM      2  C   UNL     1       5.445  -1.268  25.093  0.00  0.00    +0.307 C 
ATOM      3  O   UNL     1       4.475  -1.179  25.831  0.00  0.00    -0.251 OA
BRANCH   2   4
ATOM      4  C   UNL     1       5.749  -2.437  24.200  0.00  0.00    +0.120 C 
BRANCH   4   5
ATOM      5  C   UNL     1       6.385  -1.936  22.914  0.00  0.00    +0.011 C 
BRANCH   5   6
ATOM      6  C   UNL     1       7.235  -3.013  22.265  0.00  0.00    +0.001 C 
BRANCH   6   7
ATOM      7  C   UNL     1       6.330  -4.072  21.657  0.00  0.00    +0.000 C 
BRANCH   7   8
ATOM      8  C   UNL     1       6.989  -5.438  21.722  0.00  0.00    +0.000 C 
BRANCH   8   9
ATOM      9  C   UNL     1       6.172  -6.372  22.601  0.00  0.00    +0.000 C 
BRANCH   9  10
ATOM     10  C   UNL     1       4.792  -5.784  22.852  0.00  0.00    -0.000 C 
BRANCH  10  11
ATOM     11  C   UNL     1       4.078  -6.554  23.952  0.00  0.00    -0.000 C 
BRANCH  11  12
ATOM     12  C   UNL     1       4.872  -6.478  25.249  0.00  0.00    -0.000 C 
BRANCH  12  13
ATOM     13  C   UNL     1       4.373  -5.334  26.119  0.00  0.00    -0.000 C 
BRANCH  13  14
ATOM     14  C   UNL     1       5.483  -4.836  27.037  0.00  0.00    -0.000 C 
BRANCH  14  15
ATOM     15  C   UNL     1       6.851  -5.249  26.504  0.00  0.00    -0.000 C 
BRANCH  15  16
ATOM     16  C   UNL     1       7.863  -4.122  26.687  0.00  0.00    -0.000 C 
BRANCH  16  17
ATOM     17  C   UNL     1       8.874  -4.103  25.544  0.00  0.00    -0.003 C 
ATOM     18  C   UNL     1       8.975  -5.465  24.879  0.00  0.00    +0.004 C 
ENDBRANCH  16  17
ENDBRANCH  15  16
ENDBRANCH  14  15
ENDBRANCH  13  14
ENDBRANCH  12  13
ENDBRANCH  11  12
ENDBRANCH  10  11
ENDBRANCH   9  10
ENDBRANCH   8   9
ENDBRANCH   7   8
ENDBRANCH   6   7
ENDBRANCH   5   6
ENDBRANCH   4   5
ENDBRANCH   2   4
ENDBRANCH   1   2
BRANCH   1  19
ATOM     19  C   UNL     1       7.192   0.027  25.871  0.00  0.00    +0.266 C 
BRANCH  19  20
ATOM     20  C   UNL     1       8.625  -0.493  25.690  0.00  0.00    +0.188 C 
BRANCH  20  21
ATOM     21  O   UNL     1       9.256  -0.415  26.984  0.00  0.00    -0.385 OA
ATOM     22  H   UNL     1       8.879  -1.131  27.527  0.00  0.00    +0.210 HD
ENDBRANCH  20  21
BRANCH  20  23
ATOM     23  C   UNL     1       9.413   0.333  24.654  0.00  0.00    +0.215 C 
BRANCH  23  24
ATOM     24  O   UNL     1      10.715   0.640  25.222  0.00  0.00    -0.381 OA
ATOM     25  H   UNL     1      11.258   0.969  24.482  0.00  0.00    +0.210 HD
ENDBRANCH  23  24
BRANCH  23  26
ATOM     26  C   UNL     1       9.707  -0.437  23.368  0.00  0.00    +0.174 C 
ATOM     27  C   UNL     1       9.555  -0.023  22.105  0.00  0.00    +0.242 C 
BRANCH  26  28
ATOM     28  O   UNL     1      10.269  -1.703  23.567  0.00  0.00    -0.505 OA
ATOM     29  H   UNL     1      10.995  -1.751  22.902  0.00  0.00    +0.292 HD
ENDBRANCH  26  28
BRANCH  27  30
ATOM     30  O   UNL     1       9.896  -0.887  21.060  0.00  0.00    -0.499 OA
ATOM     31  H   UNL     1      10.678  -1.372  21.405  0.00  0.00    +0.293 HD
ENDBRANCH  27  30
BRANCH  27  32
ATOM     32  C   UNL     1       9.076   1.341  21.726  0.00  0.00    +0.375 C 
ATOM     33  O   UNL     1       7.915   1.681  21.598  0.00  0.00    -0.242 OA
BRANCH  32  34
ATOM     34  O   UNL     1      10.142   2.164  21.582  0.00  0.00    -0.475 OA
ATOM     35  H   UNL     1       9.912   2.878  20.944  0.00  0.00    +0.296 HD
ENDBRANCH  32  34
ENDBRANCH  27  32
ENDBRANCH  23  26
ENDBRANCH  20  23
ENDBRANCH  19  20
ENDBRANCH   1  19
TORSDOF 25
ENDMDL
MODEL 2
REMARK VINA RESULT:      -5.0      3.243      7.638
REMARK  Name = 
REMARK  26 active torsions:
REMARK  status: ('A' for Active; 'I' for Inactive)
REMARK    1  A    between atoms: C_2  and  O_3
REMARK    2  A    between atoms: C_2  and  C_4
REMARK    3  A    between atoms: C_2  and  C_23
REMARK    4  A    between atoms: C_4  and  O_5
REMARK    5  A    between atoms: O_5  and  C_6
REMARK    6  A    between atoms: C_6  and  C_8
REMARK    7  A    between atoms: C_8  and  C_9
REMARK    8  A    between atoms: C_9  and  C_10
REMARK    9  A    between atoms: C_10  and  C_11
REMARK   10  A    between atoms: C_11  and  C_12
REMARK   11  A    between atoms: C_12  and  C_13
REMARK   12  A    between atoms: C_13  and  C_14
REMARK   13  A    between atoms: C_14  and  C_15
REMARK   14  A    between atoms: C_15  and  C_16
REMARK   15  A    between atoms: C_16  and  C_17
REMARK   16  A    between atoms: C_17  and  C_18
REMARK   17  A    between atoms: C_18  and  C_19
REMARK   18  A    between atoms: C_19  and  C_20
REMARK   19  A    between atoms: C_20  and  C_21
REMARK   20  A    between atoms: C_21  and  C_22
REMARK   21  A    between atoms: C_23  and  O_25
REMARK   22  A    between atoms: C_23  and  C_26
REMARK   23  A    between atoms: C_26  and  O_27
REMARK   24  A    between atoms: C_28  and  O_29
REMARK   25  A    between atoms: C_28  and  C_30
REMARK   26  A    between atoms: C_30  and  O_31
REMARK                            x       y       z     vdW  Elec       q    Type
REMARK                         _______ _______ _______ _____ _____    ______ ____
ROOT
ATOM      1  O   UNL     1       4.685  -4.187  23.100  0.00  0.00    -0.462 OA
ENDROOT
BRANCH   1   2
ATOM      2  C   UNL     1       5.513  -3.426  22.329  0.00  0.00    +0.307 C 
ATOM      3  O   UNL     1       5.612  -3.515  21.115  0.00  0.00    -0.251 OA
BRANCH   2   4
ATOM      4  C   UNL     1       6.096  -2.324  23.167  0.00  0.00    +0.120 C 
BRANCH   4   5
ATOM      5  C   UNL     1       5.393  -2.290  24.514  0.00  0.00    +0.011 C 
BRANCH   5   6
ATOM      6  C   UNL     1       6.393  -2.228  25.654  0.00  0.00    +0.001 C 
BRANCH   6   7
ATOM      7  C   UNL     1       7.801  -2.370  25.100  0.00  0.00    +0.000 C 
BRANCH   7   8
ATOM      8  C   UNL     1       8.714  -1.307  25.685  0.00  0.00    +0.000 C 
BRANCH   8   9
ATOM      9  C   UNL     1       9.931  -1.115  24.794  0.00  0.00    +0.000 C 
BRANCH   9  10
ATOM     10  C   UNL     1       9.839  -2.021  23.576  0.00  0.00    -0.000 C 
BRANCH  10  11
ATOM     11  C   UNL     1      10.123  -1.235  22.306  0.00  0.00    -0.000 C 
BRANCH  11  12
ATOM     12  C   UNL     1       8.867  -0.512  21.841  0.00  0.00    -0.000 C 
BRANCH  12  13
ATOM     13  C   UNL     1       9.205   0.885  21.340  0.00  0.00    -0.000 C 
BRANCH  13  14
ATOM     14  C   UNL     1      10.076   1.620  22.352  0.00  0.00    -0.000 C 
BRANCH  14  15
ATOM     15  C   UNL     1       9.275   2.701  23.069  0.00  0.00    -0.000 C 
BRANCH  15  16
ATOM     16  C   UNL     1       8.991   2.295  24.512  0.00  0.00    -0.000 C 
BRANCH  16  17
ATOM     17  C   UNL     1       7.506   2.426  24.837  0.00  0.00    -0.003 C 
ATOM     18  C   UNL     1       6.700   1.327  24.166  0.00  0.00    +0.004 C 
ENDBRANCH  16  17
ENDBRANCH  15  16
ENDBRANCH  14  15
ENDBRANCH  13  14
ENDBRANCH  12  13
ENDBRANCH  11  12
ENDBRANCH  10  11
ENDBRANCH   9  10
ENDBRANCH   8   9
ENDBRANCH   7   8
ENDBRANCH   6   7
ENDBRANCH   5   6
ENDBRANCH   4   5
ENDBRANCH   2   4
ENDBRANCH   1   2
BRANCH   1  19
ATOM     19  C   UNL     1       4.819  -5.576  22.812  0.00  0.00    +0.266 C 
BRANCH  19  20
ATOM     20  C   UNL     1       4.956  -6.500  24.030  0.00  0.00    +0.188 C 
BRANCH  20  21
ATOM     21  O   UNL     1       4.024  -7.583  23.830  0.00  0.00    -0.385 OA
ATOM     22  H   UNL     1       4.515  -8.410  23.983  0.00  0.00    +0.210 HD
ENDBRANCH  20  21
BRANCH  20  23
ATOM     23  C   UNL     1       4.653  -5.763  25.350  0.00  0.00    +0.215 C 
BRANCH  23  24
ATOM     24  O   UNL     1       3.300  -5.239  25.271  0.00  0.00    -0.381 OA
ATOM     25  H   UNL     1       2.988  -5.169  26.192  0.00  0.00    +0.210 HD
ENDBRANCH  23  24
BRANCH  23  26
ATOM     26  C   UNL     1       4.656  -6.686  26.568  0.00  0.00    +0.174 C 
ATOM     27  C   UNL     1       5.471  -6.649  27.629  0.00  0.00    +0.242 C 
BRANCH  26  28
ATOM     28  O   UNL     1       3.625  -7.632  26.580  0.00  0.00    -0.505 OA
ATOM     29  H   UNL     1       4.039  -8.442  26.200  0.00  0.00    +0.292 HD
ENDBRANCH  26  28
BRANCH  27  30
ATOM     30  O   UNL     1       5.298  -7.587  28.651  0.00  0.00    -0.499 OA
ATOM     31  H   UNL     1       4.413  -7.973  28.467  0.00  0.00    +0.293 HD
ENDBRANCH  27  30
BRANCH  27  32
ATOM     32  C   UNL     1       6.547  -5.630  27.820  0.00  0.00    +0.375 C 
ATOM     33  O   UNL     1       7.696  -5.723  27.432  0.00  0.00    -0.242 OA
BRANCH  32  34
ATOM     34  O   UNL     1       6.034  -4.555  28.465  0.00  0.00    -0.475 OA
ATOM     35  H   UNL     1       5.073  -4.703  28.619  0.00  0.00    +0.296 HD
ENDBRANCH  32  34
ENDBRANCH  27  32
ENDBRANCH  23  26
ENDBRANCH  20  23
ENDBRANCH  19  20
ENDBRANCH   1  19
TORSDOF 25
ENDMDL
MODEL 3
REMARK VINA RESULT:      -5.0      3.248      7.989
REMARK  Name = 
REMARK  26 active torsions:
REMARK  status: ('A' for Active; 'I' for Inactive)
REMARK    1  A    between atoms: C_2  and  O_3
REMARK    2  A    between atoms: C_2  and  C_4
REMARK    3  A    between atoms: C_2  and  C_23
REMARK    4  A    between atoms: C_4  and  O_5
REMARK    5  A    between atoms: O_5  and  C_6
REMARK    6  A    between atoms: C_6  and  C_8
REMARK    7  A    between atoms: C_8  and  C_9
REMARK    8  A    between atoms: C_9  and  C_10
REMARK    9  A    between atoms: C_10  and  C_11
REMARK   10  A    between atoms: C_11  and  C_12
REMARK   11  A    between atoms: C_12  and  C_13
REMARK   12  A    between atoms: C_13  and  C_14
REMARK   13  A    between atoms: C_14  and  C_15
REMARK   14  A    between atoms: C_15  and  C_16
REMARK   15  A    between atoms: C_16  and  C_17
REMARK   16  A    between atoms: C_17  and  C_18
REMARK   17  A    between atoms: C_18  and  C_19
REMARK   18  A    between atoms: C_19  and  C_20
REMARK   19  A    between atoms: C_20  and  C_21
REMARK   20  A    between atoms: C_21  and  C_22
REMARK   21  A    between atoms: C_23  and  O_25
REMARK   22  A    between atoms: C_23  and  C_26
REMARK   23  A    between atoms: C_26  and  O_27
REMARK   24  A    between atoms: C_28  and  O_29
REMARK   25  A    between atoms: C_28  and  C_30
REMARK   26  A    between atoms: C_30  and  O_31
REMARK                            x       y       z     vdW  Elec       q    Type
REMARK                         _______ _______ _______ _____ _____    ______ ____
ROOT
ATOM      1  O   UNL     1       8.315  -1.521  22.553  0.00  0.00    -0.462 OA
ENDROOT
BRANCH   1   2
ATOM      2  C   UNL     1       9.530  -1.070  22.132  0.00  0.00    +0.307 C 
ATOM      3  O   UNL     1      10.548  -1.745  22.091  0.00  0.00    -0.251 OA
BRANCH   2   4
ATOM      4  C   UNL     1       9.368   0.291  21.518  0.00  0.00    +0.120 C 
BRANCH   4   5
ATOM      5  C   UNL     1      10.192   1.298  22.303  0.00  0.00    +0.011 C 
BRANCH   5   6
ATOM      6  C   UNL     1      10.263   0.926  23.772  0.00  0.00    +0.001 C 
BRANCH   6   7
ATOM      7  C   UNL     1       9.468   1.933  24.587  0.00  0.00    +0.000 C 
BRANCH   7   8
ATOM      8  C   UNL     1       8.079   1.399  24.888  0.00  0.00    +0.000 C 
BRANCH   8   9
ATOM      9  C   UNL     1       7.025   2.387  24.413  0.00  0.00    +0.000 C 
BRANCH   9  10
ATOM     10  C   UNL     1       6.454   1.944  23.075  0.00  0.00    -0.000 C 
BRANCH  10  11
ATOM     11  C   UNL     1       6.489   3.090  22.076  0.00  0.00    -0.000 C 
BRANCH  11  12
ATOM     12  C   UNL     1       7.667   4.009  22.368  0.00  0.00    -0.000 C 
BRANCH  12  13
ATOM     13  C   UNL     1       7.255   5.468  22.236  0.00  0.00    -0.000 C 
BRANCH  13  14
ATOM     14  C   UNL     1       8.305   6.379  22.859  0.00  0.00    -0.000 C 
BRANCH  14  15
ATOM     15  C   UNL     1       9.147   5.617  23.876  0.00  0.00    -0.000 C 
BRANCH  15  16
ATOM     16  C   UNL     1      10.622   5.984  23.741  0.00  0.00    -0.000 C 
BRANCH  16  17
ATOM     17  C   UNL     1      11.465   4.756  23.410  0.00  0.00    -0.003 C 
ATOM     18  C   UNL     1      12.926   5.129  23.226  0.00  0.00    +0.004 C 
ENDBRANCH  16  17
ENDBRANCH  15  16
ENDBRANCH  14  15
ENDBRANCH  13  14
ENDBRANCH  12  13
ENDBRANCH  11  12
ENDBRANCH  10  11
ENDBRANCH   9  10
ENDBRANCH   8   9
ENDBRANCH   7   8
ENDBRANCH   6   7
ENDBRANCH   5   6
ENDBRANCH   4   5
ENDBRANCH   2   4
ENDBRANCH   1   2
BRANCH   1  19
ATOM     19  C   UNL     1       8.408  -2.805  23.165  0.00  0.00    +0.266 C 
BRANCH  19  20
ATOM     20  C   UNL     1       7.078  -3.539  23.381  0.00  0.00    +0.188 C 
BRANCH  20  21
ATOM     21  O   UNL     1       6.288  -2.710  24.258  0.00  0.00    -0.385 OA
ATOM     22  H   UNL     1       5.686  -3.303  24.742  0.00  0.00    +0.210 HD
ENDBRANCH  20  21
BRANCH  20  23
ATOM     23  C   UNL     1       7.283  -4.937  24.000  0.00  0.00    +0.215 C 
BRANCH  23  24
ATOM     24  O   UNL     1       7.658  -5.849  22.932  0.00  0.00    -0.381 OA
ATOM     25  H   UNL     1       7.878  -6.693  23.369  0.00  0.00    +0.210 HD
ENDBRANCH  23  24
BRANCH  23  26
ATOM     26  C   UNL     1       8.437  -4.989  24.998  0.00  0.00    +0.174 C 
ATOM     27  C   UNL     1       8.408  -4.715  26.307  0.00  0.00    +0.242 C 
BRANCH  26  28
ATOM     28  O   UNL     1       9.645  -5.450  24.463  0.00  0.00    -0.505 OA
ATOM     29  H   UNL     1      10.287  -5.356  25.205  0.00  0.00    +0.292 HD
ENDBRANCH  26  28
BRANCH  27  30
ATOM     30  O   UNL     1       9.585  -4.836  27.053  0.00  0.00    -0.499 OA
ATOM     31  H   UNL     1       9.405  -5.593  27.653  0.00  0.00    +0.293 HD
ENDBRANCH  27  30
BRANCH  27  32
ATOM     32  C   UNL     1       7.174  -4.321  27.051  0.00  0.00    +0.375 C 
ATOM     33  O   UNL     1       6.537  -3.297  26.888  0.00  0.00    -0.242 OA
BRANCH  32  34
ATOM     34  O   UNL     1       6.842  -5.307  27.919  0.00  0.00    -0.475 OA
ATOM     35  H   UNL     1       6.129  -5.857  27.522  0.00  0.00    +0.296 HD
ENDBRANCH  32  34
ENDBRANCH  27  32
ENDBRANCH  23  26
ENDBRANCH  20  23
ENDBRANCH  19  20
ENDBRANCH   1  19
TORSDOF 25
ENDMDL
MODEL 4
REMARK VINA RESULT:      -4.9      3.128      7.450
REMARK  Name = 
REMARK  26 active torsions:
REMARK  status: ('A' for Active; 'I' for Inactive)
REMARK    1  A    between atoms: C_2  and  O_3
REMARK    2  A    between atoms: C_2  and  C_4
REMARK    3  A    between atoms: C_2  and  C_23
REMARK    4  A    between atoms: C_4  and  O_5
REMARK    5  A    between atoms: O_5  and  C_6
REMARK    6  A    between atoms: C_6  and  C_8
REMARK    7  A    between atoms: C_8  and  C_9
REMARK    8  A    between atoms: C_9  and  C_10
REMARK    9  A    between atoms: C_10  and  C_11
REMARK   10  A    between atoms: C_11  and  C_12
REMARK   11  A    between atoms: C_12  and  C_13
REMARK   12  A    between atoms: C_13  and  C_14
REMARK   13  A    between atoms: C_14  and  C_15
REMARK   14  A    between atoms: C_15  and  C_16
REMARK   15  A    between atoms: C_16  and  C_17
REMARK   16  A    between atoms: C_17  and  C_18
REMARK   17  A    between atoms: C_18  and  C_19
REMARK   18  A    between atoms: C_19  and  C_20
REMARK   19  A    between atoms: C_20  and  C_21
REMARK   20  A    between atoms: C_21  and  C_22
REMARK   21  A    between atoms: C_23  and  O_25
REMARK   22  A    between atoms: C_23  and  C_26
REMARK   23  A    between atoms: C_26  and  O_27
REMARK   24  A    between atoms: C_28  and  O_29
REMARK   25  A    between atoms: C_28  and  C_30
REMARK   26  A    between atoms: C_30  and  O_31
REMARK                            x       y       z     vdW  Elec       q    Type
REMARK                         _______ _______ _______ _____ _____    ______ ____
ROOT
ATOM      1  O   UNL     1       4.619  -4.393  22.839  0.00  0.00    -0.462 OA
ENDROOT
BRANCH   1   2
ATOM      2  C   UNL     1       5.649  -3.796  22.175  0.00  0.00    +0.307 C 
ATOM      3  O   UNL     1       5.730  -3.696  20.960  0.00  0.00    -0.251 OA
BRANCH   2   4
ATOM      4  C   UNL     1       6.530  -3.087  23.163  0.00  0.00    +0.120 C 
BRANCH   4   5
ATOM      5  C   UNL     1       7.686  -3.996  23.549  0.00  0.00    +0.011 C 
BRANCH   5   6
ATOM      6  C   UNL     1       8.563  -3.351  24.606  0.00  0.00    +0.001 C 
BRANCH   6   7
ATOM      7  C   UNL     1       9.673  -2.563  23.929  0.00  0.00    +0.000 C 
BRANCH   7   8
ATOM      8  C   UNL     1       9.483  -1.074  24.156  0.00  0.00    +0.000 C 
BRANCH   8   9
ATOM      9  C   UNL     1       9.246  -0.795  25.632  0.00  0.00    +0.000 C 
BRANCH   9  10
ATOM     10  C   UNL     1       8.184   0.280  25.800  0.00  0.00    -0.000 C 
BRANCH  10  11
ATOM     11  C   UNL     1       6.793  -0.322  25.672  0.00  0.00    -0.000 C 
BRANCH  11  12
ATOM     12  C   UNL     1       5.945   0.507  24.718  0.00  0.00    -0.000 C 
BRANCH  12  13
ATOM     13  C   UNL     1       6.822   1.425  23.880  0.00  0.00    -0.000 C 
BRANCH  13  14
ATOM     14  C   UNL     1       6.886   0.935  22.439  0.00  0.00    -0.000 C 
BRANCH  14  15
ATOM     15  C   UNL     1       7.829   1.804  21.613  0.00  0.00    -0.000 C 
BRANCH  15  16
ATOM     16  C   UNL     1       8.713   2.654  22.521  0.00  0.00    -0.000 C 
BRANCH  16  17
ATOM     17  C   UNL     1      10.161   2.175  22.483  0.00  0.00    -0.003 C 
ATOM     18  C   UNL     1      10.791   2.227  23.864  0.00  0.00    +0.004 C 
ENDBRANCH  16  17
ENDBRANCH  15  16
ENDBRANCH  14  15
ENDBRANCH  13  14
ENDBRANCH  12  13
ENDBRANCH  11  12
ENDBRANCH  10  11
ENDBRANCH   9  10
ENDBRANCH   8   9
ENDBRANCH   7   8
ENDBRANCH   6   7
ENDBRANCH   5   6
ENDBRANCH   4   5
ENDBRANCH   2   4
ENDBRANCH   1   2
BRANCH   1  19
ATOM     19  C   UNL     1       4.630  -5.809  22.672  0.00  0.00    +0.266 C 
BRANCH  19  20
ATOM     20  C   UNL     1       4.791  -6.631  23.959  0.00  0.00    +0.188 C 
BRANCH  20  21
ATOM     21  O   UNL     1       3.767  -7.646  23.927  0.00  0.00    -0.385 OA
ATOM     22  H   UNL     1       4.132  -8.430  24.377  0.00  0.00    +0.210 HD
ENDBRANCH  20  21
BRANCH  20  23
ATOM     23  C   UNL     1       4.648  -5.759  25.223  0.00  0.00    +0.215 C 
BRANCH  23  24
ATOM     24  O   UNL     1       3.287  -5.250  25.265  0.00  0.00    -0.381 OA
ATOM     25  H   UNL     1       3.025  -5.270  26.204  0.00  0.00    +0.210 HD
ENDBRANCH  23  24
BRANCH  23  26
ATOM     26  C   UNL     1       4.824  -6.547  26.519  0.00  0.00    +0.174 C 
ATOM     27  C   UNL     1       5.783  -6.414  27.442  0.00  0.00    +0.242 C 
BRANCH  26  28
ATOM     28  O   UNL     1       3.802  -7.467  26.781  0.00  0.00    -0.505 OA
ATOM     29  H   UNL     1       3.286  -7.498  25.942  0.00  0.00    +0.292 HD
ENDBRANCH  26  28
BRANCH  27  30
ATOM     30  O   UNL     1       5.756  -7.235  28.574  0.00  0.00    -0.499 OA
ATOM     31  H   UNL     1       5.602  -6.607  29.314  0.00  0.00    +0.293 HD
ENDBRANCH  27  30
BRANCH  27  32
ATOM     32  C   UNL     1       6.879  -5.402  27.367  0.00  0.00    +0.375 C 
ATOM     33  O   UNL     1       6.761  -4.204  27.550  0.00  0.00    -0.242 OA
BRANCH  32  34
ATOM     34  O   UNL     1       8.049  -6.030  27.100  0.00  0.00    -0.475 OA
ATOM     35  H   UNL     1       8.334  -6.529  27.899  0.00  0.00    +0.296 HD
ENDBRANCH  32  34
ENDBRANCH  27  32
ENDBRANCH  23  26
ENDBRANCH  20  23
ENDBRANCH  19  20
ENDBRANCH   1  19
TORSDOF 25
ENDMDL
MODEL 5
REMARK VINA RESULT:      -4.9      2.096      4.080
REMARK  Name = 
REMARK  26 active torsions:
REMARK  status: ('A' for Active; 'I' for Inactive)
REMARK    1  A    between atoms: C_2  and  O_3
REMARK    2  A    between atoms: C_2  and  C_4
REMARK    3  A    between atoms: C_2  and  C_23
REMARK    4  A    between atoms: C_4  and  O_5
REMARK    5  A    between atoms: O_5  and  C_6
REMARK    6  A    between atoms: C_6  and  C_8
REMARK    7  A    between atoms: C_8  and  C_9
REMARK    8  A    between atoms: C_9  and  C_10
REMARK    9  A    between atoms: C_10  and  C_11
REMARK   10  A    between atoms: C_11  and  C_12
REMARK   11  A    between atoms: C_12  and  C_13
REMARK   12  A    between atoms: C_13  and  C_14
REMARK   13  A    between atoms: C_14  and  C_15
REMARK   14  A    between atoms: C_15  and  C_16
REMARK   15  A    between atoms: C_16  and  C_17
REMARK   16  A    between atoms: C_17  and  C_18
REMARK   17  A    between atoms: C_18  and  C_19
REMARK   18  A    between atoms: C_19  and  C_20
REMARK   19  A    between atoms: C_20  and  C_21
REMARK   20  A    between atoms: C_21  and  C_22
REMARK   21  A    between atoms: C_23  and  O_25
REMARK   22  A    between atoms: C_23  and  C_26
REMARK   23  A    between atoms: C_26  and  O_27
REMARK   24  A    between atoms: C_28  and  O_29
REMARK   25  A    between atoms: C_28  and  C_30
REMARK   26  A    between atoms: C_30  and  O_31
REMARK                            x       y       z     vdW  Elec       q    Type
REMARK                         _______ _______ _______ _____ _____    ______ ____
ROOT
ATOM      1  O   UNL     1       9.300  -0.266  22.980  0.00  0.00    -0.462 OA
ENDROOT
BRANCH   1   2
ATOM      2  C   UNL     1       9.867  -1.494  23.148  0.00  0.00    +0.307 C 
ATOM      3  O   UNL     1      10.778  -1.940  22.467  0.00  0.00    -0.251 OA
BRANCH   2   4
ATOM      4  C   UNL     1       9.366  -2.101  24.427  0.00  0.00    +0.120 C 
BRANCH   4   5
ATOM      5  C   UNL     1       8.542  -1.072  25.184  0.00  0.00    +0.011 C 
BRANCH   5   6
ATOM      6  C   UNL     1       7.103  -1.528  25.343  0.00  0.00    +0.001 C 
BRANCH   6   7
ATOM      7  C   UNL     1       6.837  -2.696  24.408  0.00  0.00    +0.000 C 
BRANCH   7   8
ATOM      8  C   UNL     1       6.069  -2.235  23.182  0.00  0.00    +0.000 C 
BRANCH   8   9
ATOM      9  C   UNL     1       5.948  -3.373  22.181  0.00  0.00    +0.000 C 
BRANCH   9  10
ATOM     10  C   UNL     1       7.187  -4.253  22.234  0.00  0.00    -0.000 C 
BRANCH  10  11
ATOM     11  C   UNL     1       6.803  -5.695  22.528  0.00  0.00    -0.000 C 
BRANCH  11  12
ATOM     12  C   UNL     1       5.288  -5.845  22.542  0.00  0.00    -0.000 C 
BRANCH  12  13
ATOM     13  C   UNL     1       4.816  -6.412  23.873  0.00  0.00    -0.000 C 
BRANCH  13  14
ATOM     14  C   UNL     1       3.999  -5.376  24.635  0.00  0.00    -0.000 C 
BRANCH  14  15
ATOM     15  C   UNL     1       4.650  -5.054  25.976  0.00  0.00    -0.000 C 
BRANCH  15  16
ATOM     16  C   UNL     1       5.806  -6.009  26.258  0.00  0.00    -0.000 C 
BRANCH  16  17
ATOM     17  C   UNL     1       6.958  -5.287  26.950  0.00  0.00    -0.003 C 
ATOM     18  C   UNL     1       8.237  -5.390  26.136  0.00  0.00    +0.004 C 
ENDBRANCH  16  17
ENDBRANCH  15  16
ENDBRANCH  14  15
ENDBRANCH  13  14
ENDBRANCH  12  13
ENDBRANCH  11  12
ENDBRANCH  10  11
ENDBRANCH   9  10
ENDBRANCH   8   9
ENDBRANCH   7   8
ENDBRANCH   6   7
ENDBRANCH   5   6
ENDBRANCH   4   5
ENDBRANCH   2   4
ENDBRANCH   1   2
BRANCH   1  19
ATOM     19  C   UNL     1       9.101   0.043  21.603  0.00  0.00    +0.266 C 
BRANCH  19  20
ATOM     20  C   UNL     1       8.952   1.534  21.269  0.00  0.00    +0.188 C 
BRANCH  20  21
ATOM     21  O   UNL     1      10.189   2.167  21.655  0.00  0.00    -0.385 OA
ATOM     22  H   UNL     1      10.610   1.587  22.315  0.00  0.00    +0.210 HD
ENDBRANCH  20  21
BRANCH  20  23
ATOM     23  C   UNL     1       7.762   2.176  22.011  0.00  0.00    +0.215 C 
BRANCH  23  24
ATOM     24  O   UNL     1       6.998   1.112  22.639  0.00  0.00    -0.381 OA
ATOM     25  H   UNL     1       7.639   0.402  22.830  0.00  0.00    +0.210 HD
ENDBRANCH  23  24
BRANCH  23  26
ATOM     26  C   UNL     1       8.191   3.093  23.154  0.00  0.00    +0.174 C 
ATOM     27  C   UNL     1       7.817   4.357  23.383  0.00  0.00    +0.242 C 
BRANCH  26  28
ATOM     28  O   UNL     1       9.024   2.487  24.102  0.00  0.00    -0.505 OA
ATOM     29  H   UNL     1       9.681   1.990  23.560  0.00  0.00    +0.292 HD
ENDBRANCH  26  28
BRANCH  27  30
ATOM     30  O   UNL     1       8.321   5.023  24.505  0.00  0.00    -0.499 OA
ATOM     31  H   UNL     1       8.052   5.957  24.362  0.00  0.00    +0.293 HD
ENDBRANCH  27  30
BRANCH  27  32
ATOM     32  C   UNL     1       6.846   5.107  22.531  0.00  0.00    +0.375 C 
ATOM     33  O   UNL     1       5.649   5.208  22.729  0.00  0.00    -0.242 OA
BRANCH  32  34
ATOM     34  O   UNL     1       7.513   5.702  21.513  0.00  0.00    -0.475 OA
ATOM     35  H   UNL     1       6.871   5.940  20.806  0.00  0.00    +0.296 HD
ENDBRANCH  32  34
ENDBRANCH  27  32
ENDBRANCH  23  26
ENDBRANCH  20  23
ENDBRANCH  19  20
ENDBRANCH   1  19
TORSDOF 25
ENDMDL
MODEL 6
REMARK VINA RESULT:      -4.9      2.986      7.345
REMARK  Name = 
REMARK  26 active torsions:
REMARK  status: ('A' for Active; 'I' for Inactive)
REMARK    1  A    between atoms: C_2  and  O_3
REMARK    2  A    between atoms: C_2  and  C_4
REMARK    3  A    between atoms: C_2  and  C_23
REMARK    4  A    between atoms: C_4  and  O_5
REMARK    5  A    between atoms: O_5  and  C_6
REMARK    6  A    between atoms: C_6  and  C_8
REMARK    7  A    between atoms: C_8  and  C_9
REMARK    8  A    between atoms: C_9  and  C_10
REMARK    9  A    between atoms: C_10  and  C_11
REMARK   10  A    between atoms: C_11  and  C_12
REMARK   11  A    between atoms: C_12  and  C_13
REMARK   12  A    between atoms: C_13  and  C_14
REMARK   13  A    between atoms: C_14  and  C_15
REMARK   14  A    between atoms: C_15  and  C_16
REMARK   15  A    between atoms: C_16  and  C_17
REMARK   16  A    between atoms: C_17  and  C_18
REMARK   17  A    between atoms: C_18  and  C_19
REMARK   18  A    between atoms: C_19  and  C_20
REMARK   19  A    between atoms: C_20  and  C_21
REMARK   20  A    between atoms: C_21  and  C_22
REMARK   21  A    between atoms: C_23  and  O_25
REMARK   22  A    between atoms: C_23  and  C_26
REMARK   23  A    between atoms: C_26  and  O_27
REMARK   24  A    between atoms: C_28  and  O_29
REMARK   25  A    between atoms: C_28  and  C_30
REMARK   26  A    between atoms: C_30  and  O_31
REMARK                            x       y       z     vdW  Elec       q    Type
REMARK                         _______ _______ _______ _____ _____    ______ ____
ROOT
ATOM      1  O   UNL     1       4.544  -1.810  24.939  0.00  0.00    -0.462 OA
ENDROOT
BRANCH   1   2
ATOM      2  C   UNL     1       5.557  -1.219  25.632  0.00  0.00    +0.307 C 
ATOM      3  O   UNL     1       5.912  -1.540  26.756  0.00  0.00    -0.251 OA
BRANCH   2   4
ATOM      4  C   UNL     1       6.305  -0.289  24.721  0.00  0.00    +0.120 C 
BRANCH   4   5
ATOM      5  C   UNL     1       7.558   0.207  25.424  0.00  0.00    +0.011 C 
BRANCH   5   6
ATOM      6  C   UNL     1       8.800  -0.473  24.880  0.00  0.00    +0.001 C 
BRANCH   6   7
ATOM      7  C   UNL     1      10.034   0.285  25.340  0.00  0.00    +0.000 C 
BRANCH   7   8
ATOM      8  C   UNL     1      10.858   0.736  24.147  0.00  0.00    +0.000 C 
BRANCH   8   9
ATOM      9  C   UNL     1      10.283   0.157  22.865  0.00  0.00    +0.000 C 
BRANCH   9  10
ATOM     10  C   UNL     1       9.882   1.275  21.916  0.00  0.00    -0.000 C 
BRANCH  10  11
ATOM     11  C   UNL     1       8.504   1.008  21.331  0.00  0.00    -0.000 C 
BRANCH  11  12
ATOM     12  C   UNL     1       7.482   1.964  21.929  0.00  0.00    -0.000 C 
BRANCH  12  13
ATOM     13  C   UNL     1       8.167   3.206  22.481  0.00  0.00    -0.000 C 
BRANCH  13  14
ATOM     14  C   UNL     1       7.770   3.434  23.934  0.00  0.00    -0.000 C 
BRANCH  14  15
ATOM     15  C   UNL     1       8.922   4.052  24.719  0.00  0.00    -0.000 C 
BRANCH  15  16
ATOM     16  C   UNL     1      10.067   4.433  23.786  0.00  0.00    -0.000 C 
BRANCH  16  17
ATOM     17  C   UNL     1      10.402   5.916  23.904  0.00  0.00    -0.003 C 
ATOM     18  C   UNL     1      11.863   6.121  24.263  0.00  0.00    +0.004 C 
ENDBRANCH  16  17
ENDBRANCH  15  16
ENDBRANCH  14  15
ENDBRANCH  13  14
ENDBRANCH  12  13
ENDBRANCH  11  12
ENDBRANCH  10  11
ENDBRANCH   9  10
ENDBRANCH   8   9
ENDBRANCH   7   8
ENDBRANCH   6   7
ENDBRANCH   5   6
ENDBRANCH   4   5
ENDBRANCH   2   4
ENDBRANCH   1   2
BRANCH   1  19
ATOM     19  C   UNL     1       4.665  -3.230  24.929  0.00  0.00    +0.266 C 
BRANCH  19  20
ATOM     20  C   UNL     1       5.597  -3.814  23.858  0.00  0.00    +0.188 C 
BRANCH  20  21
ATOM     21  O   UNL     1       4.817  -3.922  22.650  0.00  0.00    -0.385 OA
ATOM     22  H   UNL     1       4.258  -3.126  22.602  0.00  0.00    +0.210 HD
ENDBRANCH  20  21
BRANCH  20  23
ATOM     23  C   UNL     1       6.155  -5.192  24.267  0.00  0.00    +0.215 C 
BRANCH  23  24
ATOM     24  O   UNL     1       5.607  -6.185  23.358  0.00  0.00    -0.381 OA
ATOM     25  H   UNL     1       6.122  -6.104  22.534  0.00  0.00    +0.210 HD
ENDBRANCH  23  24
BRANCH  23  26
ATOM     26  C   UNL     1       7.671  -5.297  24.111  0.00  0.00    +0.174 C 
ATOM     27  C   UNL     1       8.610  -5.140  25.052  0.00  0.00    +0.242 C 
BRANCH  26  28
ATOM     28  O   UNL     1       8.097  -5.673  22.832  0.00  0.00    -0.505 OA
ATOM     29  H   UNL     1       9.011  -6.015  22.975  0.00  0.00    +0.292 HD
ENDBRANCH  26  28
BRANCH  27  30
ATOM     30  O   UNL     1       9.955  -5.291  24.701  0.00  0.00    -0.499 OA
ATOM     31  H   UNL     1      10.410  -5.397  25.565  0.00  0.00    +0.293 HD
ENDBRANCH  27  30
BRANCH  27  32
ATOM     32  C   UNL     1       8.313  -4.850  26.487  0.00  0.00    +0.375 C 
ATOM     33  O   UNL     1       8.275  -3.747  27.001  0.00  0.00    -0.242 OA
BRANCH  32  34
ATOM     34  O   UNL     1       8.050  -6.011  27.132  0.00  0.00    -0.475 OA
ATOM     35  H   UNL     1       8.377  -6.762  26.586  0.00  0.00    +0.296 HD
ENDBRANCH  32  34
ENDBRANCH  27  32
ENDBRANCH  23  26
ENDBRANCH  20  23
ENDBRANCH  19  20
ENDBRANCH   1  19
TORSDOF 25
ENDMDL
MODEL 7
REMARK VINA RESULT:      -4.8      2.927      7.377
REMARK  Name = 
REMARK  26 active torsions:
REMARK  status: ('A' for Active; 'I' for Inactive)
REMARK    1  A    between atoms: C_2  and  O_3
REMARK    2  A    between atoms: C_2  and  C_4
REMARK    3  A    between atoms: C_2  and  C_23
REMARK    4  A    between atoms: C_4  and  O_5
REMARK    5  A    between atoms: O_5  and  C_6
REMARK    6  A    between atoms: C_6  and  C_8
REMARK    7  A    between atoms: C_8  and  C_9
REMARK    8  A    between atoms: C_9  and  C_10
REMARK    9  A    between atoms: C_10  and  C_11
REMARK   10  A    between atoms: C_11  and  C_12
REMARK   11  A    between atoms: C_12  and  C_13
REMARK   12  A    between atoms: C_13  and  C_14
REMARK   13  A    between atoms: C_14  and  C_15
REMARK   14  A    between atoms: C_15  and  C_16
REMARK   15  A    between atoms: C_16  and  C_17
REMARK   16  A    between atoms: C_17  and  C_18
REMARK   17  A    between atoms: C_18  and  C_19
REMARK   18  A    between atoms: C_19  and  C_20
REMARK   19  A    between atoms: C_20  and  C_21
REMARK   20  A    between atoms: C_21  and  C_22
REMARK   21  A    between atoms: C_23  and  O_25
REMARK   22  A    between atoms: C_23  and  C_26
REMARK   23  A    between atoms: C_26  and  O_27
REMARK   24  A    between atoms: C_28  and  O_29
REMARK   25  A    between atoms: C_28  and  C_30
REMARK   26  A    between atoms: C_30  and  O_31
REMARK                            x       y       z     vdW  Elec       q    Type
REMARK                         _______ _______ _______ _____ _____    ______ ____
ROOT
ATOM      1  O   UNL     1       8.519  -2.675  21.968  0.00  0.00    -0.462 OA
ENDROOT
BRANCH   1   2
ATOM      2  C   UNL     1       9.154  -1.822  22.820  0.00  0.00    +0.307 C 
ATOM      3  O   UNL     1       9.887  -2.167  23.734  0.00  0.00    -0.251 OA
BRANCH   2   4
ATOM      4  C   UNL     1       9.001  -0.415  22.317  0.00  0.00    +0.120 C 
BRANCH   4   5
ATOM      5  C   UNL     1      10.154   0.432  22.831  0.00  0.00    +0.011 C 
BRANCH   5   6
ATOM      6  C   UNL     1      10.157   1.806  22.187  0.00  0.00    +0.001 C 
BRANCH   6   7
ATOM      7  C   UNL     1      10.392   2.863  23.253  0.00  0.00    +0.000 C 
BRANCH   7   8
ATOM      8  C   UNL     1       9.447   2.660  24.424  0.00  0.00    +0.000 C 
BRANCH   8   9
ATOM      9  C   UNL     1       8.728   3.960  24.747  0.00  0.00    +0.000 C 
BRANCH   9  10
ATOM     10  C   UNL     1       8.328   4.672  23.465  0.00  0.00    -0.000 C 
BRANCH  10  11
ATOM     11  C   UNL     1       6.862   4.417  23.149  0.00  0.00    -0.000 C 
BRANCH  11  12
ATOM     12  C   UNL     1       6.733   3.366  22.057  0.00  0.00    -0.000 C 
BRANCH  12  13
ATOM     13  C   UNL     1       6.292   2.032  22.643  0.00  0.00    -0.000 C 
BRANCH  13  14
ATOM     14  C   UNL     1       5.484   2.249  23.917  0.00  0.00    -0.000 C 
BRANCH  14  15
ATOM     15  C   UNL     1       5.974   1.331  25.031  0.00  0.00    -0.000 C 
BRANCH  15  16
ATOM     16  C   UNL     1       6.105  -0.104  24.529  0.00  0.00    -0.000 C 
BRANCH  16  17
ATOM     17  C   UNL     1       6.792  -0.987  25.567  0.00  0.00    -0.003 C 
ATOM     18  C   UNL     1       8.043  -0.320  26.111  0.00  0.00    +0.004 C 
ENDBRANCH  16  17
ENDBRANCH  15  16
ENDBRANCH  14  15
ENDBRANCH  13  14
ENDBRANCH  12  13
ENDBRANCH  11  12
ENDBRANCH  10  11
ENDBRANCH   9  10
ENDBRANCH   8   9
ENDBRANCH   7   8
ENDBRANCH   6   7
ENDBRANCH   5   6
ENDBRANCH   4   5
ENDBRANCH   2   4
ENDBRANCH   1   2
BRANCH   1  19
ATOM     19  C   UNL     1       7.156  -2.875  22.334  0.00  0.00    +0.266 C 
BRANCH  19  20
ATOM     20  C   UNL     1       6.712  -4.336  22.483  0.00  0.00    +0.188 C 
BRANCH  20  21
ATOM     21  O   UNL     1       5.522  -4.487  21.682  0.00  0.00    -0.385 OA
ATOM     22  H   UNL     1       5.247  -5.418  21.756  0.00  0.00    +0.210 HD
ENDBRANCH  20  21
BRANCH  20  23
ATOM     23  C   UNL     1       6.424  -4.706  23.952  0.00  0.00    +0.215 C 
BRANCH  23  24
ATOM     24  O   UNL     1       5.698  -5.965  23.963  0.00  0.00    -0.381 OA
ATOM     25  H   UNL     1       6.375  -6.662  24.040  0.00  0.00    +0.210 HD
ENDBRANCH  23  24
BRANCH  23  26
ATOM     26  C   UNL     1       7.691  -4.965  24.765  0.00  0.00    +0.174 C 
ATOM     27  C   UNL     1       7.799  -5.155  26.085  0.00  0.00    +0.242 C 
BRANCH  26  28
ATOM     28  O   UNL     1       8.857  -5.082  24.000  0.00  0.00    -0.505 OA
ATOM     29  H   UNL     1       8.953  -6.052  23.858  0.00  0.00    +0.292 HD
ENDBRANCH  26  28
BRANCH  27  30
ATOM     30  O   UNL     1       9.063  -5.389  26.637  0.00  0.00    -0.499 OA
ATOM     31  H   UNL     1       8.866  -5.856  27.479  0.00  0.00    +0.293 HD
ENDBRANCH  27  30
BRANCH  27  32
ATOM     32  C   UNL     1       6.637  -5.174  27.024  0.00  0.00    +0.375 C 
ATOM     33  O   UNL     1       6.251  -4.241  27.703  0.00  0.00    -0.242 OA
BRANCH  32  34
ATOM     34  O   UNL     1       6.045  -6.391  26.975  0.00  0.00    -0.475 OA
ATOM     35  H   UNL     1       6.378  -6.878  26.188  0.00  0.00    +0.296 HD
ENDBRANCH  32  34
ENDBRANCH  27  32
ENDBRANCH  23  26
ENDBRANCH  20  23
ENDBRANCH  19  20
ENDBRANCH   1  19
TORSDOF 25
ENDMDL
MODEL 8
REMARK VINA RESULT:      -4.8      3.203      7.917
REMARK  Name = 
REMARK  26 active torsions:
REMARK  status: ('A' for Active; 'I' for Inactive)
REMARK    1  A    between atoms: C_2  and  O_3
REMARK    2  A    between atoms: C_2  and  C_4
REMARK    3  A    between atoms: C_2  and  C_23
REMARK    4  A    between atoms: C_4  and  O_5
REMARK    5  A    between atoms: O_5  and  C_6
REMARK    6  A    between atoms: C_6  and  C_8
REMARK    7  A    between atoms: C_8  and  C_9
REMARK    8  A    between atoms: C_9  and  C_10
REMARK    9  A    between atoms: C_10  and  C_11
REMARK   10  A    between atoms: C_11  and  C_12
REMARK   11  A    between atoms: C_12  and  C_13
REMARK   12  A    between atoms: C_13  and  C_14
REMARK   13  A    between atoms: C_14  and  C_15
REMARK   14  A    between atoms: C_15  and  C_16
REMARK   15  A    between atoms: C_16  and  C_17
REMARK   16  A    between atoms: C_17  and  C_18
REMARK   17  A    between atoms: C_18  and  C_19
REMARK   18  A    between atoms: C_19  and  C_20
REMARK   19  A    between atoms: C_20  and  C_21
REMARK   20  A    between atoms: C_21  and  C_22
REMARK   21  A    between atoms: C_23  and  O_25
REMARK   22  A    between atoms: C_23  and  C_26
REMARK   23  A    between atoms: C_26  and  O_27
REMARK   24  A    between atoms: C_28  and  O_29
REMARK   25  A    between atoms: C_28  and  C_30
REMARK   26  A    between atoms: C_30  and  O_31
REMARK                            x       y       z     vdW  Elec       q    Type
REMARK                         _______ _______ _______ _____ _____    ______ ____
ROOT
ATOM      1  O   UNL     1       7.140  -2.317  24.667  0.00  0.00    -0.462 OA
ENDROOT
BRANCH   1   2
ATOM      2  C   UNL     1       8.395  -2.443  25.183  0.00  0.00    +0.307 C 
ATOM      3  O   UNL     1       9.250  -3.205  24.758  0.00  0.00    -0.251 OA
BRANCH   2   4
ATOM      4  C   UNL     1       8.631  -1.351  26.187  0.00  0.00    +0.120 C 
BRANCH   4   5
ATOM      5  C   UNL     1       8.914  -0.049  25.456  0.00  0.00    +0.011 C 
BRANCH   5   6
ATOM      6  C   UNL     1      10.388   0.083  25.117  0.00  0.00    +0.001 C 
BRANCH   6   7
ATOM      7  C   UNL     1      10.536   0.615  23.702  0.00  0.00    +0.000 C 
BRANCH   7   8
ATOM      8  C   UNL     1      10.162  -0.453  22.688  0.00  0.00    +0.000 C 
BRANCH   8   9
ATOM      9  C   UNL     1       9.330   0.156  21.571  0.00  0.00    +0.000 C 
BRANCH   9  10
ATOM     10  C   UNL     1       9.349   1.673  21.667  0.00  0.00    -0.000 C 
BRANCH  10  11
ATOM     11  C   UNL     1       7.939   2.232  21.545  0.00  0.00    -0.000 C 
BRANCH  11  12
ATOM     12  C   UNL     1       7.080   1.753  22.707  0.00  0.00    -0.000 C 
BRANCH  12  13
ATOM     13  C   UNL     1       7.336   2.595  23.948  0.00  0.00    -0.000 C 
BRANCH  13  14
ATOM     14  C   UNL     1       7.814   3.989  23.560  0.00  0.00    -0.000 C 
BRANCH  14  15
ATOM     15  C   UNL     1       9.137   4.317  24.243  0.00  0.00    -0.000 C 
BRANCH  15  16
ATOM     16  C   UNL     1       9.692   5.645  23.735  0.00  0.00    -0.000 C 
BRANCH  16  17
ATOM     17  C   UNL     1      11.216   5.619  23.686  0.00  0.00    -0.003 C 
ATOM     18  C   UNL     1      11.729   4.240  23.312  0.00  0.00    +0.004 C 
ENDBRANCH  16  17
ENDBRANCH  15  16
ENDBRANCH  14  15
ENDBRANCH  13  14
ENDBRANCH  12  13
ENDBRANCH  11  12
ENDBRANCH  10  11
ENDBRANCH   9  10
ENDBRANCH   8   9
ENDBRANCH   7   8
ENDBRANCH   6   7
ENDBRANCH   5   6
ENDBRANCH   4   5
ENDBRANCH   2   4
ENDBRANCH   1   2
BRANCH   1  19
ATOM     19  C   UNL     1       7.110  -2.590  23.269  0.00  0.00    +0.266 C 
BRANCH  19  20
ATOM     20  C   UNL     1       6.280  -3.810  22.845  0.00  0.00    +0.188 C 
BRANCH  20  21
ATOM     21  O   UNL     1       5.361  -3.348  21.834  0.00  0.00    -0.385 OA
ATOM     22  H   UNL     1       4.587  -3.940  21.864  0.00  0.00    +0.210 HD
ENDBRANCH  20  21
BRANCH  20  23
ATOM     23  C   UNL     1       5.513  -4.427  24.031  0.00  0.00    +0.215 C 
BRANCH  23  24
ATOM     24  O   UNL     1       4.408  -3.543  24.359  0.00  0.00    -0.381 OA
ATOM     25  H   UNL     1       4.110  -3.809  25.249  0.00  0.00    +0.210 HD
ENDBRANCH  23  24
BRANCH  23  26
ATOM     26  C   UNL     1       4.869  -5.771  23.696  0.00  0.00    +0.174 C 
ATOM     27  C   UNL     1       4.416  -6.703  24.543  0.00  0.00    +0.242 C 
BRANCH  26  28
ATOM     28  O   UNL     1       4.677  -5.996  22.328  0.00  0.00    -0.505 OA
ATOM     29  H   UNL     1       5.014  -6.911  22.187  0.00  0.00    +0.292 HD
ENDBRANCH  26  28
BRANCH  27  30
ATOM     30  O   UNL     1       3.844  -7.870  24.026  0.00  0.00    -0.499 OA
ATOM     31  H   UNL     1       2.885  -7.760  24.209  0.00  0.00    +0.293 HD
ENDBRANCH  27  30
BRANCH  27  32
ATOM     32  C   UNL     1       4.443  -6.564  26.030  0.00  0.00    +0.375 C 
ATOM     33  O   UNL     1       5.230  -7.103  26.785  0.00  0.00    -0.242 OA
BRANCH  32  34
ATOM     34  O   UNL     1       3.471  -5.703  26.415  0.00  0.00    -0.475 OA
ATOM     35  H   UNL     1       3.647  -4.820  26.016  0.00  0.00    +0.296 HD
ENDBRANCH  32  34
ENDBRANCH  27  32
ENDBRANCH  23  26
ENDBRANCH  20  23
ENDBRANCH  19  20
ENDBRANCH   1  19
TORSDOF 25
ENDMDL
MODEL 9
REMARK VINA RESULT:      -4.8      3.174      7.912
REMARK  Name = 
REMARK  26 active torsions:
REMARK  status: ('A' for Active; 'I' for Inactive)
REMARK    1  A    between atoms: C_2  and  O_3
REMARK    2  A    between atoms: C_2  and  C_4
REMARK    3  A    between atoms: C_2  and  C_23
REMARK    4  A    between atoms: C_4  and  O_5
REMARK    5  A    between atoms: O_5  and  C_6
REMARK    6  A    between atoms: C_6  and  C_8
REMARK    7  A    between atoms: C_8  and  C_9
REMARK    8  A    between atoms: C_9  and  C_10
REMARK    9  A    between atoms: C_10  and  C_11
REMARK   10  A    between atoms: C_11  and  C_12
REMARK   11  A    between atoms: C_12  and  C_13
REMARK   12  A    between atoms: C_13  and  C_14
REMARK   13  A    between atoms: C_14  and  C_15
REMARK   14  A    between atoms: C_15  and  C_16
REMARK   15  A    between atoms: C_16  and  C_17
REMARK   16  A    between atoms: C_17  and  C_18
REMARK   17  A    between atoms: C_18  and  C_19
REMARK   18  A    between atoms: C_19  and  C_20
REMARK   19  A    between atoms: C_20  and  C_21
REMARK   20  A    between atoms: C_21  and  C_22
REMARK   21  A    between atoms: C_23  and  O_25
REMARK   22  A    between atoms: C_23  and  C_26
REMARK   23  A    between atoms: C_26  and  O_27
REMARK   24  A    between atoms: C_28  and  O_29
REMARK   25  A    between atoms: C_28  and  C_30
REMARK   26  A    between atoms: C_30  and  O_31
REMARK                            x       y       z     vdW  Elec       q    Type
REMARK                         _______ _______ _______ _____ _____    ______ ____
ROOT
ATOM      1  O   UNL     1       8.655  -4.660  24.771  0.00  0.00    -0.462 OA
ENDROOT
BRANCH   1   2
ATOM      2  C   UNL     1       8.068  -4.188  23.636  0.00  0.00    +0.307 C 
ATOM      3  O   UNL     1       7.114  -4.707  23.077  0.00  0.00    -0.251 OA
BRANCH   2   4
ATOM      4  C   UNL     1       8.620  -2.827  23.321  0.00  0.00    +0.120 C 
BRANCH   4   5
ATOM      5  C   UNL     1       7.500  -1.802  23.386  0.00  0.00    +0.011 C 
BRANCH   5   6
ATOM      6  C   UNL     1       7.779  -0.748  24.442  0.00  0.00    +0.001 C 
BRANCH   6   7
ATOM      7  C   UNL     1       9.036  -1.123  25.210  0.00  0.00    +0.000 C 
BRANCH   7   8
ATOM      8  C   UNL     1       9.928   0.092  25.397  0.00  0.00    +0.000 C 
BRANCH   8   9
ATOM      9  C   UNL     1      10.692   0.382  24.115  0.00  0.00    +0.000 C 
BRANCH   9  10
ATOM     10  C   UNL     1      10.847   1.882  23.923  0.00  0.00    -0.000 C 
BRANCH  10  11
ATOM     11  C   UNL     1      10.306   2.303  22.565  0.00  0.00    -0.000 C 
BRANCH  11  12
ATOM     12  C   UNL     1       9.728   1.101  21.832  0.00  0.00    -0.000 C 
BRANCH  12  13
ATOM     13  C   UNL     1       8.273   1.347  21.460  0.00  0.00    -0.000 C 
BRANCH  13  14
ATOM     14  C   UNL     1       7.800   2.688  22.006  0.00  0.00    -0.000 C 
BRANCH  14  15
ATOM     15  C   UNL     1       6.665   2.495  23.006  0.00  0.00    -0.000 C 
BRANCH  15  16
ATOM     16  C   UNL     1       6.660   3.618  24.039  0.00  0.00    -0.000 C 
BRANCH  16  17
ATOM     17  C   UNL     1       7.762   3.416  25.075  0.00  0.00    -0.003 C 
ATOM     18  C   UNL     1       7.293   2.514  26.204  0.00  0.00    +0.004 C 
ENDBRANCH  16  17
ENDBRANCH  15  16
ENDBRANCH  14  15
ENDBRANCH  13  14
ENDBRANCH  12  13
ENDBRANCH  11  12
ENDBRANCH  10  11
ENDBRANCH   9  10
ENDBRANCH   8   9
ENDBRANCH   7   8
ENDBRANCH   6   7
ENDBRANCH   5   6
ENDBRANCH   4   5
ENDBRANCH   2   4
ENDBRANCH   1   2
BRANCH   1  19
ATOM     19  C   UNL     1       7.737  -5.391  25.580  0.00  0.00    +0.266 C 
BRANCH  19  20
ATOM     20  C   UNL     1       7.014  -4.583  26.666  0.00  0.00    +0.188 C 
BRANCH  20  21
ATOM     21  O   UNL     1       7.253  -5.266  27.913  0.00  0.00    -0.385 OA
ATOM     22  H   UNL     1       8.174  -5.078  28.166  0.00  0.00    +0.210 HD
ENDBRANCH  20  21
BRANCH  20  23
ATOM     23  C   UNL     1       5.500  -4.473  26.392  0.00  0.00    +0.215 C 
BRANCH  23  24
ATOM     24  O   UNL     1       5.298  -3.424  25.406  0.00  0.00    -0.381 OA
ATOM     25  H   UNL     1       5.976  -3.570  24.720  0.00  0.00    +0.210 HD
ENDBRANCH  23  24
BRANCH  23  26
ATOM     26  C   UNL     1       4.909  -5.734  25.766  0.00  0.00    +0.174 C 
ATOM     27  C   UNL     1       4.423  -6.814  26.388  0.00  0.00    +0.242 C 
BRANCH  26  28
ATOM     28  O   UNL     1       4.812  -5.697  24.370  0.00  0.00    -0.505 OA
ATOM     29  H   UNL     1       4.230  -4.922  24.191  0.00  0.00    +0.292 HD
ENDBRANCH  26  28
BRANCH  27  30
ATOM     30  O   UNL     1       3.912  -7.867  25.623  0.00  0.00    -0.499 OA
ATOM     31  H   UNL     1       2.957  -7.882  25.855  0.00  0.00    +0.293 HD
ENDBRANCH  27  30
BRANCH  27  32
ATOM     32  C   UNL     1       4.349  -6.959  27.873  0.00  0.00    +0.375 C 
ATOM     33  O   UNL     1       3.416  -6.626  28.579  0.00  0.00    -0.242 OA
BRANCH  32  34
ATOM     34  O   UNL     1       5.477  -7.563  28.319  0.00  0.00    -0.475 OA
ATOM     35  H   UNL     1       5.602  -8.409  27.830  0.00  0.00    +0.296 HD
ENDBRANCH  32  34
ENDBRANCH  27  32
ENDBRANCH  23  26
ENDBRANCH  20  23
ENDBRANCH  19  20
ENDBRANCH   1  19
TORSDOF 25
ENDMDL
