MODEL 1
REMARK VINA RESULT:      -7.3      0.000      0.000
REMARK  Name = 
REMARK  13 active torsions:
REMARK  status: ('A' for Active; 'I' for Inactive)
REMARK    1  A    between atoms: C_9  and  C_12
REMARK    2  A    between atoms: C_12  and  O_13
REMARK    3  A    between atoms: C_15  and  C_17
REMARK    4  A    between atoms: C_17  and  C_19
REMARK    5  A    between atoms: C_17  and  N_20
REMARK    6  A    between atoms: N_20  and  C_21
REMARK    7  A    between atoms: C_21  and  C_23
REMARK    8  A    between atoms: C_21  and  C_31
REMARK    9  A    between atoms: C_23  and  C_24
REMARK   10  A    between atoms: C_24  and  C_25
REMARK   11  A    between atoms: C_31  and  O_33
REMARK   12  A    between atoms: O_33  and  C_34
REMARK   13  A    between atoms: C_34  and  C_35
REMARK                            x       y       z     vdW  Elec       q    Type
REMARK                         _______ _______ _______ _____ _____    ______ ____
ROOT
ATOM      1  C   UNK A   1       8.911  -4.408  25.095  0.00  0.00    +0.138 C 
ATOM      2  C   UNK A   1      10.081  -5.259  25.605  0.00  0.00    +0.034 C 
ENDROOT
BRANCH   1   7
ATOM      3  C   UNK A   1       4.808  -4.605  23.085  0.00  0.00    +0.012 C 
ATOM      4  C   UNK A   1       4.069  -4.768  24.400  0.00  0.00    +0.039 C 
ATOM      5  C   UNK A   1       5.112  -5.331  25.375  0.00  0.00    +0.185 C 
ATOM      6  N   UNK A   1       6.434  -5.006  24.775  0.00  0.00    -0.283 N 
ATOM      7  C   UNK A   1       7.562  -5.004  25.582  0.00  0.00    +0.233 C 
ATOM      8  O   UNK A   1       7.481  -5.556  26.689  0.00  0.00    -0.274 OA
ATOM      9  C   UNK A   1       6.266  -4.323  23.484  0.00  0.00    +0.080 C 
ATOM     10  C   UNK A   1       7.020  -4.879  22.277  0.00  0.00    +0.023 C 
ATOM     11  C   UNK A   1       6.301  -6.174  21.945  0.00  0.00    +0.002 C 
ATOM     12  C   UNK A   1       4.832  -5.870  22.206  0.00  0.00    +0.005 C 
BRANCH   5  13
ATOM     13  C   UNK A   1       4.792  -6.805  25.714  0.00  0.00    +0.325 C 
ATOM     14  O   UNK A   1       4.179  -7.560  24.970  0.00  0.00    -0.249 OA
BRANCH  13  15
ATOM     15  O   UNK A   1       5.116  -7.185  26.972  0.00  0.00    -0.479 OA
ATOM     16  H   UNK A   1       6.077  -7.383  27.041  0.00  0.00    +0.295 HD
ENDBRANCH  13  15
ENDBRANCH   5  13
ENDBRANCH   1   7
BRANCH   1  17
ATOM     17  N   UNK A   1       9.045  -2.988  25.536  0.00  0.00    -0.294 NA
ATOM     18  H   UNK A   1      10.035  -2.821  25.739  0.00  0.00    +0.123 HD
BRANCH  17  19
ATOM     19  C   UNK A   0       8.613  -2.019  24.483  0.00  0.00    +0.164 C 
BRANCH  19  20
ATOM     20  C   UNK A   0       9.506  -2.123  23.236  0.00  0.00    +0.324 C 
ATOM     21  O   UNK A   0      10.663  -2.521  23.212  0.00  0.00    -0.249 OA
BRANCH  20  22
ATOM     22  O   UNK A   0       8.826  -1.603  22.168  0.00  0.00    -0.464 OA
BRANCH  22  23
ATOM     23  C   UNK A   0       9.524  -0.639  21.368  0.00  0.00    +0.229 C 
ATOM     24  C   UNK A   0       8.715   0.647  21.362  0.00  0.00    +0.048 C 
ENDBRANCH  22  23
ENDBRANCH  20  22
ENDBRANCH  19  20
BRANCH  19  25
ATOM     25  C   UNK A   0       8.606  -0.584  25.016  0.00  0.00    +0.035 C 
BRANCH  25  26
ATOM     26  C   UNK A   0       9.996   0.067  25.102  0.00  0.00    +0.037 C 
BRANCH  26  27
ATOM     27  C   UNK A   0       9.887   1.449  24.507  0.00  0.00    -0.047 A 
ATOM     28  C   UNK A   0       8.790   2.264  24.818  0.00  0.00    +0.003 A 
ATOM     29  C   UNK A   0       8.803   3.614  24.473  0.00  0.00    +0.000 A 
ATOM     30  C   UNK A   0       9.901   4.154  23.806  0.00  0.00    +0.000 A 
ATOM     31  C   UNK A   0      10.975   3.338  23.450  0.00  0.00    +0.000 A 
ATOM     32  C   UNK A   0      10.967   1.988  23.796  0.00  0.00    +0.003 A 
ENDBRANCH  26  27
ENDBRANCH  25  26
ENDBRANCH  19  25
ENDBRANCH  17  19
ENDBRANCH   1  17
TORSDOF 11
ENDMDL
MODEL 2
REMARK VINA RESULT:      -7.2      1.436      2.177
REMARK  Name = 
REMARK  13 active torsions:
REMARK  status: ('A' for Active; 'I' for Inactive)
REMARK    1  A    between atoms: C_9  and  C_12
REMARK    2  A    between atoms: C_12  and  O_13
REMARK    3  A    between atoms: C_15  and  C_17
REMARK    4  A    between atoms: C_17  and  C_19
REMARK    5  A    between atoms: C_17  and  N_20
REMARK    6  A    between atoms: N_20  and  C_21
REMARK    7  A    between atoms: C_21  and  C_23
REMARK    8  A    between atoms: C_21  and  C_31
REMARK    9  A    between atoms: C_23  and  C_24
REMARK   10  A    between atoms: C_24  and  C_25
REMARK   11  A    between atoms: C_31  and  O_33
REMARK   12  A    between atoms: O_33  and  C_34
REMARK   13  A    between atoms: C_34  and  C_35
REMARK                            x       y       z     vdW  Elec       q    Type
REMARK                         _______ _______ _______ _____ _____    ______ ____
ROOT
ATOM      1  C   UNK A   1       8.512  -4.332  25.478  0.00  0.00    +0.138 C 
ATOM      2  C   UNK A   1       9.710  -5.281  25.605  0.00  0.00    +0.034 C 
ENDROOT
BRANCH   1   7
ATOM      3  C   UNK A   1       4.324  -4.577  23.655  0.00  0.00    +0.012 C 
ATOM      4  C   UNK A   1       3.663  -4.878  24.987  0.00  0.00    +0.039 C 
ATOM      5  C   UNK A   1       4.778  -5.462  25.863  0.00  0.00    +0.185 C 
ATOM      6  N   UNK A   1       6.052  -5.026  25.229  0.00  0.00    -0.283 N 
ATOM      7  C   UNK A   1       7.219  -5.031  25.979  0.00  0.00    +0.233 C 
ATOM      8  O   UNK A   1       7.220  -5.670  27.041  0.00  0.00    -0.274 OA
ATOM      9  C   UNK A   1       5.787  -4.254  24.006  0.00  0.00    +0.080 C 
ATOM     10  C   UNK A   1       6.503  -4.677  22.723  0.00  0.00    +0.023 C 
ATOM     11  C   UNK A   1       5.828  -5.976  22.324  0.00  0.00    +0.002 C 
ATOM     12  C   UNK A   1       4.362  -5.767  22.677  0.00  0.00    +0.005 C 
BRANCH   5  13
ATOM     13  C   UNK A   1       4.545  -6.972  26.098  0.00  0.00    +0.325 C 
ATOM     14  O   UNK A   1       3.949  -7.702  25.315  0.00  0.00    -0.249 OA
BRANCH  13  15
ATOM     15  O   UNK A   1       4.926  -7.427  27.315  0.00  0.00    -0.479 OA
ATOM     16  H   UNK A   1       4.283  -8.089  27.657  0.00  0.00    +0.295 HD
ENDBRANCH  13  15
ENDBRANCH   5  13
ENDBRANCH   1   7
BRANCH   1  17
ATOM     17  N   UNK A   1       8.747  -3.064  26.230  0.00  0.00    -0.294 NA
ATOM     18  H   UNK A   1       9.712  -3.082  26.571  0.00  0.00    +0.123 HD
BRANCH  17  19
ATOM     19  C   UNK A   0       8.575  -1.851  25.373  0.00  0.00    +0.164 C 
BRANCH  19  20
ATOM     20  C   UNK A   0       7.187  -1.224  25.575  0.00  0.00    +0.324 C 
ATOM     21  O   UNK A   0       6.409  -1.477  26.485  0.00  0.00    -0.249 OA
BRANCH  20  22
ATOM     22  O   UNK A   0       6.920  -0.404  24.511  0.00  0.00    -0.464 OA
BRANCH  22  23
ATOM     23  C   UNK A   0       7.085   1.004  24.727  0.00  0.00    +0.229 C 
ATOM     24  C   UNK A   0       6.435   1.742  23.569  0.00  0.00    +0.048 C 
ENDBRANCH  22  23
ENDBRANCH  20  22
ENDBRANCH  19  20
BRANCH  19  25
ATOM     25  C   UNK A   0       8.804  -2.177  23.895  0.00  0.00    +0.035 C 
BRANCH  25  26
ATOM     26  C   UNK A   0      10.232  -1.896  23.398  0.00  0.00    +0.037 C 
BRANCH  26  27
ATOM     27  C   UNK A   0      10.333  -0.417  23.120  0.00  0.00    -0.047 A 
ATOM     28  C   UNK A   0       9.814   0.112  21.930  0.00  0.00    +0.003 A 
ATOM     29  C   UNK A   0       9.684   1.491  21.777  0.00  0.00    +0.000 A 
ATOM     30  C   UNK A   0      10.085   2.348  22.801  0.00  0.00    +0.000 A 
ATOM     31  C   UNK A   0      10.648   1.830  23.967  0.00  0.00    +0.000 A 
ATOM     32  C   UNK A   0      10.776   0.452  24.125  0.00  0.00    +0.003 A 
ENDBRANCH  26  27
ENDBRANCH  25  26
ENDBRANCH  19  25
ENDBRANCH  17  19
ENDBRANCH   1  17
TORSDOF 11
ENDMDL
MODEL 3
REMARK VINA RESULT:      -7.0      2.470      4.019
REMARK  Name = 
REMARK  13 active torsions:
REMARK  status: ('A' for Active; 'I' for Inactive)
REMARK    1  A    between atoms: C_9  and  C_12
REMARK    2  A    between atoms: C_12  and  O_13
REMARK    3  A    between atoms: C_15  and  C_17
REMARK    4  A    between atoms: C_17  and  C_19
REMARK    5  A    between atoms: C_17  and  N_20
REMARK    6  A    between atoms: N_20  and  C_21
REMARK    7  A    between atoms: C_21  and  C_23
REMARK    8  A    between atoms: C_21  and  C_31
REMARK    9  A    between atoms: C_23  and  C_24
REMARK   10  A    between atoms: C_24  and  C_25
REMARK   11  A    between atoms: C_31  and  O_33
REMARK   12  A    between atoms: O_33  and  C_34
REMARK   13  A    between atoms: C_34  and  C_35
REMARK                            x       y       z     vdW  Elec       q    Type
REMARK                         _______ _______ _______ _____ _____    ______ ____
ROOT
ATOM      1  C   UNK A   1       8.468  -1.396  22.518  0.00  0.00    +0.138 C 
ATOM      2  C   UNK A   1       9.809  -1.356  21.775  0.00  0.00    +0.034 C 
ENDROOT
BRANCH   1   7
ATOM      3  C   UNK A   1       5.580  -4.717  23.764  0.00  0.00    +0.012 C 
ATOM      4  C   UNK A   1       6.095  -4.754  25.191  0.00  0.00    +0.039 C 
ATOM      5  C   UNK A   1       7.510  -4.166  25.119  0.00  0.00    +0.185 C 
ATOM      6  N   UNK A   1       7.558  -3.394  23.848  0.00  0.00    -0.283 N 
ATOM      7  C   UNK A   1       8.531  -2.420  23.683  0.00  0.00    +0.233 C 
ATOM      8  O   UNK A   1       9.496  -2.431  24.460  0.00  0.00    -0.274 OA
ATOM      9  C   UNK A   1       6.283  -3.508  23.123  0.00  0.00    +0.080 C 
ATOM     10  C   UNK A   1       6.331  -3.932  21.655  0.00  0.00    +0.023 C 
ATOM     11  C   UNK A   1       6.701  -5.403  21.698  0.00  0.00    +0.002 C 
ATOM     12  C   UNK A   1       5.963  -5.945  22.915  0.00  0.00    +0.005 C 
BRANCH   5  13
ATOM     13  C   UNK A   1       8.565  -5.272  25.357  0.00  0.00    +0.325 C 
ATOM     14  O   UNK A   1       9.325  -5.689  24.492  0.00  0.00    -0.249 OA
BRANCH  13  15
ATOM     15  O   UNK A   1       8.506  -5.866  26.572  0.00  0.00    -0.479 OA
ATOM     16  H   UNK A   1       7.573  -6.022  26.840  0.00  0.00    +0.295 HD
ENDBRANCH  13  15
ENDBRANCH   5  13
ENDBRANCH   1   7
BRANCH   1  17
ATOM     17  N   UNK A   1       8.094  -0.044  23.028  0.00  0.00    -0.294 NA
ATOM     18  H   UNK A   1       7.800  -0.153  24.003  0.00  0.00    +0.123 HD
BRANCH  17  19
ATOM     19  C   UNK A   0       9.237   0.919  22.988  0.00  0.00    +0.164 C 
BRANCH  19  20
ATOM     20  C   UNK A   0       9.672   1.319  24.406  0.00  0.00    +0.324 C 
ATOM     21  O   UNK A   0      10.361   0.649  25.162  0.00  0.00    -0.249 OA
BRANCH  20  22
ATOM     22  O   UNK A   0       9.079   2.512  24.723  0.00  0.00    -0.464 OA
BRANCH  22  23
ATOM     23  C   UNK A   0       7.944   2.453  25.598  0.00  0.00    +0.229 C 
ATOM     24  C   UNK A   0       7.509   3.876  25.908  0.00  0.00    +0.048 C 
ENDBRANCH  22  23
ENDBRANCH  20  22
ENDBRANCH  19  20
BRANCH  19  25
ATOM     25  C   UNK A   0       8.889   2.162  22.165  0.00  0.00    +0.035 C 
BRANCH  25  26
ATOM     26  C   UNK A   0       7.460   2.166  21.596  0.00  0.00    +0.037 C 
BRANCH  26  27
ATOM     27  C   UNK A   0       6.732   3.338  22.206  0.00  0.00    -0.047 A 
ATOM     28  C   UNK A   0       7.343   4.599  22.253  0.00  0.00    +0.003 A 
ATOM     29  C   UNK A   0       6.594   5.725  22.586  0.00  0.00    +0.000 A 
ATOM     30  C   UNK A   0       5.240   5.599  22.889  0.00  0.00    +0.000 A 
ATOM     31  C   UNK A   0       4.638   4.341  22.893  0.00  0.00    +0.000 A 
ATOM     32  C   UNK A   0       5.381   3.213  22.556  0.00  0.00    +0.003 A 
ENDBRANCH  26  27
ENDBRANCH  25  26
ENDBRANCH  19  25
ENDBRANCH  17  19
ENDBRANCH   1  17
TORSDOF 11
ENDMDL
MODEL 4
REMARK VINA RESULT:      -6.9      2.395      7.748
REMARK  Name = 
REMARK  13 active torsions:
REMARK  status: ('A' for Active; 'I' for Inactive)
REMARK    1  A    between atoms: C_9  and  C_12
REMARK    2  A    between atoms: C_12  and  O_13
REMARK    3  A    between atoms: C_15  and  C_17
REMARK    4  A    between atoms: C_17  and  C_19
REMARK    5  A    between atoms: C_17  and  N_20
REMARK    6  A    between atoms: N_20  and  C_21
REMARK    7  A    between atoms: C_21  and  C_23
REMARK    8  A    between atoms: C_21  and  C_31
REMARK    9  A    between atoms: C_23  and  C_24
REMARK   10  A    between atoms: C_24  and  C_25
REMARK   11  A    between atoms: C_31  and  O_33
REMARK   12  A    between atoms: O_33  and  C_34
REMARK   13  A    between atoms: C_34  and  C_35
REMARK                            x       y       z     vdW  Elec       q    Type
REMARK                         _______ _______ _______ _____ _____    ______ ____
ROOT
ATOM      1  C   UNK A   1       8.643  -1.162  25.379  0.00  0.00    +0.138 C 
ATOM      2  C   UNK A   1       8.726  -1.147  26.910  0.00  0.00    +0.034 C 
ENDROOT
BRANCH   1   7
ATOM      3  C   UNK A   1       8.104   1.348  21.594  0.00  0.00    +0.012 C 
ATOM      4  C   UNK A   1       9.573   1.722  21.522  0.00  0.00    +0.039 C 
ATOM      5  C   UNK A   1      10.097   1.553  22.954  0.00  0.00    +0.185 C 
ATOM      6  N   UNK A   1       9.119   0.661  23.634  0.00  0.00    -0.283 N 
ATOM      7  C   UNK A   1       9.501  -0.013  24.784  0.00  0.00    +0.233 C 
ATOM      8  O   UNK A   1      10.524   0.374  25.367  0.00  0.00    -0.274 OA
ATOM      9  C   UNK A   1       8.016   0.311  22.726  0.00  0.00    +0.080 C 
ATOM     10  C   UNK A   1       6.586   0.528  23.221  0.00  0.00    +0.023 C 
ATOM     11  C   UNK A   1       6.411   2.036  23.223  0.00  0.00    +0.002 C 
ATOM     12  C   UNK A   1       7.169   2.507  21.989  0.00  0.00    +0.005 C 
BRANCH   5  13
ATOM     13  C   UNK A   1      10.405   2.932  23.582  0.00  0.00    +0.325 C 
ATOM     14  O   UNK A   1      11.432   3.565  23.371  0.00  0.00    -0.249 OA
BRANCH  13  15
ATOM     15  O   UNK A   1       9.513   3.350  24.511  0.00  0.00    -0.479 OA
ATOM     16  H   UNK A   1       9.972   3.634  25.333  0.00  0.00    +0.295 HD
ENDBRANCH  13  15
ENDBRANCH   5  13
ENDBRANCH   1   7
BRANCH   1  17
ATOM     17  N   UNK A   1       9.076  -2.480  24.828  0.00  0.00    -0.294 NA
ATOM     18  H   UNK A   1       9.882  -2.793  25.376  0.00  0.00    +0.123 HD
BRANCH  17  19
ATOM     19  C   UNK A   0       8.008  -3.520  24.928  0.00  0.00    +0.164 C 
BRANCH  19  20
ATOM     20  C   UNK A   0       8.360  -4.756  24.084  0.00  0.00    +0.324 C 
ATOM     21  O   UNK A   0       9.195  -5.604  24.366  0.00  0.00    -0.249 OA
BRANCH  20  22
ATOM     22  O   UNK A   0       7.652  -4.700  22.914  0.00  0.00    -0.464 OA
BRANCH  22  23
ATOM     23  C   UNK A   0       7.341  -5.953  22.289  0.00  0.00    +0.229 C 
ATOM     24  C   UNK A   0       6.240  -5.716  21.270  0.00  0.00    +0.048 C 
ENDBRANCH  22  23
ENDBRANCH  20  22
ENDBRANCH  19  20
BRANCH  19  25
ATOM     25  C   UNK A   0       6.645  -2.961  24.513  0.00  0.00    +0.035 C 
BRANCH  25  26
ATOM     26  C   UNK A   0       5.519  -3.217  25.529  0.00  0.00    +0.037 C 
BRANCH  26  27
ATOM     27  C   UNK A   0       4.727  -4.404  25.039  0.00  0.00    -0.047 A 
ATOM     28  C   UNK A   0       3.777  -4.244  24.022  0.00  0.00    +0.003 A 
ATOM     29  C   UNK A   0       3.224  -5.363  23.401  0.00  0.00    +0.000 A 
ATOM     30  C   UNK A   0       3.603  -6.643  23.802  0.00  0.00    +0.000 A 
ATOM     31  C   UNK A   0       4.512  -6.808  24.847  0.00  0.00    +0.000 A 
ATOM     32  C   UNK A   0       5.070  -5.693  25.468  0.00  0.00    +0.003 A 
ENDBRANCH  26  27
ENDBRANCH  25  26
ENDBRANCH  19  25
ENDBRANCH  17  19
ENDBRANCH   1  17
TORSDOF 11
ENDMDL
MODEL 5
REMARK VINA RESULT:      -6.9      2.034      3.507
REMARK  Name = 
REMARK  13 active torsions:
REMARK  status: ('A' for Active; 'I' for Inactive)
REMARK    1  A    between atoms: C_9  and  C_12
REMARK    2  A    between atoms: C_12  and  O_13
REMARK    3  A    between atoms: C_15  and  C_17
REMARK    4  A    between atoms: C_17  and  C_19
REMARK    5  A    between atoms: C_17  and  N_20
REMARK    6  A    between atoms: N_20  and  C_21
REMARK    7  A    between atoms: C_21  and  C_23
REMARK    8  A    between atoms: C_21  and  C_31
REMARK    9  A    between atoms: C_23  and  C_24
REMARK   10  A    between atoms: C_24  and  C_25
REMARK   11  A    between atoms: C_31  and  O_33
REMARK   12  A    between atoms: O_33  and  C_34
REMARK   13  A    between atoms: C_34  and  C_35
REMARK                            x       y       z     vdW  Elec       q    Type
REMARK                         _______ _______ _______ _____ _____    ______ ____
ROOT
ATOM      1  C   UNK A   1       8.423  -1.508  22.268  0.00  0.00    +0.138 C 
ATOM      2  C   UNK A   1       9.811  -0.944  21.939  0.00  0.00    +0.034 C 
ENDROOT
BRANCH   1   7
ATOM      3  C   UNK A   1       5.573  -4.798  23.673  0.00  0.00    +0.012 C 
ATOM      4  C   UNK A   1       6.122  -4.796  25.087  0.00  0.00    +0.039 C 
ATOM      5  C   UNK A   1       7.534  -4.209  24.966  0.00  0.00    +0.185 C 
ATOM      6  N   UNK A   1       7.549  -3.471  23.673  0.00  0.00    -0.283 N 
ATOM      7  C   UNK A   1       8.516  -2.501  23.458  0.00  0.00    +0.233 C 
ATOM      8  O   UNK A   1       9.500  -2.489  24.212  0.00  0.00    -0.274 OA
ATOM      9  C   UNK A   1       6.258  -3.606  22.982  0.00  0.00    +0.080 C 
ATOM     10  C   UNK A   1       6.271  -4.070  21.526  0.00  0.00    +0.023 C 
ATOM     11  C   UNK A   1       6.645  -5.539  21.600  0.00  0.00    +0.002 C 
ATOM     12  C   UNK A   1       5.938  -6.048  22.849  0.00  0.00    +0.005 C 
BRANCH   5  13
ATOM     13  C   UNK A   1       8.597  -5.305  25.208  0.00  0.00    +0.325 C 
ATOM     14  O   UNK A   1       9.287  -5.796  24.323  0.00  0.00    -0.249 OA
BRANCH  13  15
ATOM     15  O   UNK A   1       8.626  -5.806  26.466  0.00  0.00    -0.479 OA
ATOM     16  H   UNK A   1       7.735  -6.124  26.736  0.00  0.00    +0.295 HD
ENDBRANCH  13  15
ENDBRANCH   5  13
ENDBRANCH   1   7
BRANCH   1  17
ATOM     17  N   UNK A   1       7.454  -0.415  22.571  0.00  0.00    -0.294 NA
ATOM     18  H   UNK A   1       6.513  -0.816  22.527  0.00  0.00    +0.123 HD
BRANCH  17  19
ATOM     19  C   UNK A   0       7.653   0.163  23.935  0.00  0.00    +0.164 C 
BRANCH  19  20
ATOM     20  C   UNK A   0       6.364   0.074  24.767  0.00  0.00    +0.324 C 
ATOM     21  O   UNK A   0       5.387   0.803  24.659  0.00  0.00    -0.249 OA
BRANCH  20  22
ATOM     22  O   UNK A   0       6.526  -0.897  25.718  0.00  0.00    -0.464 OA
BRANCH  22  23
ATOM     23  C   UNK A   0       7.598  -0.710  26.653  0.00  0.00    +0.229 C 
ATOM     24  C   UNK A   0       7.225   0.435  27.580  0.00  0.00    +0.048 C 
ENDBRANCH  22  23
ENDBRANCH  20  22
ENDBRANCH  19  20
BRANCH  19  25
ATOM     25  C   UNK A   0       8.140   1.613  23.860  0.00  0.00    +0.035 C 
BRANCH  25  26
ATOM     26  C   UNK A   0       9.617   1.805  24.243  0.00  0.00    +0.037 C 
BRANCH  26  27
ATOM     27  C   UNK A   0       9.985   3.235  23.928  0.00  0.00    -0.047 A 
ATOM     28  C   UNK A   0       9.124   4.279  24.294  0.00  0.00    +0.003 A 
ATOM     29  C   UNK A   0       9.562   5.599  24.229  0.00  0.00    +0.000 A 
ATOM     30  C   UNK A   0      10.851   5.887  23.786  0.00  0.00    +0.000 A 
ATOM     31  C   UNK A   0      11.695   4.856  23.373  0.00  0.00    +0.000 A 
ATOM     32  C   UNK A   0      11.263   3.534  23.441  0.00  0.00    +0.003 A 
ENDBRANCH  26  27
ENDBRANCH  25  26
ENDBRANCH  19  25
ENDBRANCH  17  19
ENDBRANCH   1  17
TORSDOF 11
ENDMDL
MODEL 6
REMARK VINA RESULT:      -6.8      2.319      7.744
REMARK  Name = 
REMARK  13 active torsions:
REMARK  status: ('A' for Active; 'I' for Inactive)
REMARK    1  A    between atoms: C_9  and  C_12
REMARK    2  A    between atoms: C_12  and  O_13
REMARK    3  A    between atoms: C_15  and  C_17
REMARK    4  A    between atoms: C_17  and  C_19
REMARK    5  A    between atoms: C_17  and  N_20
REMARK    6  A    between atoms: N_20  and  C_21
REMARK    7  A    between atoms: C_21  and  C_23
REMARK    8  A    between atoms: C_21  and  C_31
REMARK    9  A    between atoms: C_23  and  C_24
REMARK   10  A    between atoms: C_24  and  C_25
REMARK   11  A    between atoms: C_31  and  O_33
REMARK   12  A    between atoms: O_33  and  C_34
REMARK   13  A    between atoms: C_34  and  C_35
REMARK                            x       y       z     vdW  Elec       q    Type
REMARK                         _______ _______ _______ _____ _____    ______ ____
ROOT
ATOM      1  C   UNK A   1       8.803  -1.267  25.175  0.00  0.00    +0.138 C 
ATOM      2  C   UNK A   1       8.725  -1.256  26.707  0.00  0.00    +0.034 C 
ENDROOT
BRANCH   1   7
ATOM      3  C   UNK A   1       8.264   1.362  21.471  0.00  0.00    +0.012 C 
ATOM      4  C   UNK A   1       9.704   1.840  21.489  0.00  0.00    +0.039 C 
ATOM      5  C   UNK A   1      10.171   1.646  22.937  0.00  0.00    +0.185 C 
ATOM      6  N   UNK A   1       9.229   0.659  23.531  0.00  0.00    -0.283 N 
ATOM      7  C   UNK A   1       9.604  -0.036  24.670  0.00  0.00    +0.233 C 
ATOM      8  O   UNK A   1      10.568   0.396  25.319  0.00  0.00    -0.274 OA
ATOM      9  C   UNK A   1       8.198   0.273  22.555  0.00  0.00    +0.080 C 
ATOM     10  C   UNK A   1       6.735   0.368  22.986  0.00  0.00    +0.023 C 
ATOM     11  C   UNK A   1       6.452   1.858  23.040  0.00  0.00    +0.002 C 
ATOM     12  C   UNK A   1       7.231   2.435  21.865  0.00  0.00    +0.005 C 
BRANCH   5  13
ATOM     13  C   UNK A   1      10.349   3.015  23.634  0.00  0.00    +0.325 C 
ATOM     14  O   UNK A   1       9.533   3.499  24.408  0.00  0.00    -0.249 OA
BRANCH  13  15
ATOM     15  O   UNK A   1      11.422   3.731  23.223  0.00  0.00    -0.479 OA
ATOM     16  H   UNK A   1      11.272   4.694  23.359  0.00  0.00    +0.295 HD
ENDBRANCH  13  15
ENDBRANCH   5  13
ENDBRANCH   1   7
BRANCH   1  17
ATOM     17  N   UNK A   1       9.418  -2.532  24.676  0.00  0.00    -0.294 NA
ATOM     18  H   UNK A   1      10.204  -2.757  25.292  0.00  0.00    +0.123 HD
BRANCH  17  19
ATOM     19  C   UNK A   0       8.461  -3.680  24.698  0.00  0.00    +0.164 C 
BRANCH  19  20
ATOM     20  C   UNK A   0       9.096  -4.916  25.356  0.00  0.00    +0.324 C 
ATOM     21  O   UNK A   0      10.259  -5.275  25.236  0.00  0.00    -0.249 OA
BRANCH  20  22
ATOM     22  O   UNK A   0       8.118  -5.605  26.021  0.00  0.00    -0.464 OA
BRANCH  22  23
ATOM     23  C   UNK A   0       7.234  -4.833  26.845  0.00  0.00    +0.229 C 
ATOM     24  C   UNK A   0       5.948  -5.621  27.030  0.00  0.00    +0.048 C 
ENDBRANCH  22  23
ENDBRANCH  20  22
ENDBRANCH  19  20
BRANCH  19  25
ATOM     25  C   UNK A   0       7.966  -4.020  23.290  0.00  0.00    +0.035 C 
BRANCH  25  26
ATOM     26  C   UNK A   0       6.638  -3.346  22.905  0.00  0.00    +0.037 C 
BRANCH  26  27
ATOM     27  C   UNK A   0       5.527  -4.129  23.560  0.00  0.00    -0.047 A 
ATOM     28  C   UNK A   0       4.523  -3.460  24.276  0.00  0.00    +0.003 A 
ATOM     29  C   UNK A   0       3.375  -4.143  24.671  0.00  0.00    +0.000 A 
ATOM     30  C   UNK A   0       3.228  -5.496  24.369  0.00  0.00    +0.000 A 
ATOM     31  C   UNK A   0       4.244  -6.178  23.701  0.00  0.00    +0.000 A 
ATOM     32  C   UNK A   0       5.393  -5.499  23.300  0.00  0.00    +0.003 A 
ENDBRANCH  26  27
ENDBRANCH  25  26
ENDBRANCH  19  25
ENDBRANCH  17  19
ENDBRANCH   1  17
TORSDOF 11
ENDMDL
MODEL 7
REMARK VINA RESULT:      -6.7      1.922      3.388
REMARK  Name = 
REMARK  13 active torsions:
REMARK  status: ('A' for Active; 'I' for Inactive)
REMARK    1  A    between atoms: C_9  and  C_12
REMARK    2  A    between atoms: C_12  and  O_13
REMARK    3  A    between atoms: C_15  and  C_17
REMARK    4  A    between atoms: C_17  and  C_19
REMARK    5  A    between atoms: C_17  and  N_20
REMARK    6  A    between atoms: N_20  and  C_21
REMARK    7  A    between atoms: C_21  and  C_23
REMARK    8  A    between atoms: C_21  and  C_31
REMARK    9  A    between atoms: C_23  and  C_24
REMARK   10  A    between atoms: C_24  and  C_25
REMARK   11  A    between atoms: C_31  and  O_33
REMARK   12  A    between atoms: O_33  and  C_34
REMARK   13  A    between atoms: C_34  and  C_35
REMARK                            x       y       z     vdW  Elec       q    Type
REMARK                         _______ _______ _______ _____ _____    ______ ____
ROOT
ATOM      1  C   UNK A   1       7.621  -4.590  25.110  0.00  0.00    +0.138 C 
ATOM      2  C   UNK A   1       8.980  -5.217  24.777  0.00  0.00    +0.034 C 
ENDROOT
BRANCH   1   7
ATOM      3  C   UNK A   1       3.518  -5.181  27.043  0.00  0.00    +0.012 C 
ATOM      4  C   UNK A   1       4.031  -4.877  28.439  0.00  0.00    +0.039 C 
ATOM      5  C   UNK A   1       5.537  -5.161  28.380  0.00  0.00    +0.185 C 
ATOM      6  N   UNK A   1       5.895  -5.118  26.936  0.00  0.00    -0.283 N 
ATOM      7  C   UNK A   1       7.219  -4.925  26.572  0.00  0.00    +0.233 C 
ATOM      8  O   UNK A   1       8.087  -5.092  27.440  0.00  0.00    -0.274 OA
ATOM      9  C   UNK A   1       4.702  -4.870  26.112  0.00  0.00    +0.080 C 
ATOM     10  C   UNK A   1       4.427  -5.821  24.948  0.00  0.00    +0.023 C 
ATOM     11  C   UNK A   1       3.982  -7.111  25.611  0.00  0.00    +0.002 C 
ATOM     12  C   UNK A   1       3.151  -6.658  26.805  0.00  0.00    +0.005 C 
BRANCH   5  13
ATOM     13  C   UNK A   1       5.878  -6.432  29.192  0.00  0.00    +0.325 C 
ATOM     14  O   UNK A   1       6.397  -6.416  30.301  0.00  0.00    -0.249 OA
BRANCH  13  15
ATOM     15  O   UNK A   1       5.692  -7.599  28.532  0.00  0.00    -0.479 OA
ATOM     16  H   UNK A   1       6.464  -8.197  28.655  0.00  0.00    +0.295 HD
ENDBRANCH  13  15
ENDBRANCH   5  13
ENDBRANCH   1   7
BRANCH   1  17
ATOM     17  N   UNK A   1       7.643  -3.112  24.898  0.00  0.00    -0.294 NA
ATOM     18  H   UNK A   1       8.600  -2.851  24.645  0.00  0.00    +0.123 HD
BRANCH  17  19
ATOM     19  C   UNK A   0       6.732  -2.679  23.795  0.00  0.00    +0.164 C 
BRANCH  19  20
ATOM     20  C   UNK A   0       7.395  -2.875  22.422  0.00  0.00    +0.324 C 
ATOM     21  O   UNK A   0       8.532  -2.541  22.119  0.00  0.00    -0.249 OA
BRANCH  20  22
ATOM     22  O   UNK A   0       6.467  -3.398  21.561  0.00  0.00    -0.464 OA
BRANCH  22  23
ATOM     23  C   UNK A   0       5.960  -4.702  21.877  0.00  0.00    +0.229 C 
ATOM     24  C   UNK A   0       7.035  -5.723  21.546  0.00  0.00    +0.048 C 
ENDBRANCH  22  23
ENDBRANCH  20  22
ENDBRANCH  19  20
BRANCH  19  25
ATOM     25  C   UNK A   0       6.294  -1.223  23.974  0.00  0.00    +0.035 C 
BRANCH  25  26
ATOM     26  C   UNK A   0       7.241  -0.378  24.842  0.00  0.00    +0.037 C 
BRANCH  26  27
ATOM     27  C   UNK A   0       8.118   0.422  23.910  0.00  0.00    -0.047 A 
ATOM     28  C   UNK A   0       9.474   0.610  24.210  0.00  0.00    +0.003 A 
ATOM     29  C   UNK A   0      10.335   1.132  23.247  0.00  0.00    +0.000 A 
ATOM     30  C   UNK A   0       9.847   1.482  21.989  0.00  0.00    +0.000 A 
ATOM     31  C   UNK A   0       8.489   1.343  21.702  0.00  0.00    +0.000 A 
ATOM     32  C   UNK A   0       7.625   0.818  22.661  0.00  0.00    +0.003 A 
ENDBRANCH  26  27
ENDBRANCH  25  26
ENDBRANCH  19  25
ENDBRANCH  17  19
ENDBRANCH   1  17
TORSDOF 11
ENDMDL
MODEL 8
REMARK VINA RESULT:      -6.4      3.043      8.138
REMARK  Name = 
REMARK  13 active torsions:
REMARK  status: ('A' for Active; 'I' for Inactive)
REMARK    1  A    between atoms: C_9  and  C_12
REMARK    2  A    between atoms: C_12  and  O_13
REMARK    3  A    between atoms: C_15  and  C_17
REMARK    4  A    between atoms: C_17  and  C_19
REMARK    5  A    between atoms: C_17  and  N_20
REMARK    6  A    between atoms: N_20  and  C_21
REMARK    7  A    between atoms: C_21  and  C_23
REMARK    8  A    between atoms: C_21  and  C_31
REMARK    9  A    between atoms: C_23  and  C_24
REMARK   10  A    between atoms: C_24  and  C_25
REMARK   11  A    between atoms: C_31  and  O_33
REMARK   12  A    between atoms: O_33  and  C_34
REMARK   13  A    between atoms: C_34  and  C_35
REMARK                            x       y       z     vdW  Elec       q    Type
REMARK                         _______ _______ _______ _____ _____    ______ ____
ROOT
ATOM      1  C   UNK A   1       9.678   0.803  24.055  0.00  0.00    +0.138 C 
ATOM      2  C   UNK A   1      11.120   1.048  24.517  0.00  0.00    +0.034 C 
ENDROOT
BRANCH   1   7
ATOM      3  C   UNK A   1       5.439   2.454  23.581  0.00  0.00    +0.012 C 
ATOM      4  C   UNK A   1       5.777   3.210  22.310  0.00  0.00    +0.039 C 
ATOM      5  C   UNK A   1       7.296   3.416  22.361  0.00  0.00    +0.185 C 
ATOM      6  N   UNK A   1       7.804   2.398  23.322  0.00  0.00    -0.283 N 
ATOM      7  C   UNK A   1       9.144   2.043  23.287  0.00  0.00    +0.233 C 
ATOM      8  O   UNK A   1       9.923   2.787  22.673  0.00  0.00    -0.274 OA
ATOM      9  C   UNK A   1       6.694   1.619  23.889  0.00  0.00    +0.080 C 
ATOM     10  C   UNK A   1       6.608   1.497  25.409  0.00  0.00    +0.023 C 
ATOM     11  C   UNK A   1       6.180   2.877  25.876  0.00  0.00    +0.002 C 
ATOM     12  C   UNK A   1       5.198   3.349  24.812  0.00  0.00    +0.005 C 
BRANCH   5  13
ATOM     13  C   UNK A   1       7.631   4.905  22.611  0.00  0.00    +0.325 C 
ATOM     14  O   UNK A   1       7.904   5.369  23.710  0.00  0.00    -0.249 OA
BRANCH  13  15
ATOM     15  O   UNK A   1       7.466   5.715  21.539  0.00  0.00    -0.479 OA
ATOM     16  H   UNK A   1       6.853   6.455  21.751  0.00  0.00    +0.295 HD
ENDBRANCH  13  15
ENDBRANCH   5  13
ENDBRANCH   1   7
BRANCH   1  17
ATOM     17  N   UNK A   1       9.584  -0.420  23.205  0.00  0.00    -0.294 NA
ATOM     18  H   UNK A   1      10.504  -0.869  23.209  0.00  0.00    +0.123 HD
BRANCH  17  19
ATOM     19  C   UNK A   0       8.581  -1.400  23.722  0.00  0.00    +0.164 C 
BRANCH  19  20
ATOM     20  C   UNK A   0       9.273  -2.611  24.366  0.00  0.00    +0.324 C 
ATOM     21  O   UNK A   0      10.237  -3.213  23.912  0.00  0.00    -0.249 OA
BRANCH  20  22
ATOM     22  O   UNK A   0       8.571  -2.970  25.485  0.00  0.00    -0.464 OA
BRANCH  22  23
ATOM     23  C   UNK A   0       8.750  -4.314  25.953  0.00  0.00    +0.229 C 
ATOM     24  C   UNK A   0       7.435  -5.055  25.782  0.00  0.00    +0.048 C 
ENDBRANCH  22  23
ENDBRANCH  20  22
ENDBRANCH  19  20
BRANCH  19  25
ATOM     25  C   UNK A   0       7.627  -1.856  22.615  0.00  0.00    +0.035 C 
BRANCH  25  26
ATOM     26  C   UNK A   0       6.235  -2.280  23.113  0.00  0.00    +0.037 C 
BRANCH  26  27
ATOM     27  C   UNK A   0       6.011  -3.706  22.674  0.00  0.00    -0.047 A 
ATOM     28  C   UNK A   0       7.053  -4.431  22.080  0.00  0.00    +0.003 A 
ATOM     29  C   UNK A   0       6.931  -5.807  21.898  0.00  0.00    +0.000 A 
ATOM     30  C   UNK A   0       5.766  -6.463  22.291  0.00  0.00    +0.000 A 
ATOM     31  C   UNK A   0       4.706  -5.740  22.837  0.00  0.00    +0.000 A 
ATOM     32  C   UNK A   0       4.825  -4.364  23.025  0.00  0.00    +0.003 A 
ENDBRANCH  26  27
ENDBRANCH  25  26
ENDBRANCH  19  25
ENDBRANCH  17  19
ENDBRANCH   1  17
TORSDOF 11
ENDMDL
MODEL 9
REMARK VINA RESULT:      -6.3      3.084      8.608
REMARK  Name = 
REMARK  13 active torsions:
REMARK  status: ('A' for Active; 'I' for Inactive)
REMARK    1  A    between atoms: C_9  and  C_12
REMARK    2  A    between atoms: C_12  and  O_13
REMARK    3  A    between atoms: C_15  and  C_17
REMARK    4  A    between atoms: C_17  and  C_19
REMARK    5  A    between atoms: C_17  and  N_20
REMARK    6  A    between atoms: N_20  and  C_21
REMARK    7  A    between atoms: C_21  and  C_23
REMARK    8  A    between atoms: C_21  and  C_31
REMARK    9  A    between atoms: C_23  and  C_24
REMARK   10  A    between atoms: C_24  and  C_25
REMARK   11  A    between atoms: C_31  and  O_33
REMARK   12  A    between atoms: O_33  and  C_34
REMARK   13  A    between atoms: C_34  and  C_35
REMARK                            x       y       z     vdW  Elec       q    Type
REMARK                         _______ _______ _______ _____ _____    ______ ____
ROOT
ATOM      1  C   UNK A   1       9.818   1.036  24.262  0.00  0.00    +0.138 C 
ATOM      2  C   UNK A   1      11.229   0.729  24.780  0.00  0.00    +0.034 C 
ENDROOT
BRANCH   1   7
ATOM      3  C   UNK A   1       6.410   4.079  24.463  0.00  0.00    +0.012 C 
ATOM      4  C   UNK A   1       6.965   4.912  23.322  0.00  0.00    +0.039 C 
ATOM      5  C   UNK A   1       8.461   4.579  23.276  0.00  0.00    +0.185 C 
ATOM      6  N   UNK A   1       8.602   3.281  23.992  0.00  0.00    -0.283 N 
ATOM      7  C   UNK A   1       9.734   2.509  23.777  0.00  0.00    +0.233 C 
ATOM      8  O   UNK A   1      10.711   3.051  23.240  0.00  0.00    -0.274 OA
ATOM      9  C   UNK A   1       7.302   2.827  24.505  0.00  0.00    +0.080 C 
ATOM     10  C   UNK A   1       7.210   2.444  25.982  0.00  0.00    +0.023 C 
ATOM     11  C   UNK A   1       7.298   3.765  26.722  0.00  0.00    +0.002 C 
ATOM     12  C   UNK A   1       6.521   4.742  25.849  0.00  0.00    +0.005 C 
BRANCH   5  13
ATOM     13  C   UNK A   1       9.298   5.787  23.757  0.00  0.00    +0.325 C 
ATOM     14  O   UNK A   1       8.909   6.603  24.582  0.00  0.00    -0.249 OA
BRANCH  13  15
ATOM     15  O   UNK A   1      10.464   5.975  23.094  0.00  0.00    -0.479 OA
ATOM     16  H   UNK A   1      10.303   6.089  22.129  0.00  0.00    +0.295 HD
ENDBRANCH  13  15
ENDBRANCH   5  13
ENDBRANCH   1   7
BRANCH   1  17
ATOM     17  N   UNK A   1       9.431   0.100  23.166  0.00  0.00    -0.294 NA
ATOM     18  H   UNK A   1      10.294  -0.254  22.743  0.00  0.00    +0.123 HD
BRANCH  17  19
ATOM     19  C   UNK A   0       8.639  -1.066  23.663  0.00  0.00    +0.164 C 
BRANCH  19  20
ATOM     20  C   UNK A   0       9.537  -2.295  23.872  0.00  0.00    +0.324 C 
ATOM     21  O   UNK A   0      10.454  -2.647  23.143  0.00  0.00    -0.249 OA
BRANCH  20  22
ATOM     22  O   UNK A   0       9.079  -2.989  24.959  0.00  0.00    -0.464 OA
BRANCH  22  23
ATOM     23  C   UNK A   0       9.288  -4.408  24.952  0.00  0.00    +0.229 C 
ATOM     24  C   UNK A   0       8.009  -5.080  25.422  0.00  0.00    +0.048 C 
ENDBRANCH  22  23
ENDBRANCH  20  22
ENDBRANCH  19  20
BRANCH  19  25
ATOM     25  C   UNK A   0       7.487  -1.402  22.712  0.00  0.00    +0.035 C 
BRANCH  25  26
ATOM     26  C   UNK A   0       6.220  -1.925  23.411  0.00  0.00    +0.037 C 
BRANCH  26  27
ATOM     27  C   UNK A   0       5.931  -3.298  22.856  0.00  0.00    -0.047 A 
ATOM     28  C   UNK A   0       6.850  -3.919  22.001  0.00  0.00    +0.003 A 
ATOM     29  C   UNK A   0       6.708  -5.269  21.684  0.00  0.00    +0.000 A 
ATOM     30  C   UNK A   0       5.642  -6.000  22.206  0.00  0.00    +0.000 A 
ATOM     31  C   UNK A   0       4.696  -5.375  23.018  0.00  0.00    +0.000 A 
ATOM     32  C   UNK A   0       4.837  -4.027  23.340  0.00  0.00    +0.003 A 
ENDBRANCH  26  27
ENDBRANCH  25  26
ENDBRANCH  19  25
ENDBRANCH  17  19
ENDBRANCH   1  17
TORSDOF 11
ENDMDL
