MODEL 1
REMARK VINA RESULT:      -7.3      0.000      0.000
REMARK  Name = 
REMARK  6 active torsions:
REMARK  status: ('A' for Active; 'I' for Inactive)
REMARK    1  A    between atoms: N_5  and  C_6
REMARK    2  A    between atoms: C_9  and  S_12
REMARK    3  A    between atoms: S_12  and  N_13
REMARK    4  A    between atoms: N_17  and  C_18
REMARK    5  A    between atoms: C_18  and  N_20
REMARK    6  A    between atoms: N_20  and  C_21
REMARK                            x       y       z     vdW  Elec       q    Type
REMARK                         _______ _______ _______ _____ _____    ______ ____
ROOT
ATOM      1  N   UNL     1       8.666   1.242  25.623  0.00  0.00    -0.327 N 
ATOM      2  H   UNL     1       9.282   2.023  25.833  0.00  0.00    +0.145 HD
ATOM      3  H   UNL     1       8.411   0.684  26.433  0.00  0.00    +0.145 HD
ATOM      4  C   UNL     1       8.689   0.609  24.437  0.00  0.00    +0.219 A 
ATOM      5  N   UNL     1       9.247   1.099  23.259  0.00  0.00    -0.177 N 
ATOM      6  N   UNL     1       9.330   0.075  22.352  0.00  0.00    -0.126 NA
ATOM      7  C   UNL     1       8.570  -0.864  22.928  0.00  0.00    +0.241 A 
ATOM      8  N   UNL     1       8.200  -2.022  22.349  0.00  0.00    -0.282 N 
ATOM      9  H   UNL     1       8.582  -2.196  21.428  0.00  0.00    +0.155 HD
ATOM     10  N   UNL     1       8.238  -0.596  24.224  0.00  0.00    -0.180 NA
ENDROOT
BRANCH   8  11
ATOM     11  C   UNL     1       7.376  -3.064  22.833  0.00  0.00    +0.034 A 
ATOM     12  C   UNL     1       7.953  -4.080  23.610  0.00  0.00    +0.025 A 
ATOM     13  C   UNL     1       7.161  -5.034  24.262  0.00  0.00    +0.030 A 
ATOM     14  C   UNL     1       5.773  -4.990  24.123  0.00  0.00    +0.105 A 
ATOM     15  C   UNL     1       5.178  -4.019  23.321  0.00  0.00    +0.030 A 
ATOM     16  C   UNL     1       5.981  -3.066  22.682  0.00  0.00    +0.025 A 
BRANCH  14  17
ATOM     17  S   UNL     1       4.750  -6.085  25.061  0.00  0.00    +0.056 S 
ATOM     18  O   UNL     1       3.465  -5.472  25.287  0.00  0.00    -0.153 OA
ATOM     19  O   UNL     1       5.533  -6.660  26.136  0.00  0.00    -0.153 OA
BRANCH  17  20
ATOM     20  N   UNL     1       4.481  -7.339  23.978  0.00  0.00    -0.204 NA
ATOM     21  H   UNL     1       4.831  -7.073  23.057  0.00  0.00    +0.144 HD
ATOM     22  H   UNL     1       3.490  -7.589  23.984  0.00  0.00    +0.144 HD
ENDBRANCH  17  20
ENDBRANCH  14  17
ENDBRANCH   8  11
BRANCH   5  23
ATOM     23  C   UNL     1       9.578   2.422  22.877  0.00  0.00    +0.174 C 
ATOM     24  S   UNL     1      10.931   3.299  23.367  0.00  0.00    -0.014 S 
BRANCH  23  25
ATOM     25  N   UNL     1       8.669   2.879  21.922  0.00  0.00    -0.289 N 
ATOM     26  H   UNL     1       8.854   2.660  20.946  0.00  0.00    +0.154 HD
BRANCH  25  27
ATOM     27  C   UNL     1       7.415   3.496  22.171  0.00  0.00    +0.104 A 
ATOM     28  C   UNL     1       7.283   4.862  22.436  0.00  0.00    +0.147 A 
ATOM     29  F   UNL     1       8.359   5.664  22.452  0.00  0.00    -0.203 F 
ATOM     30  C   UNL     1       6.059   5.411  22.819  0.00  0.00    +0.040 A 
ATOM     31  C   UNL     1       4.934   4.596  22.931  0.00  0.00    +0.006 A 
ATOM     32  C   UNL     1       5.040   3.231  22.659  0.00  0.00    +0.040 A 
ATOM     33  C   UNL     1       6.277   2.694  22.301  0.00  0.00    +0.147 A 
ATOM     34  F   UNL     1       6.359   1.375  22.052  0.00  0.00    -0.203 F 
ENDBRANCH  25  27
ENDBRANCH  23  25
ENDBRANCH   5  23
TORSDOF 6
ENDMDL
MODEL 2
REMARK VINA RESULT:      -7.3      0.109      1.564
REMARK  Name = 
REMARK  6 active torsions:
REMARK  status: ('A' for Active; 'I' for Inactive)
REMARK    1  A    between atoms: N_5  and  C_6
REMARK    2  A    between atoms: C_9  and  S_12
REMARK    3  A    between atoms: S_12  and  N_13
REMARK    4  A    between atoms: N_17  and  C_18
REMARK    5  A    between atoms: C_18  and  N_20
REMARK    6  A    between atoms: N_20  and  C_21
REMARK                            x       y       z     vdW  Elec       q    Type
REMARK                         _______ _______ _______ _____ _____    ______ ____
ROOT
ATOM      1  N   UNL     1       8.709   1.204  25.673  0.00  0.00    -0.327 N 
ATOM      2  H   UNL     1       9.334   1.976  25.889  0.00  0.00    +0.145 HD
ATOM      3  H   UNL     1       8.470   0.626  26.474  0.00  0.00    +0.145 HD
ATOM      4  C   UNL     1       8.699   0.603  24.470  0.00  0.00    +0.219 A 
ATOM      5  N   UNL     1       9.232   1.122  23.293  0.00  0.00    -0.177 N 
ATOM      6  N   UNL     1       9.286   0.122  22.357  0.00  0.00    -0.126 NA
ATOM      7  C   UNL     1       8.535  -0.827  22.926  0.00  0.00    +0.241 A 
ATOM      8  N   UNL     1       8.144  -1.968  22.326  0.00  0.00    -0.282 N 
ATOM      9  H   UNL     1       8.503  -2.119  21.391  0.00  0.00    +0.155 HD
ATOM     10  N   UNL     1       8.236  -0.593  24.237  0.00  0.00    -0.180 NA
ENDROOT
BRANCH   8  11
ATOM     11  C   UNL     1       7.327  -3.018  22.801  0.00  0.00    +0.034 A 
ATOM     12  C   UNL     1       7.917  -4.056  23.541  0.00  0.00    +0.025 A 
ATOM     13  C   UNL     1       7.135  -5.023  24.185  0.00  0.00    +0.030 A 
ATOM     14  C   UNL     1       5.743  -4.970  24.079  0.00  0.00    +0.105 A 
ATOM     15  C   UNL     1       5.136  -3.977  23.314  0.00  0.00    +0.030 A 
ATOM     16  C   UNL     1       5.928  -3.011  22.681  0.00  0.00    +0.025 A 
BRANCH  14  17
ATOM     17  S   UNL     1       4.737  -6.084  25.011  0.00  0.00    +0.056 S 
ATOM     18  O   UNL     1       3.442  -5.492  25.237  0.00  0.00    -0.153 OA
ATOM     19  O   UNL     1       5.528  -6.650  26.086  0.00  0.00    -0.153 OA
BRANCH  17  20
ATOM     20  N   UNL     1       4.489  -7.338  23.924  0.00  0.00    -0.204 NA
ATOM     21  H   UNL     1       5.278  -7.986  23.968  0.00  0.00    +0.144 HD
ATOM     22  H   UNL     1       4.324  -6.956  22.991  0.00  0.00    +0.144 HD
ENDBRANCH  17  20
ENDBRANCH  14  17
ENDBRANCH   8  11
BRANCH   5  23
ATOM     23  C   UNL     1       9.560   2.453  22.938  0.00  0.00    +0.174 C 
ATOM     24  S   UNL     1      10.955   3.292  23.376  0.00  0.00    -0.014 S 
BRANCH  23  25
ATOM     25  N   UNL     1       8.603   2.957  22.058  0.00  0.00    -0.289 N 
ATOM     26  H   UNL     1       8.766   2.841  21.060  0.00  0.00    +0.154 HD
BRANCH  25  27
ATOM     27  C   UNL     1       7.333   3.490  22.399  0.00  0.00    +0.104 A 
ATOM     28  C   UNL     1       6.174   2.710  22.448  0.00  0.00    +0.147 A 
ATOM     29  F   UNL     1       6.219   1.395  22.182  0.00  0.00    -0.203 F 
ATOM     30  C   UNL     1       4.919   3.288  22.644  0.00  0.00    +0.040 A 
ATOM     31  C   UNL     1       4.804   4.668  22.809  0.00  0.00    +0.006 A 
ATOM     32  C   UNL     1       5.950   5.464  22.775  0.00  0.00    +0.040 A 
ATOM     33  C   UNL     1       7.195   4.872  22.555  0.00  0.00    +0.147 A 
ATOM     34  F   UNL     1       8.284   5.659  22.517  0.00  0.00    -0.203 F 
ENDBRANCH  25  27
ENDBRANCH  23  25
ENDBRANCH   5  23
TORSDOF 6
ENDMDL
MODEL 3
REMARK VINA RESULT:      -7.1      4.620      8.617
REMARK  Name = 
REMARK  6 active torsions:
REMARK  status: ('A' for Active; 'I' for Inactive)
REMARK    1  A    between atoms: N_5  and  C_6
REMARK    2  A    between atoms: C_9  and  S_12
REMARK    3  A    between atoms: S_12  and  N_13
REMARK    4  A    between atoms: N_17  and  C_18
REMARK    5  A    between atoms: C_18  and  N_20
REMARK    6  A    between atoms: N_20  and  C_21
REMARK                            x       y       z     vdW  Elec       q    Type
REMARK                         _______ _______ _______ _____ _____    ______ ____
ROOT
ATOM      1  N   UNL     1       5.728  -2.503  22.179  0.00  0.00    -0.327 N 
ATOM      2  H   UNL     1       5.380  -3.331  21.704  0.00  0.00    +0.145 HD
ATOM      3  H   UNL     1       5.362  -1.628  21.813  0.00  0.00    +0.145 HD
ATOM      4  C   UNL     1       6.948  -2.459  22.741  0.00  0.00    +0.219 A 
ATOM      5  N   UNL     1       7.738  -3.558  23.069  0.00  0.00    -0.177 N 
ATOM      6  N   UNL     1       9.005  -3.119  23.353  0.00  0.00    -0.126 NA
ATOM      7  C   UNL     1       8.822  -1.798  23.458  0.00  0.00    +0.241 A 
ATOM      8  N   UNL     1       9.748  -0.920  23.888  0.00  0.00    -0.282 N 
ATOM      9  H   UNL     1      10.661  -1.307  24.090  0.00  0.00    +0.155 HD
ATOM     10  N   UNL     1       7.606  -1.366  23.014  0.00  0.00    -0.180 NA
ENDROOT
BRANCH   8  11
ATOM     11  C   UNL     1       9.664   0.478  24.078  0.00  0.00    +0.034 A 
ATOM     12  C   UNL     1      10.421   1.323  23.252  0.00  0.00    +0.025 A 
ATOM     13  C   UNL     1      10.243   2.712  23.275  0.00  0.00    +0.030 A 
ATOM     14  C   UNL     1       9.310   3.274  24.148  0.00  0.00    +0.105 A 
ATOM     15  C   UNL     1       8.578   2.462  25.011  0.00  0.00    +0.030 A 
ATOM     16  C   UNL     1       8.760   1.073  24.972  0.00  0.00    +0.025 A 
BRANCH  14  17
ATOM     17  S   UNL     1       8.959   5.004  24.081  0.00  0.00    +0.056 S 
ATOM     18  O   UNL     1       9.074   5.574  25.401  0.00  0.00    -0.153 OA
ATOM     19  O   UNL     1       7.795   5.220  23.244  0.00  0.00    -0.153 OA
BRANCH  17  20
ATOM     20  N   UNL     1      10.261   5.601  23.205  0.00  0.00    -0.204 NA
ATOM     21  H   UNL     1      10.551   6.497  23.598  0.00  0.00    +0.144 HD
ATOM     22  H   UNL     1      10.014   5.648  22.215  0.00  0.00    +0.144 HD
ENDBRANCH  17  20
ENDBRANCH  14  17
ENDBRANCH   8  11
BRANCH   5  23
ATOM     23  C   UNL     1       7.391  -4.917  23.261  0.00  0.00    +0.174 C 
ATOM     24  S   UNL     1       7.000  -6.030  22.057  0.00  0.00    -0.014 S 
BRANCH  23  25
ATOM     25  N   UNL     1       7.531  -5.256  24.606  0.00  0.00    -0.289 N 
ATOM     26  H   UNL     1       8.444  -5.574  24.924  0.00  0.00    +0.154 HD
BRANCH  25  27
ATOM     27  C   UNL     1       6.572  -5.064  25.634  0.00  0.00    +0.104 A 
ATOM     28  C   UNL     1       5.427  -5.855  25.758  0.00  0.00    +0.147 A 
ATOM     29  F   UNL     1       5.191  -6.860  24.901  0.00  0.00    -0.203 F 
ATOM     30  C   UNL     1       4.432  -5.551  26.688  0.00  0.00    +0.040 A 
ATOM     31  C   UNL     1       4.575  -4.446  27.526  0.00  0.00    +0.006 A 
ATOM     32  C   UNL     1       5.716  -3.648  27.427  0.00  0.00    +0.040 A 
ATOM     33  C   UNL     1       6.691  -3.953  26.475  0.00  0.00    +0.147 A 
ATOM     34  F   UNL     1       7.777  -3.166  26.391  0.00  0.00    -0.203 F 
ENDBRANCH  25  27
ENDBRANCH  23  25
ENDBRANCH   5  23
TORSDOF 6
ENDMDL
MODEL 4
REMARK VINA RESULT:      -6.9      4.715      8.658
REMARK  Name = 
REMARK  6 active torsions:
REMARK  status: ('A' for Active; 'I' for Inactive)
REMARK    1  A    between atoms: N_5  and  C_6
REMARK    2  A    between atoms: C_9  and  S_12
REMARK    3  A    between atoms: S_12  and  N_13
REMARK    4  A    between atoms: N_17  and  C_18
REMARK    5  A    between atoms: C_18  and  N_20
REMARK    6  A    between atoms: N_20  and  C_21
REMARK                            x       y       z     vdW  Elec       q    Type
REMARK                         _______ _______ _______ _____ _____    ______ ____
ROOT
ATOM      1  N   UNL     1       5.185  -2.533  23.515  0.00  0.00    -0.327 N 
ATOM      2  H   UNL     1       4.601  -3.317  23.237  0.00  0.00    +0.145 HD
ATOM      3  H   UNL     1       4.667  -1.714  23.820  0.00  0.00    +0.145 HD
ATOM      4  C   UNL     1       6.396  -2.313  22.972  0.00  0.00    +0.219 A 
ATOM      5  N   UNL     1       7.156  -3.242  22.265  0.00  0.00    -0.177 N 
ATOM      6  N   UNL     1       8.179  -2.583  21.635  0.00  0.00    -0.126 NA
ATOM      7  C   UNL     1       8.138  -1.383  22.224  0.00  0.00    +0.241 A 
ATOM      8  N   UNL     1       9.055  -0.410  22.064  0.00  0.00    -0.282 N 
ATOM      9  H   UNL     1       9.794  -0.606  21.400  0.00  0.00    +0.155 HD
ATOM     10  N   UNL     1       7.020  -1.168  22.977  0.00  0.00    -0.180 NA
ENDROOT
BRANCH   8  11
ATOM     11  C   UNL     1       9.143   0.871  22.655  0.00  0.00    +0.034 A 
ATOM     12  C   UNL     1      10.313   1.220  23.347  0.00  0.00    +0.025 A 
ATOM     13  C   UNL     1      10.527   2.530  23.796  0.00  0.00    +0.030 A 
ATOM     14  C   UNL     1       9.553   3.505  23.572  0.00  0.00    +0.105 A 
ATOM     15  C   UNL     1       8.364   3.174  22.927  0.00  0.00    +0.030 A 
ATOM     16  C   UNL     1       8.166   1.862  22.475  0.00  0.00    +0.025 A 
BRANCH  14  17
ATOM     17  S   UNL     1       9.871   5.192  23.989  0.00  0.00    +0.056 S 
ATOM     18  O   UNL     1      11.263   5.494  23.760  0.00  0.00    -0.153 OA
ATOM     19  O   UNL     1       9.208   5.504  25.239  0.00  0.00    -0.153 OA
BRANCH  17  20
ATOM     20  N   UNL     1       9.017   6.021  22.806  0.00  0.00    -0.204 NA
ATOM     21  H   UNL     1       8.152   5.521  22.600  0.00  0.00    +0.144 HD
ATOM     22  H   UNL     1       9.614   6.163  21.989  0.00  0.00    +0.144 HD
ENDBRANCH  17  20
ENDBRANCH  14  17
ENDBRANCH   8  11
BRANCH   5  23
ATOM     23  C   UNL     1       7.088  -4.656  22.235  0.00  0.00    +0.174 C 
ATOM     24  S   UNL     1       6.318  -5.597  21.068  0.00  0.00    -0.014 S 
BRANCH  23  25
ATOM     25  N   UNL     1       7.863  -5.189  23.265  0.00  0.00    -0.289 N 
ATOM     26  H   UNL     1       8.783  -5.552  23.029  0.00  0.00    +0.154 HD
BRANCH  25  27
ATOM     27  C   UNL     1       7.572  -5.147  24.653  0.00  0.00    +0.104 A 
ATOM     28  C   UNL     1       8.527  -4.808  25.616  0.00  0.00    +0.147 A 
ATOM     29  F   UNL     1       9.780  -4.488  25.257  0.00  0.00    -0.203 F 
ATOM     30  C   UNL     1       8.252  -4.916  26.980  0.00  0.00    +0.040 A 
ATOM     31  C   UNL     1       7.000  -5.357  27.406  0.00  0.00    +0.006 A 
ATOM     32  C   UNL     1       6.027  -5.690  26.462  0.00  0.00    +0.040 A 
ATOM     33  C   UNL     1       6.327  -5.598  25.101  0.00  0.00    +0.147 A 
ATOM     34  F   UNL     1       5.379  -5.932  24.209  0.00  0.00    -0.203 F 
ENDBRANCH  25  27
ENDBRANCH  23  25
ENDBRANCH   5  23
TORSDOF 6
ENDMDL
MODEL 5
REMARK VINA RESULT:      -6.9      2.686      3.306
REMARK  Name = 
REMARK  6 active torsions:
REMARK  status: ('A' for Active; 'I' for Inactive)
REMARK    1  A    between atoms: N_5  and  C_6
REMARK    2  A    between atoms: C_9  and  S_12
REMARK    3  A    between atoms: S_12  and  N_13
REMARK    4  A    between atoms: N_17  and  C_18
REMARK    5  A    between atoms: C_18  and  N_20
REMARK    6  A    between atoms: N_20  and  C_21
REMARK                            x       y       z     vdW  Elec       q    Type
REMARK                         _______ _______ _______ _____ _____    ______ ____
ROOT
ATOM      1  N   UNL     1       6.074  -0.048  23.709  0.00  0.00    -0.327 N 
ATOM      2  H   UNL     1       6.401   0.914  23.756  0.00  0.00    +0.145 HD
ATOM      3  H   UNL     1       5.107  -0.174  23.994  0.00  0.00    +0.145 HD
ATOM      4  C   UNL     1       6.898  -1.095  23.890  0.00  0.00    +0.219 A 
ATOM      5  N   UNL     1       8.288  -1.064  23.814  0.00  0.00    -0.177 N 
ATOM      6  N   UNL     1       8.783  -2.234  24.328  0.00  0.00    -0.126 NA
ATOM      7  C   UNL     1       7.680  -2.987  24.407  0.00  0.00    +0.241 A 
ATOM      8  N   UNL     1       7.658  -4.299  24.710  0.00  0.00    -0.282 N 
ATOM      9  H   UNL     1       8.553  -4.712  24.944  0.00  0.00    +0.155 HD
ATOM     10  N   UNL     1       6.517  -2.296  24.225  0.00  0.00    -0.180 NA
ENDROOT
BRANCH   8  11
ATOM     11  C   UNL     1       6.575  -5.203  24.786  0.00  0.00    +0.034 A 
ATOM     12  C   UNL     1       6.104  -5.595  26.049  0.00  0.00    +0.025 A 
ATOM     13  C   UNL     1       4.927  -6.343  26.185  0.00  0.00    +0.030 A 
ATOM     14  C   UNL     1       4.215  -6.724  25.046  0.00  0.00    +0.105 A 
ATOM     15  C   UNL     1       4.685  -6.386  23.779  0.00  0.00    +0.030 A 
ATOM     16  C   UNL     1       5.859  -5.631  23.657  0.00  0.00    +0.025 A 
BRANCH  14  17
ATOM     17  S   UNL     1       2.650  -7.529  25.204  0.00  0.00    +0.056 S 
ATOM     18  O   UNL     1       2.759  -8.893  24.750  0.00  0.00    -0.153 OA
ATOM     19  O   UNL     1       1.609  -6.637  24.731  0.00  0.00    -0.153 OA
BRANCH  17  20
ATOM     20  N   UNL     1       2.454  -7.609  26.868  0.00  0.00    -0.204 NA
ATOM     21  H   UNL     1       1.860  -6.838  27.177  0.00  0.00    +0.144 HD
ATOM     22  H   UNL     1       3.370  -7.627  27.321  0.00  0.00    +0.144 HD
ENDBRANCH  17  20
ENDBRANCH  14  17
ENDBRANCH   8  11
BRANCH   5  23
ATOM     23  C   UNL     1       9.157  -0.126  23.204  0.00  0.00    +0.174 C 
ATOM     24  S   UNL     1       9.482   0.015  21.556  0.00  0.00    -0.014 S 
BRANCH  23  25
ATOM     25  N   UNL     1       9.636   0.766  24.163  0.00  0.00    -0.289 N 
ATOM     26  H   UNL     1      10.417   0.467  24.743  0.00  0.00    +0.154 HD
BRANCH  25  27
ATOM     27  C   UNL     1       9.254   2.123  24.326  0.00  0.00    +0.104 A 
ATOM     28  C   UNL     1       9.898   3.175  23.669  0.00  0.00    +0.147 A 
ATOM     29  F   UNL     1      10.917   2.938  22.828  0.00  0.00    -0.203 F 
ATOM     30  C   UNL     1       9.595   4.505  23.960  0.00  0.00    +0.040 A 
ATOM     31  C   UNL     1       8.623   4.807  24.913  0.00  0.00    +0.006 A 
ATOM     32  C   UNL     1       7.959   3.772  25.572  0.00  0.00    +0.040 A 
ATOM     33  C   UNL     1       8.291   2.447  25.287  0.00  0.00    +0.147 A 
ATOM     34  F   UNL     1       7.645   1.466  25.940  0.00  0.00    -0.203 F 
ENDBRANCH  25  27
ENDBRANCH  23  25
ENDBRANCH   5  23
TORSDOF 6
ENDMDL
MODEL 6
REMARK VINA RESULT:      -6.9      2.502      3.803
REMARK  Name = 
REMARK  6 active torsions:
REMARK  status: ('A' for Active; 'I' for Inactive)
REMARK    1  A    between atoms: N_5  and  C_6
REMARK    2  A    between atoms: C_9  and  S_12
REMARK    3  A    between atoms: S_12  and  N_13
REMARK    4  A    between atoms: N_17  and  C_18
REMARK    5  A    between atoms: C_18  and  N_20
REMARK    6  A    between atoms: N_20  and  C_21
REMARK                            x       y       z     vdW  Elec       q    Type
REMARK                         _______ _______ _______ _____ _____    ______ ____
ROOT
ATOM      1  N   UNL     1       5.853   1.991  23.032  0.00  0.00    -0.327 N 
ATOM      2  H   UNL     1       5.862   3.007  23.020  0.00  0.00    +0.145 HD
ATOM      3  H   UNL     1       5.042   1.577  22.580  0.00  0.00    +0.145 HD
ATOM      4  C   UNL     1       6.421   1.280  24.021  0.00  0.00    +0.219 A 
ATOM      5  N   UNL     1       7.361   1.753  24.933  0.00  0.00    -0.177 N 
ATOM      6  N   UNL     1       7.490   0.840  25.946  0.00  0.00    -0.126 NA
ATOM      7  C   UNL     1       6.854  -0.223  25.440  0.00  0.00    +0.241 A 
ATOM      8  N   UNL     1       6.836  -1.451  25.994  0.00  0.00    -0.282 N 
ATOM      9  H   UNL     1       7.302  -1.537  26.889  0.00  0.00    +0.155 HD
ATOM     10  N   UNL     1       6.130   0.042  24.314  0.00  0.00    -0.180 NA
ENDROOT
BRANCH   8  11
ATOM     11  C   UNL     1       6.241  -2.650  25.542  0.00  0.00    +0.034 A 
ATOM     12  C   UNL     1       4.841  -2.757  25.545  0.00  0.00    +0.025 A 
ATOM     13  C   UNL     1       4.195  -3.845  24.945  0.00  0.00    +0.030 A 
ATOM     14  C   UNL     1       4.952  -4.855  24.348  0.00  0.00    +0.105 A 
ATOM     15  C   UNL     1       6.343  -4.795  24.371  0.00  0.00    +0.030 A 
ATOM     16  C   UNL     1       6.978  -3.697  24.967  0.00  0.00    +0.025 A 
BRANCH  14  17
ATOM     17  S   UNL     1       4.155  -6.151  23.450  0.00  0.00    +0.056 S 
ATOM     18  O   UNL     1       2.926  -5.659  22.878  0.00  0.00    -0.153 OA
ATOM     19  O   UNL     1       4.211  -7.372  24.230  0.00  0.00    -0.153 OA
BRANCH  17  20
ATOM     20  N   UNL     1       5.202  -6.391  22.161  0.00  0.00    -0.204 NA
ATOM     21  H   UNL     1       6.115  -6.682  22.515  0.00  0.00    +0.144 HD
ATOM     22  H   UNL     1       5.236  -5.548  21.585  0.00  0.00    +0.144 HD
ENDBRANCH  17  20
ENDBRANCH  14  17
ENDBRANCH   8  11
BRANCH   5  23
ATOM     23  C   UNL     1       8.214   2.882  24.874  0.00  0.00    +0.174 C 
ATOM     24  S   UNL     1       7.899   4.410  25.511  0.00  0.00    -0.014 S 
BRANCH  23  25
ATOM     25  N   UNL     1       9.435   2.523  24.304  0.00  0.00    -0.289 N 
ATOM     26  H   UNL     1      10.264   3.041  24.588  0.00  0.00    +0.154 HD
BRANCH  25  27
ATOM     27  C   UNL     1       9.686   1.401  23.472  0.00  0.00    +0.104 A 
ATOM     28  C   UNL     1       9.296   1.352  22.130  0.00  0.00    +0.147 A 
ATOM     29  F   UNL     1       8.668   2.392  21.560  0.00  0.00    -0.203 F 
ATOM     30  C   UNL     1       9.426   0.183  21.380  0.00  0.00    +0.040 A 
ATOM     31  C   UNL     1       9.966  -0.963  21.962  0.00  0.00    +0.006 A 
ATOM     32  C   UNL     1      10.373  -0.933  23.296  0.00  0.00    +0.040 A 
ATOM     33  C   UNL     1      10.214   0.238  24.040  0.00  0.00    +0.147 A 
ATOM     34  F   UNL     1      10.604   0.242  25.326  0.00  0.00    -0.203 F 
ENDBRANCH  25  27
ENDBRANCH  23  25
ENDBRANCH   5  23
TORSDOF 6
ENDMDL
MODEL 7
REMARK VINA RESULT:      -6.6      2.978      4.357
REMARK  Name = 
REMARK  6 active torsions:
REMARK  status: ('A' for Active; 'I' for Inactive)
REMARK    1  A    between atoms: N_5  and  C_6
REMARK    2  A    between atoms: C_9  and  S_12
REMARK    3  A    between atoms: S_12  and  N_13
REMARK    4  A    between atoms: N_17  and  C_18
REMARK    5  A    between atoms: C_18  and  N_20
REMARK    6  A    between atoms: N_20  and  C_21
REMARK                            x       y       z     vdW  Elec       q    Type
REMARK                         _______ _______ _______ _____ _____    ______ ____
ROOT
ATOM      1  N   UNL     1       6.486   3.301  21.673  0.00  0.00    -0.327 N 
ATOM      2  H   UNL     1       6.259   4.289  21.596  0.00  0.00    +0.145 HD
ATOM      3  H   UNL     1       6.253   2.754  20.849  0.00  0.00    +0.145 HD
ATOM      4  C   UNL     1       6.475   2.652  22.851  0.00  0.00    +0.219 A 
ATOM      5  N   UNL     1       6.510   3.244  24.111  0.00  0.00    -0.177 N 
ATOM      6  N   UNL     1       6.201   2.295  25.051  0.00  0.00    -0.126 NA
ATOM      7  C   UNL     1       6.286   1.166  24.339  0.00  0.00    +0.241 A 
ATOM      8  N   UNL     1       6.225  -0.079  24.851  0.00  0.00    -0.282 N 
ATOM      9  H   UNL     1       6.047  -0.137  25.846  0.00  0.00    +0.155 HD
ATOM     10  N   UNL     1       6.371   1.360  22.991  0.00  0.00    -0.180 NA
ENDROOT
BRANCH   8  11
ATOM     11  C   UNL     1       6.341  -1.336  24.216  0.00  0.00    +0.034 A 
ATOM     12  C   UNL     1       5.272  -2.241  24.303  0.00  0.00    +0.025 A 
ATOM     13  C   UNL     1       5.258  -3.422  23.550  0.00  0.00    +0.030 A 
ATOM     14  C   UNL     1       6.332  -3.719  22.709  0.00  0.00    +0.105 A 
ATOM     15  C   UNL     1       7.426  -2.859  22.639  0.00  0.00    +0.030 A 
ATOM     16  C   UNL     1       7.424  -1.677  23.391  0.00  0.00    +0.025 A 
BRANCH  14  17
ATOM     17  S   UNL     1       6.262  -5.120  21.636  0.00  0.00    +0.056 S 
ATOM     18  O   UNL     1       7.407  -5.965  21.866  0.00  0.00    -0.153 OA
ATOM     19  O   UNL     1       5.879  -4.681  20.308  0.00  0.00    -0.153 OA
BRANCH  17  20
ATOM     20  N   UNL     1       4.938  -5.962  22.231  0.00  0.00    -0.204 NA
ATOM     21  H   UNL     1       4.446  -6.411  21.458  0.00  0.00    +0.144 HD
ATOM     22  H   UNL     1       4.350  -5.332  22.781  0.00  0.00    +0.144 HD
ENDBRANCH  17  20
ENDBRANCH  14  17
ENDBRANCH   8  11
BRANCH   5  23
ATOM     23  C   UNL     1       6.918   4.540  24.510  0.00  0.00    +0.174 C 
ATOM     24  S   UNL     1       5.981   5.940  24.479  0.00  0.00    -0.014 S 
BRANCH  23  25
ATOM     25  N   UNL     1       8.201   4.484  25.055  0.00  0.00    -0.289 N 
ATOM     26  H   UNL     1       8.286   4.305  26.053  0.00  0.00    +0.154 HD
BRANCH  25  27
ATOM     27  C   UNL     1       9.427   4.499  24.343  0.00  0.00    +0.104 A 
ATOM     28  C   UNL     1      10.055   3.334  23.893  0.00  0.00    +0.147 A 
ATOM     29  F   UNL     1       9.505   2.130  24.109  0.00  0.00    -0.203 F 
ATOM     30  C   UNL     1      11.329   3.371  23.324  0.00  0.00    +0.040 A 
ATOM     31  C   UNL     1      11.996   4.587  23.183  0.00  0.00    +0.006 A 
ATOM     32  C   UNL     1      11.382   5.764  23.614  0.00  0.00    +0.040 A 
ATOM     33  C   UNL     1      10.117   5.707  24.202  0.00  0.00    +0.147 A 
ATOM     34  F   UNL     1       9.549   6.851  24.619  0.00  0.00    -0.203 F 
ENDBRANCH  25  27
ENDBRANCH  23  25
ENDBRANCH   5  23
TORSDOF 6
ENDMDL
MODEL 8
REMARK VINA RESULT:      -6.6      4.496      8.700
REMARK  Name = 
REMARK  6 active torsions:
REMARK  status: ('A' for Active; 'I' for Inactive)
REMARK    1  A    between atoms: N_5  and  C_6
REMARK    2  A    between atoms: C_9  and  S_12
REMARK    3  A    between atoms: S_12  and  N_13
REMARK    4  A    between atoms: N_17  and  C_18
REMARK    5  A    between atoms: C_18  and  N_20
REMARK    6  A    between atoms: N_20  and  C_21
REMARK                            x       y       z     vdW  Elec       q    Type
REMARK                         _______ _______ _______ _____ _____    ______ ____
ROOT
ATOM      1  N   UNL     1       5.724  -2.145  25.657  0.00  0.00    -0.327 N 
ATOM      2  H   UNL     1       5.288  -3.045  25.837  0.00  0.00    +0.145 HD
ATOM      3  H   UNL     1       5.088  -1.354  25.718  0.00  0.00    +0.145 HD
ATOM      4  C   UNL     1       6.777  -2.011  24.832  0.00  0.00    +0.219 A 
ATOM      5  N   UNL     1       7.617  -3.036  24.404  0.00  0.00    -0.177 N 
ATOM      6  N   UNL     1       8.384  -2.572  23.367  0.00  0.00    -0.126 NA
ATOM      7  C   UNL     1       8.167  -1.254  23.434  0.00  0.00    +0.241 A 
ATOM      8  N   UNL     1       8.827  -0.323  22.717  0.00  0.00    -0.282 N 
ATOM      9  H   UNL     1       9.496  -0.678  22.045  0.00  0.00    +0.155 HD
ATOM     10  N   UNL     1       7.138  -0.897  24.257  0.00  0.00    -0.180 NA
ENDROOT
BRANCH   8  11
ATOM     11  C   UNL     1       8.718   1.085  22.726  0.00  0.00    +0.034 A 
ATOM     12  C   UNL     1       7.831   1.704  21.832  0.00  0.00    +0.025 A 
ATOM     13  C   UNL     1       7.551   3.074  21.918  0.00  0.00    +0.030 A 
ATOM     14  C   UNL     1       8.177   3.847  22.897  0.00  0.00    +0.105 A 
ATOM     15  C   UNL     1       9.096   3.267  23.768  0.00  0.00    +0.030 A 
ATOM     16  C   UNL     1       9.361   1.894  23.677  0.00  0.00    +0.025 A 
BRANCH  14  17
ATOM     17  S   UNL     1       7.720   5.539  23.122  0.00  0.00    +0.056 S 
ATOM     18  O   UNL     1       8.842   6.279  23.643  0.00  0.00    -0.153 OA
ATOM     19  O   UNL     1       6.405   5.597  23.730  0.00  0.00    -0.153 OA
BRANCH  17  20
ATOM     20  N   UNL     1       7.510   6.067  21.543  0.00  0.00    -0.204 NA
ATOM     21  H   UNL     1       7.871   7.017  21.453  0.00  0.00    +0.144 HD
ATOM     22  H   UNL     1       6.527   5.975  21.279  0.00  0.00    +0.144 HD
ENDBRANCH  17  20
ENDBRANCH  14  17
ENDBRANCH   8  11
BRANCH   5  23
ATOM     23  C   UNL     1       7.848  -4.324  24.945  0.00  0.00    +0.174 C 
ATOM     24  S   UNL     1       8.718  -4.682  26.343  0.00  0.00    -0.014 S 
BRANCH  23  25
ATOM     25  N   UNL     1       7.144  -5.278  24.210  0.00  0.00    -0.289 N 
ATOM     26  H   UNL     1       7.678  -5.923  23.633  0.00  0.00    +0.154 HD
BRANCH  25  27
ATOM     27  C   UNL     1       5.755  -5.556  24.291  0.00  0.00    +0.104 A 
ATOM     28  C   UNL     1       5.168  -6.166  25.403  0.00  0.00    +0.147 A 
ATOM     29  F   UNL     1       5.909  -6.510  26.468  0.00  0.00    -0.203 F 
ATOM     30  C   UNL     1       3.829  -6.557  25.394  0.00  0.00    +0.040 A 
ATOM     31  C   UNL     1       3.043  -6.329  24.265  0.00  0.00    +0.006 A 
ATOM     32  C   UNL     1       3.605  -5.709  23.147  0.00  0.00    +0.040 A 
ATOM     33  C   UNL     1       4.953  -5.346  23.165  0.00  0.00    +0.147 A 
ATOM     34  F   UNL     1       5.476  -4.759  22.075  0.00  0.00    -0.203 F 
ENDBRANCH  25  27
ENDBRANCH  23  25
ENDBRANCH   5  23
TORSDOF 6
ENDMDL
MODEL 9
REMARK VINA RESULT:      -6.5      2.678      4.056
REMARK  Name = 
REMARK  6 active torsions:
REMARK  status: ('A' for Active; 'I' for Inactive)
REMARK    1  A    between atoms: N_5  and  C_6
REMARK    2  A    between atoms: C_9  and  S_12
REMARK    3  A    between atoms: S_12  and  N_13
REMARK    4  A    between atoms: N_17  and  C_18
REMARK    5  A    between atoms: C_18  and  N_20
REMARK    6  A    between atoms: N_20  and  C_21
REMARK                            x       y       z     vdW  Elec       q    Type
REMARK                         _______ _______ _______ _____ _____    ______ ____
ROOT
ATOM      1  N   UNL     1       5.347   1.910  23.670  0.00  0.00    -0.327 N 
ATOM      2  H   UNL     1       5.388   2.925  23.697  0.00  0.00    +0.145 HD
ATOM      3  H   UNL     1       4.496   1.539  23.255  0.00  0.00    +0.145 HD
ATOM      4  C   UNL     1       5.955   1.142  24.591  0.00  0.00    +0.219 A 
ATOM      5  N   UNL     1       6.966   1.550  25.457  0.00  0.00    -0.177 N 
ATOM      6  N   UNL     1       7.130   0.592  26.423  0.00  0.00    -0.126 NA
ATOM      7  C   UNL     1       6.429  -0.430  25.918  0.00  0.00    +0.241 A 
ATOM      8  N   UNL     1       6.408  -1.678  26.423  0.00  0.00    -0.282 N 
ATOM      9  H   UNL     1       6.928  -1.815  27.281  0.00  0.00    +0.155 HD
ATOM     10  N   UNL     1       5.644  -0.097  24.853  0.00  0.00    -0.180 NA
ENDROOT
BRANCH   8  11
ATOM     11  C   UNL     1       5.747  -2.840  25.964  0.00  0.00    +0.034 A 
ATOM     12  C   UNL     1       4.429  -3.082  26.382  0.00  0.00    +0.025 A 
ATOM     13  C   UNL     1       3.668  -4.115  25.821  0.00  0.00    +0.030 A 
ATOM     14  C   UNL     1       4.231  -4.935  24.842  0.00  0.00    +0.105 A 
ATOM     15  C   UNL     1       5.552  -4.745  24.442  0.00  0.00    +0.030 A 
ATOM     16  C   UNL     1       6.300  -3.702  25.004  0.00  0.00    +0.025 A 
BRANCH  14  17
ATOM     17  S   UNL     1       3.240  -6.139  24.012  0.00  0.00    +0.056 S 
ATOM     18  O   UNL     1       3.154  -5.813  22.610  0.00  0.00    -0.153 OA
ATOM     19  O   UNL     1       2.066  -6.421  24.814  0.00  0.00    -0.153 OA
BRANCH  17  20
ATOM     20  N   UNL     1       4.193  -7.517  24.109  0.00  0.00    -0.204 NA
ATOM     21  H   UNL     1       3.615  -8.342  23.939  0.00  0.00    +0.144 HD
ATOM     22  H   UNL     1       4.679  -7.535  25.008  0.00  0.00    +0.144 HD
ENDBRANCH  17  20
ENDBRANCH  14  17
ENDBRANCH   8  11
BRANCH   5  23
ATOM     23  C   UNL     1       7.848   2.655  25.388  0.00  0.00    +0.174 C 
ATOM     24  S   UNL     1       7.563   4.205  25.985  0.00  0.00    -0.014 S 
BRANCH  23  25
ATOM     25  N   UNL     1       9.068   2.252  24.845  0.00  0.00    -0.289 N 
ATOM     26  H   UNL     1       9.920   2.618  25.265  0.00  0.00    +0.154 HD
BRANCH  25  27
ATOM     27  C   UNL     1       9.269   1.257  23.854  0.00  0.00    +0.104 A 
ATOM     28  C   UNL     1       9.828   0.008  24.138  0.00  0.00    +0.147 A 
ATOM     29  F   UNL     1      10.194  -0.312  25.389  0.00  0.00    -0.203 F 
ATOM     30  C   UNL     1      10.146  -0.893  23.121  0.00  0.00    +0.040 A 
ATOM     31  C   UNL     1       9.893  -0.560  21.791  0.00  0.00    +0.006 A 
ATOM     32  C   UNL     1       9.324   0.677  21.485  0.00  0.00    +0.040 A 
ATOM     33  C   UNL     1       9.034   1.576  22.513  0.00  0.00    +0.147 A 
ATOM     34  F   UNL     1       8.494   2.765  22.196  0.00  0.00    -0.203 F 
ENDBRANCH  25  27
ENDBRANCH  23  25
ENDBRANCH   5  23
TORSDOF 6
ENDMDL
