MODEL 1
REMARK VINA RESULT:      -8.7      0.000      0.000
REMARK  Name = 
REMARK  8 active torsions:
REMARK  status: ('A' for Active; 'I' for Inactive)
REMARK    1  A    between atoms: C_1  and  N_2
REMARK    2  A    between atoms: C_3  and  C_4
REMARK    3  A    between atoms: C_4  and  N_5
REMARK    4  A    between atoms: N_5  and  C_6
REMARK    5  A    between atoms: C_9  and  C_12
REMARK    6  A    between atoms: C_20  and  C_21
REMARK    7  A    between atoms: C_21  and  N_22
REMARK    8  A    between atoms: C_23  and  C_24
REMARK                            x       y       z     vdW  Elec       q    Type
REMARK                         _______ _______ _______ _____ _____    ______ ____
ROOT
ATOM      1  C   UNL     1       7.853   1.806  21.495  0.00  0.00    +0.150 C 
ATOM      2  N   UNL     1       7.834   1.151  22.781  0.00  0.00    -0.329 N 
ATOM      3  C   UNL     1       8.263  -0.139  22.971  0.00  0.00    +0.069 A 
ATOM      4  C   UNL     1       9.025  -1.011  22.184  0.00  0.00    +0.028 A 
ATOM      5  C   UNL     1       9.134  -2.333  22.622  0.00  0.00    +0.007 A 
ATOM      6  C   UNL     1       8.476  -2.780  23.777  0.00  0.00    -0.026 A 
ATOM      7  C   UNL     1       7.803  -1.848  24.603  0.00  0.00    +0.035 A 
ATOM      8  C   UNL     1       7.709  -0.508  24.190  0.00  0.00    +0.090 A 
ATOM      9  N   UNL     1       7.133   0.587  24.799  0.00  0.00    -0.231 NA
ATOM     10  C   UNL     1       7.281   1.604  23.959  0.00  0.00    +0.128 A 
ENDROOT
BRANCH   6  11
ATOM     11  C   UNL     1       8.485  -4.250  24.111  0.00  0.00    +0.158 C 
BRANCH  11  12
ATOM     12  N   UNL     1       7.193  -4.945  24.189  0.00  0.00    -0.323 N 
ATOM     13  C   UNL     1       6.670  -5.334  25.418  0.00  0.00    +0.069 A 
ATOM     14  C   UNL     1       7.110  -5.180  26.742  0.00  0.00    +0.028 A 
ATOM     15  C   UNL     1       6.307  -5.722  27.754  0.00  0.00    +0.002 A 
ATOM     16  C   UNL     1       5.121  -6.394  27.457  0.00  0.00    +0.002 A 
ATOM     17  C   UNL     1       4.698  -6.537  26.133  0.00  0.00    +0.030 A 
ATOM     18  C   UNL     1       5.488  -5.991  25.110  0.00  0.00    +0.089 A 
ATOM     19  N   UNL     1       5.274  -5.995  23.763  0.00  0.00    -0.233 NA
ATOM     20  C   UNL     1       6.286  -5.340  23.221  0.00  0.00    +0.108 A 
ATOM     21  C   UNL     1       6.348  -5.123  21.754  0.00  0.00    +0.086 C 
ENDBRANCH  11  12
ENDBRANCH   6  11
BRANCH  10  22
ATOM     22  C   UNL     1       6.960   3.057  24.243  0.00  0.00    +0.176 C 
BRANCH  22  23
ATOM     23  N   UNL     1       7.948   3.772  25.060  0.00  0.00    -0.337 N 
ATOM     24  H   UNL     1       7.520   4.487  25.638  0.00  0.00    +0.147 HD
BRANCH  23  25
ATOM     25  C   UNL     1       9.168   4.169  24.511  0.00  0.00    +0.027 A 
ATOM     26  C   UNL     1       9.562   5.502  24.339  0.00  0.00    +0.024 A 
ATOM     27  C   UNL     1      10.792   5.834  23.741  0.00  0.00    +0.017 A 
ATOM     28  C   UNL     1      11.651   4.830  23.292  0.00  0.00    +0.065 A 
ATOM     29  C   UNL     1      11.243   3.496  23.391  0.00  0.00    +0.017 A 
ATOM     30  C   UNL     1      10.010   3.181  23.977  0.00  0.00    +0.024 A 
BRANCH  28  31
ATOM     31  C   UNL     1      12.983   5.166  22.712  0.00  0.00    +0.308 C 
ATOM     32  N   UNL     1      14.088   5.057  23.380  0.00  0.00    -0.099 NA
ATOM     33  H   UNL     1      13.914   4.764  24.346  0.00  0.00    +0.363 HD
ATOM     34  N   UNL     1      13.096   5.611  21.430  0.00  0.00    -0.247 N 
ATOM     35  H   UNL     1      14.069   5.593  21.134  0.00  0.00    +0.288 HD
ATOM     36  H   UNL     1      12.483   5.172  20.753  0.00  0.00    +0.288 HD
ENDBRANCH  28  31
ENDBRANCH  23  25
ENDBRANCH  22  23
ENDBRANCH  10  22
TORSDOF 6
ENDMDL
MODEL 2
REMARK VINA RESULT:      -8.6      0.933      1.712
REMARK  Name = 
REMARK  8 active torsions:
REMARK  status: ('A' for Active; 'I' for Inactive)
REMARK    1  A    between atoms: C_1  and  N_2
REMARK    2  A    between atoms: C_3  and  C_4
REMARK    3  A    between atoms: C_4  and  N_5
REMARK    4  A    between atoms: N_5  and  C_6
REMARK    5  A    between atoms: C_9  and  C_12
REMARK    6  A    between atoms: C_20  and  C_21
REMARK    7  A    between atoms: C_21  and  N_22
REMARK    8  A    between atoms: C_23  and  C_24
REMARK                            x       y       z     vdW  Elec       q    Type
REMARK                         _______ _______ _______ _____ _____    ______ ____
ROOT
ATOM      1  C   UNL     1       7.882   1.791  21.504  0.00  0.00    +0.150 C 
ATOM      2  N   UNL     1       7.652   1.008  22.695  0.00  0.00    -0.329 N 
ATOM      3  C   UNL     1       7.925  -0.334  22.773  0.00  0.00    +0.069 A 
ATOM      4  C   UNL     1       8.679  -1.198  21.969  0.00  0.00    +0.028 A 
ATOM      5  C   UNL     1       8.603  -2.563  22.255  0.00  0.00    +0.007 A 
ATOM      6  C   UNL     1       7.778  -3.054  23.277  0.00  0.00    -0.026 A 
ATOM      7  C   UNL     1       7.113  -2.146  24.136  0.00  0.00    +0.035 A 
ATOM      8  C   UNL     1       7.202  -0.767  23.877  0.00  0.00    +0.090 A 
ATOM      9  N   UNL     1       6.675   0.314  24.551  0.00  0.00    -0.231 NA
ATOM     10  C   UNL     1       7.019   1.392  23.857  0.00  0.00    +0.128 A 
ENDROOT
BRANCH   6  11
ATOM     11  C   UNL     1       7.601  -4.542  23.434  0.00  0.00    +0.158 C 
BRANCH  11  12
ATOM     12  N   UNL     1       7.259  -5.058  24.766  0.00  0.00    -0.323 N 
ATOM     13  C   UNL     1       6.008  -5.615  25.011  0.00  0.00    +0.069 A 
ATOM     14  C   UNL     1       4.888  -5.856  24.201  0.00  0.00    +0.028 A 
ATOM     15  C   UNL     1       3.769  -6.444  24.808  0.00  0.00    +0.002 A 
ATOM     16  C   UNL     1       3.767  -6.769  26.165  0.00  0.00    +0.002 A 
ATOM     17  C   UNL     1       4.892  -6.522  26.956  0.00  0.00    +0.030 A 
ATOM     18  C   UNL     1       6.023  -5.943  26.359  0.00  0.00    +0.089 A 
ATOM     19  N   UNL     1       7.224  -5.625  26.921  0.00  0.00    -0.233 NA
ATOM     20  C   UNL     1       7.969  -5.122  25.953  0.00  0.00    +0.108 A 
ATOM     21  C   UNL     1       9.369  -4.703  26.215  0.00  0.00    +0.086 C 
ENDBRANCH  11  12
ENDBRANCH   6  11
BRANCH  10  22
ATOM     22  C   UNL     1       6.815   2.834  24.278  0.00  0.00    +0.176 C 
BRANCH  22  23
ATOM     23  N   UNL     1       7.867   3.393  25.136  0.00  0.00    -0.337 N 
ATOM     24  H   UNL     1       7.491   4.008  25.849  0.00  0.00    +0.147 HD
BRANCH  23  25
ATOM     25  C   UNL     1       9.060   3.860  24.582  0.00  0.00    +0.027 A 
ATOM     26  C   UNL     1       9.347   5.211  24.346  0.00  0.00    +0.024 A 
ATOM     27  C   UNL     1      10.555   5.612  23.747  0.00  0.00    +0.017 A 
ATOM     28  C   UNL     1      11.501   4.660  23.361  0.00  0.00    +0.065 A 
ATOM     29  C   UNL     1      11.201   3.305  23.524  0.00  0.00    +0.017 A 
ATOM     30  C   UNL     1       9.988   2.919  24.110  0.00  0.00    +0.024 A 
BRANCH  28  31
ATOM     31  C   UNL     1      12.811   5.075  22.781  0.00  0.00    +0.308 C 
ATOM     32  N   UNL     1      13.933   4.944  23.415  0.00  0.00    -0.099 NA
ATOM     33  H   UNL     1      13.788   4.573  24.359  0.00  0.00    +0.363 HD
ATOM     34  N   UNL     1      12.883   5.619  21.534  0.00  0.00    -0.247 N 
ATOM     35  H   UNL     1      13.849   5.650  21.218  0.00  0.00    +0.288 HD
ATOM     36  H   UNL     1      12.265   5.217  20.839  0.00  0.00    +0.288 HD
ENDBRANCH  28  31
ENDBRANCH  23  25
ENDBRANCH  22  23
ENDBRANCH  10  22
TORSDOF 6
ENDMDL
MODEL 3
REMARK VINA RESULT:      -8.6      1.246      1.771
REMARK  Name = 
REMARK  8 active torsions:
REMARK  status: ('A' for Active; 'I' for Inactive)
REMARK    1  A    between atoms: C_1  and  N_2
REMARK    2  A    between atoms: C_3  and  C_4
REMARK    3  A    between atoms: C_4  and  N_5
REMARK    4  A    between atoms: N_5  and  C_6
REMARK    5  A    between atoms: C_9  and  C_12
REMARK    6  A    between atoms: C_20  and  C_21
REMARK    7  A    between atoms: C_21  and  N_22
REMARK    8  A    between atoms: C_23  and  C_24
REMARK                            x       y       z     vdW  Elec       q    Type
REMARK                         _______ _______ _______ _____ _____    ______ ____
ROOT
ATOM      1  C   UNL     1       9.773  -0.332  21.607  0.00  0.00    +0.150 C 
ATOM      2  N   UNL     1       8.774  -0.493  22.637  0.00  0.00    -0.329 N 
ATOM      3  C   UNL     1       8.706  -1.597  23.449  0.00  0.00    +0.069 A 
ATOM      4  C   UNL     1       9.611  -2.630  23.724  0.00  0.00    +0.028 A 
ATOM      5  C   UNL     1       9.141  -3.702  24.486  0.00  0.00    +0.007 A 
ATOM      6  C   UNL     1       7.811  -3.763  24.926  0.00  0.00    -0.026 A 
ATOM      7  C   UNL     1       6.955  -2.654  24.719  0.00  0.00    +0.035 A 
ATOM      8  C   UNL     1       7.422  -1.556  23.977  0.00  0.00    +0.090 A 
ATOM      9  N   UNL     1       6.813  -0.363  23.647  0.00  0.00    -0.231 NA
ATOM     10  C   UNL     1       7.677   0.302  22.890  0.00  0.00    +0.128 A 
ENDROOT
BRANCH   6  11
ATOM     11  C   UNL     1       7.310  -5.016  25.596  0.00  0.00    +0.158 C 
BRANCH  11  12
ATOM     12  N   UNL     1       6.079  -5.628  25.078  0.00  0.00    -0.323 N 
ATOM     13  C   UNL     1       5.023  -5.930  25.932  0.00  0.00    +0.069 A 
ATOM     14  C   UNL     1       4.817  -5.745  27.308  0.00  0.00    +0.028 A 
ATOM     15  C   UNL     1       3.601  -6.192  27.842  0.00  0.00    +0.002 A 
ATOM     16  C   UNL     1       2.637  -6.804  27.040  0.00  0.00    +0.002 A 
ATOM     17  C   UNL     1       2.860  -6.980  25.672  0.00  0.00    +0.030 A 
ATOM     18  C   UNL     1       4.070  -6.528  25.121  0.00  0.00    +0.089 A 
ATOM     19  N   UNL     1       4.498  -6.579  23.828  0.00  0.00    -0.233 NA
ATOM     20  C   UNL     1       5.691  -6.011  23.806  0.00  0.00    +0.108 A 
ATOM     21  C   UNL     1       6.435  -5.863  22.530  0.00  0.00    +0.086 C 
ENDBRANCH  11  12
ENDBRANCH   6  11
BRANCH  10  22
ATOM     22  C   UNL     1       7.537   1.733  22.414  0.00  0.00    +0.176 C 
BRANCH  22  23
ATOM     23  N   UNL     1       7.693   2.760  23.451  0.00  0.00    -0.337 N 
ATOM     24  H   UNL     1       6.859   3.328  23.555  0.00  0.00    +0.147 HD
BRANCH  23  25
ATOM     25  C   UNL     1       8.874   3.497  23.548  0.00  0.00    +0.027 A 
ATOM     26  C   UNL     1       8.928   4.886  23.724  0.00  0.00    +0.024 A 
ATOM     27  C   UNL     1      10.155   5.574  23.773  0.00  0.00    +0.017 A 
ATOM     28  C   UNL     1      11.358   4.879  23.637  0.00  0.00    +0.065 A 
ATOM     29  C   UNL     1      11.321   3.504  23.389  0.00  0.00    +0.017 A 
ATOM     30  C   UNL     1      10.092   2.834  23.329  0.00  0.00    +0.024 A 
BRANCH  28  31
ATOM     31  C   UNL     1      12.666   5.587  23.748  0.00  0.00    +0.308 C 
ATOM     32  N   UNL     1      13.738   5.180  23.145  0.00  0.00    -0.099 NA
ATOM     33  H   UNL     1      13.574   4.304  22.639  0.00  0.00    +0.363 HD
ATOM     34  N   UNL     1      12.790   6.714  24.503  0.00  0.00    -0.247 N 
ATOM     35  H   UNL     1      13.675   7.176  24.305  0.00  0.00    +0.288 HD
ATOM     36  H   UNL     1      12.008   7.357  24.471  0.00  0.00    +0.288 HD
ENDBRANCH  28  31
ENDBRANCH  23  25
ENDBRANCH  22  23
ENDBRANCH  10  22
TORSDOF 6
ENDMDL
MODEL 4
REMARK VINA RESULT:      -8.5      1.221      2.363
REMARK  Name = 
REMARK  8 active torsions:
REMARK  status: ('A' for Active; 'I' for Inactive)
REMARK    1  A    between atoms: C_1  and  N_2
REMARK    2  A    between atoms: C_3  and  C_4
REMARK    3  A    between atoms: C_4  and  N_5
REMARK    4  A    between atoms: N_5  and  C_6
REMARK    5  A    between atoms: C_9  and  C_12
REMARK    6  A    between atoms: C_20  and  C_21
REMARK    7  A    between atoms: C_21  and  N_22
REMARK    8  A    between atoms: C_23  and  C_24
REMARK                            x       y       z     vdW  Elec       q    Type
REMARK                         _______ _______ _______ _____ _____    ______ ____
ROOT
ATOM      1  C   UNL     1       9.060   0.914  21.124  0.00  0.00    +0.150 C 
ATOM      2  N   UNL     1       8.438   0.632  22.396  0.00  0.00    -0.329 N 
ATOM      3  C   UNL     1       8.769  -0.455  23.167  0.00  0.00    +0.069 A 
ATOM      4  C   UNL     1       9.852  -1.342  23.142  0.00  0.00    +0.028 A 
ATOM      5  C   UNL     1       9.784  -2.455  23.983  0.00  0.00    +0.007 A 
ATOM      6  C   UNL     1       8.662  -2.697  24.789  0.00  0.00    -0.026 A 
ATOM      7  C   UNL     1       7.635  -1.726  24.868  0.00  0.00    +0.035 A 
ATOM      8  C   UNL     1       7.703  -0.587  24.048  0.00  0.00    +0.090 A 
ATOM      9  N   UNL     1       6.861   0.499  23.937  0.00  0.00    -0.231 NA
ATOM     10  C   UNL     1       7.362   1.266  22.977  0.00  0.00    +0.128 A 
ENDROOT
BRANCH   6  11
ATOM     11  C   UNL     1       8.563  -3.996  25.547  0.00  0.00    +0.158 C 
BRANCH  11  12
ATOM     12  N   UNL     1       7.336  -4.789  25.396  0.00  0.00    -0.323 N 
ATOM     13  C   UNL     1       6.881  -5.159  24.134  0.00  0.00    +0.069 A 
ATOM     14  C   UNL     1       7.380  -4.962  22.837  0.00  0.00    +0.028 A 
ATOM     15  C   UNL     1       6.631  -5.484  21.774  0.00  0.00    +0.002 A 
ATOM     16  C   UNL     1       5.433  -6.165  21.995  0.00  0.00    +0.002 A 
ATOM     17  C   UNL     1       4.952  -6.351  23.294  0.00  0.00    +0.030 A 
ATOM     18  C   UNL     1       5.697  -5.842  24.369  0.00  0.00    +0.089 A 
ATOM     19  N   UNL     1       5.436  -5.912  25.705  0.00  0.00    -0.233 NA
ATOM     20  C   UNL     1       6.438  -5.304  26.315  0.00  0.00    +0.108 A 
ATOM     21  C   UNL     1       6.490  -5.231  27.797  0.00  0.00    +0.086 C 
ENDBRANCH  11  12
ENDBRANCH   6  11
BRANCH  10  22
ATOM     22  C   UNL     1       6.886   2.653  22.596  0.00  0.00    +0.176 C 
BRANCH  22  23
ATOM     23  N   UNL     1       7.143   3.702  23.590  0.00  0.00    -0.337 N 
ATOM     24  H   UNL     1       6.376   4.362  23.657  0.00  0.00    +0.147 HD
BRANCH  23  25
ATOM     25  C   UNL     1       8.397   4.310  23.673  0.00  0.00    +0.027 A 
ATOM     26  C   UNL     1       8.612   5.692  23.604  0.00  0.00    +0.024 A 
ATOM     27  C   UNL     1       9.909   6.237  23.654  0.00  0.00    +0.017 A 
ATOM     28  C   UNL     1      11.021   5.401  23.764  0.00  0.00    +0.065 A 
ATOM     29  C   UNL     1      10.830   4.017  23.761  0.00  0.00    +0.017 A 
ATOM     30  C   UNL     1       9.535   3.487  23.698  0.00  0.00    +0.024 A 
BRANCH  28  31
ATOM     31  C   UNL     1      12.396   5.969  23.878  0.00  0.00    +0.308 C 
ATOM     32  N   UNL     1      12.769   6.711  24.872  0.00  0.00    -0.099 NA
ATOM     33  H   UNL     1      11.995   6.886  25.520  0.00  0.00    +0.363 HD
ATOM     34  N   UNL     1      13.335   5.726  22.922  0.00  0.00    -0.247 N 
ATOM     35  H   UNL     1      14.256   6.007  23.252  0.00  0.00    +0.288 HD
ATOM     36  H   UNL     1      13.338   4.791  22.531  0.00  0.00    +0.288 HD
ENDBRANCH  28  31
ENDBRANCH  23  25
ENDBRANCH  22  23
ENDBRANCH  10  22
TORSDOF 6
ENDMDL
MODEL 5
REMARK VINA RESULT:      -8.2      2.071     10.452
REMARK  Name = 
REMARK  8 active torsions:
REMARK  status: ('A' for Active; 'I' for Inactive)
REMARK    1  A    between atoms: C_1  and  N_2
REMARK    2  A    between atoms: C_3  and  C_4
REMARK    3  A    between atoms: C_4  and  N_5
REMARK    4  A    between atoms: N_5  and  C_6
REMARK    5  A    between atoms: C_9  and  C_12
REMARK    6  A    between atoms: C_20  and  C_21
REMARK    7  A    between atoms: C_21  and  N_22
REMARK    8  A    between atoms: C_23  and  C_24
REMARK                            x       y       z     vdW  Elec       q    Type
REMARK                         _______ _______ _______ _____ _____    ______ ____
ROOT
ATOM      1  C   UNL     1       8.646  -3.203  25.857  0.00  0.00    +0.150 C 
ATOM      2  N   UNL     1       8.751  -2.800  24.475  0.00  0.00    -0.329 N 
ATOM      3  C   UNL     1       9.345  -1.628  24.079  0.00  0.00    +0.069 A 
ATOM      4  C   UNL     1      10.184  -0.720  24.737  0.00  0.00    +0.028 A 
ATOM      5  C   UNL     1      10.472   0.476  24.076  0.00  0.00    +0.007 A 
ATOM      6  C   UNL     1       9.914   0.775  22.824  0.00  0.00    -0.026 A 
ATOM      7  C   UNL     1       9.156  -0.209  22.143  0.00  0.00    +0.035 A 
ATOM      8  C   UNL     1       8.882  -1.429  22.785  0.00  0.00    +0.090 A 
ATOM      9  N   UNL     1       8.193  -2.542  22.352  0.00  0.00    -0.231 NA
ATOM     10  C   UNL     1       8.185  -3.396  23.368  0.00  0.00    +0.128 A 
ENDROOT
BRANCH   6  11
ATOM     11  C   UNL     1      10.118   2.145  22.232  0.00  0.00    +0.158 C 
BRANCH  11  12
ATOM     12  N   UNL     1       9.658   3.305  23.007  0.00  0.00    -0.323 N 
ATOM     13  C   UNL     1      10.557   4.281  23.424  0.00  0.00    +0.069 A 
ATOM     14  C   UNL     1      11.936   4.460  23.237  0.00  0.00    +0.028 A 
ATOM     15  C   UNL     1      12.525   5.588  23.825  0.00  0.00    +0.002 A 
ATOM     16  C   UNL     1      11.770   6.493  24.572  0.00  0.00    +0.002 A 
ATOM     17  C   UNL     1      10.398   6.300  24.747  0.00  0.00    +0.030 A 
ATOM     18  C   UNL     1       9.794   5.179  24.156  0.00  0.00    +0.089 A 
ATOM     19  N   UNL     1       8.486   4.795  24.179  0.00  0.00    -0.233 NA
ATOM     20  C   UNL     1       8.408   3.687  23.464  0.00  0.00    +0.108 A 
ATOM     21  C   UNL     1       7.102   3.014  23.249  0.00  0.00    +0.086 C 
ENDBRANCH  11  12
ENDBRANCH   6  11
BRANCH  10  22
ATOM     22  C   UNL     1       7.693  -4.829  23.333  0.00  0.00    +0.176 C 
BRANCH  22  23
ATOM     23  N   UNL     1       6.235  -4.994  23.321  0.00  0.00    -0.337 N 
ATOM     24  H   UNL     1       5.761  -4.174  22.958  0.00  0.00    +0.147 HD
BRANCH  23  25
ATOM     25  C   UNL     1       5.577  -5.572  24.407  0.00  0.00    +0.027 A 
ATOM     26  C   UNL     1       4.658  -6.624  24.306  0.00  0.00    +0.024 A 
ATOM     27  C   UNL     1       3.998  -7.136  25.439  0.00  0.00    +0.017 A 
ATOM     28  C   UNL     1       4.243  -6.593  26.702  0.00  0.00    +0.065 A 
ATOM     29  C   UNL     1       5.102  -5.496  26.811  0.00  0.00    +0.017 A 
ATOM     30  C   UNL     1       5.742  -4.989  25.673  0.00  0.00    +0.024 A 
BRANCH  28  31
ATOM     31  C   UNL     1       3.597  -7.165  27.918  0.00  0.00    +0.308 C 
ATOM     32  N   UNL     1       2.345  -7.499  27.957  0.00  0.00    -0.099 NA
ATOM     33  H   UNL     1       1.870  -7.274  27.078  0.00  0.00    +0.363 HD
ATOM     34  N   UNL     1       4.310  -7.365  29.061  0.00  0.00    -0.247 N 
ATOM     35  H   UNL     1       3.781  -7.942  29.711  0.00  0.00    +0.288 HD
ATOM     36  H   UNL     1       5.259  -7.698  28.939  0.00  0.00    +0.288 HD
ENDBRANCH  28  31
ENDBRANCH  23  25
ENDBRANCH  22  23
ENDBRANCH  10  22
TORSDOF 6
ENDMDL
MODEL 6
REMARK VINA RESULT:      -8.2      2.736      4.620
REMARK  Name = 
REMARK  8 active torsions:
REMARK  status: ('A' for Active; 'I' for Inactive)
REMARK    1  A    between atoms: C_1  and  N_2
REMARK    2  A    between atoms: C_3  and  C_4
REMARK    3  A    between atoms: C_4  and  N_5
REMARK    4  A    between atoms: N_5  and  C_6
REMARK    5  A    between atoms: C_9  and  C_12
REMARK    6  A    between atoms: C_20  and  C_21
REMARK    7  A    between atoms: C_21  and  N_22
REMARK    8  A    between atoms: C_23  and  C_24
REMARK                            x       y       z     vdW  Elec       q    Type
REMARK                         _______ _______ _______ _____ _____    ______ ____
ROOT
ATOM      1  C   UNL     1       9.212  -1.130  25.000  0.00  0.00    +0.150 C 
ATOM      2  N   UNL     1       8.237  -1.613  24.051  0.00  0.00    -0.329 N 
ATOM      3  C   UNL     1       6.941  -1.906  24.393  0.00  0.00    +0.069 A 
ATOM      4  C   UNL     1       6.162  -1.597  25.514  0.00  0.00    +0.028 A 
ATOM      5  C   UNL     1       4.910  -2.208  25.609  0.00  0.00    +0.007 A 
ATOM      6  C   UNL     1       4.466  -3.124  24.644  0.00  0.00    -0.026 A 
ATOM      7  C   UNL     1       5.233  -3.331  23.472  0.00  0.00    +0.035 A 
ATOM      8  C   UNL     1       6.483  -2.701  23.350  0.00  0.00    +0.090 A 
ATOM      9  N   UNL     1       7.409  -2.720  22.328  0.00  0.00    -0.231 NA
ATOM     10  C   UNL     1       8.439  -1.994  22.743  0.00  0.00    +0.128 A 
ENDROOT
BRANCH   6  11
ATOM     11  C   UNL     1       3.186  -3.883  24.878  0.00  0.00    +0.158 C 
BRANCH  11  12
ATOM     12  N   UNL     1       3.193  -5.333  24.640  0.00  0.00    -0.323 N 
ATOM     13  C   UNL     1       2.258  -5.918  23.793  0.00  0.00    +0.069 A 
ATOM     14  C   UNL     1       1.219  -5.399  23.004  0.00  0.00    +0.028 A 
ATOM     15  C   UNL     1       0.455  -6.312  22.264  0.00  0.00    +0.002 A 
ATOM     16  C   UNL     1       0.712  -7.682  22.316  0.00  0.00    +0.002 A 
ATOM     17  C   UNL     1       1.750  -8.181  23.107  0.00  0.00    +0.030 A 
ATOM     18  C   UNL     1       2.530  -7.277  23.846  0.00  0.00    +0.089 A 
ATOM     19  N   UNL     1       3.589  -7.526  24.666  0.00  0.00    -0.233 NA
ATOM     20  C   UNL     1       3.999  -6.353  25.116  0.00  0.00    +0.108 A 
ATOM     21  C   UNL     1       5.176  -6.256  26.016  0.00  0.00    +0.086 C 
ENDBRANCH  11  12
ENDBRANCH   6  11
BRANCH  10  22
ATOM     22  C   UNL     1       9.638  -1.580  21.913  0.00  0.00    +0.176 C 
BRANCH  22  23
ATOM     23  N   UNL     1       9.453  -0.372  21.100  0.00  0.00    -0.337 N 
ATOM     24  H   UNL     1      10.074  -0.353  20.298  0.00  0.00    +0.147 HD
BRANCH  23  25
ATOM     25  C   UNL     1       9.303   0.876  21.707  0.00  0.00    +0.027 A 
ATOM     26  C   UNL     1      10.236   1.447  22.582  0.00  0.00    +0.024 A 
ATOM     27  C   UNL     1      10.003   2.693  23.193  0.00  0.00    +0.017 A 
ATOM     28  C   UNL     1       8.819   3.390  22.943  0.00  0.00    +0.065 A 
ATOM     29  C   UNL     1       7.847   2.802  22.130  0.00  0.00    +0.017 A 
ATOM     30  C   UNL     1       8.086   1.555  21.539  0.00  0.00    +0.024 A 
BRANCH  28  31
ATOM     31  C   UNL     1       8.587   4.739  23.537  0.00  0.00    +0.308 C 
ATOM     32  N   UNL     1       8.008   4.912  24.683  0.00  0.00    -0.099 NA
ATOM     33  H   UNL     1       7.700   4.021  25.084  0.00  0.00    +0.363 HD
ATOM     34  N   UNL     1       8.982   5.868  22.885  0.00  0.00    -0.247 N 
ATOM     35  H   UNL     1       8.938   6.670  23.509  0.00  0.00    +0.288 HD
ATOM     36  H   UNL     1       9.869   5.811  22.398  0.00  0.00    +0.288 HD
ENDBRANCH  28  31
ENDBRANCH  23  25
ENDBRANCH  22  23
ENDBRANCH  10  22
TORSDOF 6
ENDMDL
MODEL 7
REMARK VINA RESULT:      -8.2      2.155     10.453
REMARK  Name = 
REMARK  8 active torsions:
REMARK  status: ('A' for Active; 'I' for Inactive)
REMARK    1  A    between atoms: C_1  and  N_2
REMARK    2  A    between atoms: C_3  and  C_4
REMARK    3  A    between atoms: C_4  and  N_5
REMARK    4  A    between atoms: N_5  and  C_6
REMARK    5  A    between atoms: C_9  and  C_12
REMARK    6  A    between atoms: C_20  and  C_21
REMARK    7  A    between atoms: C_21  and  N_22
REMARK    8  A    between atoms: C_23  and  C_24
REMARK                            x       y       z     vdW  Elec       q    Type
REMARK                         _______ _______ _______ _____ _____    ______ ____
ROOT
ATOM      1  C   UNL     1       8.592  -2.902  26.442  0.00  0.00    +0.150 C 
ATOM      2  N   UNL     1       8.819  -2.633  25.042  0.00  0.00    -0.329 N 
ATOM      3  C   UNL     1       9.345  -1.452  24.582  0.00  0.00    +0.069 A 
ATOM      4  C   UNL     1      10.018  -0.401  25.218  0.00  0.00    +0.028 A 
ATOM      5  C   UNL     1      10.271   0.744  24.460  0.00  0.00    +0.007 A 
ATOM      6  C   UNL     1       9.836   0.856  23.132  0.00  0.00    -0.026 A 
ATOM      7  C   UNL     1       9.253  -0.264  22.490  0.00  0.00    +0.035 A 
ATOM      8  C   UNL     1       9.018  -1.434  23.233  0.00  0.00    +0.090 A 
ATOM      9  N   UNL     1       8.487  -2.650  22.858  0.00  0.00    -0.231 NA
ATOM     10  C   UNL     1       8.440  -3.393  23.957  0.00  0.00    +0.128 A 
ENDROOT
BRANCH   6  11
ATOM     11  C   UNL     1       9.982   2.173  22.414  0.00  0.00    +0.158 C 
BRANCH  11  12
ATOM     12  N   UNL     1       9.621   3.397  23.142  0.00  0.00    -0.323 N 
ATOM     13  C   UNL     1      10.593   4.331  23.484  0.00  0.00    +0.069 A 
ATOM     14  C   UNL     1      11.975   4.409  23.252  0.00  0.00    +0.028 A 
ATOM     15  C   UNL     1      12.652   5.524  23.766  0.00  0.00    +0.002 A 
ATOM     16  C   UNL     1      11.980   6.512  24.486  0.00  0.00    +0.002 A 
ATOM     17  C   UNL     1      10.604   6.418  24.707  0.00  0.00    +0.030 A 
ATOM     18  C   UNL     1       9.911   5.311  24.190  0.00  0.00    +0.089 A 
ATOM     19  N   UNL     1       8.583   5.015  24.268  0.00  0.00    -0.233 NA
ATOM     20  C   UNL     1       8.412   3.881  23.612  0.00  0.00    +0.108 A 
ATOM     21  C   UNL     1       7.060   3.286  23.466  0.00  0.00    +0.086 C 
ENDBRANCH  11  12
ENDBRANCH   6  11
BRANCH  10  22
ATOM     22  C   UNL     1       8.086  -4.865  24.032  0.00  0.00    +0.176 C 
BRANCH  22  23
ATOM     23  N   UNL     1       6.947  -5.195  24.897  0.00  0.00    -0.337 N 
ATOM     24  H   UNL     1       7.213  -5.805  25.662  0.00  0.00    +0.147 HD
BRANCH  23  25
ATOM     25  C   UNL     1       5.707  -5.518  24.343  0.00  0.00    +0.027 A 
ATOM     26  C   UNL     1       5.014  -4.711  23.432  0.00  0.00    +0.024 A 
ATOM     27  C   UNL     1       3.746  -5.077  22.942  0.00  0.00    +0.017 A 
ATOM     28  C   UNL     1       3.142  -6.262  23.367  0.00  0.00    +0.065 A 
ATOM     29  C   UNL     1       3.787  -7.043  24.330  0.00  0.00    +0.017 A 
ATOM     30  C   UNL     1       5.043  -6.660  24.819  0.00  0.00    +0.024 A 
BRANCH  28  31
ATOM     31  C   UNL     1       1.827  -6.691  22.810  0.00  0.00    +0.308 C 
ATOM     32  N   UNL     1       0.845  -5.868  22.613  0.00  0.00    -0.099 NA
ATOM     33  H   UNL     1       1.080  -4.923  22.930  0.00  0.00    +0.363 HD
ATOM     34  N   UNL     1       1.598  -7.992  22.479  0.00  0.00    -0.247 N 
ATOM     35  H   UNL     1       0.744  -8.072  21.932  0.00  0.00    +0.288 HD
ATOM     36  H   UNL     1       2.374  -8.484  22.051  0.00  0.00    +0.288 HD
ENDBRANCH  28  31
ENDBRANCH  23  25
ENDBRANCH  22  23
ENDBRANCH  10  22
TORSDOF 6
ENDMDL
MODEL 8
REMARK VINA RESULT:      -8.0      2.325     10.312
REMARK  Name = 
REMARK  8 active torsions:
REMARK  status: ('A' for Active; 'I' for Inactive)
REMARK    1  A    between atoms: C_1  and  N_2
REMARK    2  A    between atoms: C_3  and  C_4
REMARK    3  A    between atoms: C_4  and  N_5
REMARK    4  A    between atoms: N_5  and  C_6
REMARK    5  A    between atoms: C_9  and  C_12
REMARK    6  A    between atoms: C_20  and  C_21
REMARK    7  A    between atoms: C_21  and  N_22
REMARK    8  A    between atoms: C_23  and  C_24
REMARK                            x       y       z     vdW  Elec       q    Type
REMARK                         _______ _______ _______ _____ _____    ______ ____
ROOT
ATOM      1  C   UNL     1      10.564  -1.886  22.987  0.00  0.00    +0.150 C 
ATOM      2  N   UNL     1       9.223  -1.395  22.778  0.00  0.00    -0.329 N 
ATOM      3  C   UNL     1       8.945  -0.089  22.460  0.00  0.00    +0.069 A 
ATOM      4  C   UNL     1       9.742   0.967  22.002  0.00  0.00    +0.028 A 
ATOM      5  C   UNL     1       9.152   2.231  21.940  0.00  0.00    +0.007 A 
ATOM      6  C   UNL     1       7.829   2.444  22.356  0.00  0.00    -0.026 A 
ATOM      7  C   UNL     1       7.022   1.337  22.713  0.00  0.00    +0.035 A 
ATOM      8  C   UNL     1       7.595   0.055  22.754  0.00  0.00    +0.090 A 
ATOM      9  N   UNL     1       7.041  -1.173  23.049  0.00  0.00    -0.231 NA
ATOM     10  C   UNL     1       8.032  -2.055  22.990  0.00  0.00    +0.128 A 
ENDROOT
BRANCH   6  11
ATOM     11  C   UNL     1       7.295   3.851  22.431  0.00  0.00    +0.158 C 
BRANCH  11  12
ATOM     12  N   UNL     1       7.289   4.516  23.741  0.00  0.00    -0.323 N 
ATOM     13  C   UNL     1       8.392   5.246  24.170  0.00  0.00    +0.069 A 
ATOM     14  C   UNL     1       9.627   5.559  23.581  0.00  0.00    +0.028 A 
ATOM     15  C   UNL     1      10.522   6.332  24.333  0.00  0.00    +0.002 A 
ATOM     16  C   UNL     1      10.200   6.768  25.619  0.00  0.00    +0.002 A 
ATOM     17  C   UNL     1       8.966   6.448  26.190  0.00  0.00    +0.030 A 
ATOM     18  C   UNL     1       8.056   5.681  25.444  0.00  0.00    +0.089 A 
ATOM     19  N   UNL     1       6.805   5.262  25.784  0.00  0.00    -0.233 NA
ATOM     20  C   UNL     1       6.340   4.589  24.746  0.00  0.00    +0.108 A 
ATOM     21  C   UNL     1       4.969   4.019  24.765  0.00  0.00    +0.086 C 
ENDBRANCH  11  12
ENDBRANCH   6  11
BRANCH  10  22
ATOM     22  C   UNL     1       7.899  -3.562  23.076  0.00  0.00    +0.176 C 
BRANCH  22  23
ATOM     23  N   UNL     1       7.604  -4.092  24.412  0.00  0.00    -0.337 N 
ATOM     24  H   UNL     1       8.443  -4.379  24.904  0.00  0.00    +0.147 HD
BRANCH  23  25
ATOM     25  C   UNL     1       6.530  -4.962  24.609  0.00  0.00    +0.027 A 
ATOM     26  C   UNL     1       6.184  -5.525  25.844  0.00  0.00    +0.024 A 
ATOM     27  C   UNL     1       5.111  -6.428  25.965  0.00  0.00    +0.017 A 
ATOM     28  C   UNL     1       4.365  -6.791  24.843  0.00  0.00    +0.065 A 
ATOM     29  C   UNL     1       4.741  -6.294  23.591  0.00  0.00    +0.017 A 
ATOM     30  C   UNL     1       5.819  -5.407  23.483  0.00  0.00    +0.024 A 
BRANCH  28  31
ATOM     31  C   UNL     1       3.189  -7.699  24.968  0.00  0.00    +0.308 C 
ATOM     32  N   UNL     1       2.639  -8.281  23.948  0.00  0.00    -0.099 NA
ATOM     33  H   UNL     1       3.084  -7.997  23.070  0.00  0.00    +0.363 HD
ATOM     34  N   UNL     1       2.632  -7.960  26.183  0.00  0.00    -0.247 N 
ATOM     35  H   UNL     1       1.986  -8.744  26.114  0.00  0.00    +0.288 HD
ATOM     36  H   UNL     1       3.281  -8.065  26.954  0.00  0.00    +0.288 HD
ENDBRANCH  28  31
ENDBRANCH  23  25
ENDBRANCH  22  23
ENDBRANCH  10  22
TORSDOF 6
ENDMDL
MODEL 9
REMARK VINA RESULT:      -8.0      2.341      9.969
REMARK  Name = 
REMARK  8 active torsions:
REMARK  status: ('A' for Active; 'I' for Inactive)
REMARK    1  A    between atoms: C_1  and  N_2
REMARK    2  A    between atoms: C_3  and  C_4
REMARK    3  A    between atoms: C_4  and  N_5
REMARK    4  A    between atoms: N_5  and  C_6
REMARK    5  A    between atoms: C_9  and  C_12
REMARK    6  A    between atoms: C_20  and  C_21
REMARK    7  A    between atoms: C_21  and  N_22
REMARK    8  A    between atoms: C_23  and  C_24
REMARK                            x       y       z     vdW  Elec       q    Type
REMARK                         _______ _______ _______ _____ _____    ______ ____
ROOT
ATOM      1  C   UNL     1      10.181  -2.499  23.406  0.00  0.00    +0.150 C 
ATOM      2  N   UNL     1       9.045  -1.612  23.326  0.00  0.00    -0.329 N 
ATOM      3  C   UNL     1       9.125  -0.266  23.582  0.00  0.00    +0.069 A 
ATOM      4  C   UNL     1      10.206   0.617  23.689  0.00  0.00    +0.028 A 
ATOM      5  C   UNL     1       9.930   1.912  24.133  0.00  0.00    +0.007 A 
ATOM      6  C   UNL     1       8.633   2.302  24.495  0.00  0.00    -0.026 A 
ATOM      7  C   UNL     1       7.549   1.417  24.275  0.00  0.00    +0.035 A 
ATOM      8  C   UNL     1       7.809   0.120  23.802  0.00  0.00    +0.090 A 
ATOM      9  N   UNL     1       6.954  -0.917  23.493  0.00  0.00    -0.231 NA
ATOM     10  C   UNL     1       7.720  -1.941  23.137  0.00  0.00    +0.128 A 
ENDROOT
BRANCH   6  11
ATOM     11  C   UNL     1       8.416   3.652  25.128  0.00  0.00    +0.158 C 
BRANCH  11  12
ATOM     12  N   UNL     1       8.396   4.829  24.250  0.00  0.00    -0.323 N 
ATOM     13  C   UNL     1       7.199   5.294  23.714  0.00  0.00    +0.069 A 
ATOM     14  C   UNL     1       5.863   4.885  23.848  0.00  0.00    +0.028 A 
ATOM     15  C   UNL     1       4.896   5.605  23.133  0.00  0.00    +0.002 A 
ATOM     16  C   UNL     1       5.247   6.679  22.316  0.00  0.00    +0.002 A 
ATOM     17  C   UNL     1       6.583   7.073  22.195  0.00  0.00    +0.030 A 
ATOM     18  C   UNL     1       7.561   6.367  22.912  0.00  0.00    +0.089 A 
ATOM     19  N   UNL     1       8.908   6.573  22.960  0.00  0.00    -0.233 NA
ATOM     20  C   UNL     1       9.397   5.666  23.787  0.00  0.00    +0.108 A 
ATOM     21  C   UNL     1      10.848   5.631  24.101  0.00  0.00    +0.086 C 
ENDBRANCH  11  12
ENDBRANCH   6  11
BRANCH  10  22
ATOM     22  C   UNL     1       7.246  -3.257  22.553  0.00  0.00    +0.176 C 
BRANCH  22  23
ATOM     23  N   UNL     1       7.789  -4.461  23.193  0.00  0.00    -0.337 N 
ATOM     24  H   UNL     1       7.925  -5.217  22.531  0.00  0.00    +0.147 HD
BRANCH  23  25
ATOM     25  C   UNL     1       7.295  -4.893  24.425  0.00  0.00    +0.027 A 
ATOM     26  C   UNL     1       5.961  -5.249  24.661  0.00  0.00    +0.024 A 
ATOM     27  C   UNL     1       5.520  -5.639  25.939  0.00  0.00    +0.017 A 
ATOM     28  C   UNL     1       6.411  -5.670  27.013  0.00  0.00    +0.065 A 
ATOM     29  C   UNL     1       7.728  -5.250  26.811  0.00  0.00    +0.017 A 
ATOM     30  C   UNL     1       8.151  -4.852  25.537  0.00  0.00    +0.024 A 
BRANCH  28  31
ATOM     31  C   UNL     1       5.970  -6.139  28.359  0.00  0.00    +0.308 C 
ATOM     32  N   UNL     1       5.940  -5.364  29.397  0.00  0.00    -0.099 NA
ATOM     33  H   UNL     1       6.297  -4.430  29.177  0.00  0.00    +0.363 HD
ATOM     34  N   UNL     1       5.572  -7.427  28.556  0.00  0.00    -0.247 N 
ATOM     35  H   UNL     1       5.116  -7.521  29.461  0.00  0.00    +0.288 HD
ATOM     36  H   UNL     1       5.029  -7.842  27.808  0.00  0.00    +0.288 HD
ENDBRANCH  28  31
ENDBRANCH  23  25
ENDBRANCH  22  23
ENDBRANCH  10  22
TORSDOF 6
ENDMDL
