MODEL 1
REMARK VINA RESULT:      -6.2      0.000      0.000
REMARK  Name = 
REMARK  6 active torsions:
REMARK  status: ('A' for Active; 'I' for Inactive)
REMARK    1  A    between atoms: O_1  and  C_2
REMARK    2  A    between atoms: C_6  and  O_8
REMARK    3  A    between atoms: O_8  and  C_9
REMARK    4  A    between atoms: C_16  and  O_18
REMARK    5  A    between atoms: C_19  and  O_21
REMARK    6  A    between atoms: C_22  and  O_24
REMARK                            x       y       z     vdW  Elec       q    Type
REMARK                         _______ _______ _______ _____ _____    ______ ____
ROOT
ATOM      1  C   UNL     1      10.035   1.426  23.866  0.00  0.00    +0.171 C 
ATOM      2  C   UNL     1      10.158   0.843  22.454  0.00  0.00    +0.178 C 
ATOM      3  C   UNL     1       9.289  -0.416  22.315  0.00  0.00    +0.201 C 
ATOM      4  C   UNL     1       9.601  -1.393  23.468  0.00  0.00    +0.282 C 
ATOM      5  O   UNL     1       9.464  -0.780  24.747  0.00  0.00    -0.346 OA
ATOM      6  C   UNL     1      10.338   0.342  24.902  0.00  0.00    +0.197 C 
ENDROOT
BRANCH   1   7
ATOM      7  O   UNL     1       8.695   1.924  24.025  0.00  0.00    -0.387 OA
ATOM      8  H   UNL     1       8.108   1.162  24.175  0.00  0.00    +0.210 HD
ENDBRANCH   1   7
BRANCH   2   9
ATOM      9  O   UNL     1       9.771   1.847  21.505  0.00  0.00    -0.386 OA
ATOM     10  H   UNL     1      10.377   1.735  20.747  0.00  0.00    +0.210 HD
ENDBRANCH   2   9
BRANCH   3  11
ATOM     11  O   UNL     1       9.554  -1.064  21.058  0.00  0.00    -0.384 OA
ATOM     12  H   UNL     1      10.404  -1.533  21.183  0.00  0.00    +0.210 HD
ENDBRANCH   3  11
BRANCH   4  13
ATOM     13  O   UNL     1       8.705  -2.503  23.336  0.00  0.00    -0.342 OA
BRANCH  13  14
ATOM     14  C   UNL     1       8.548  -3.303  24.518  0.00  0.00    +0.160 C 
ATOM     15  C   UNL     1       7.328  -4.226  24.328  0.00  0.00    +0.229 C 
ATOM     16  C   UNL     1       7.161  -5.182  25.511  0.00  0.00    +0.244 C 
ATOM     17  O   UNL     1       6.069  -5.656  25.816  0.00  0.00    -0.273 OA
ATOM     18  N   UNL     1       8.297  -5.634  26.126  0.00  0.00    -0.313 N 
ATOM     19  H   UNL     1       8.122  -6.289  26.879  0.00  0.00    +0.149 HD
ATOM     20  C   UNL     1       9.558  -4.937  26.095  0.00  0.00    +0.107 C 
ATOM     21  C   UNL     1       9.783  -4.158  24.812  0.00  0.00    +0.053 C 
BRANCH  15  22
ATOM     22  O   UNL     1       7.463  -5.022  23.142  0.00  0.00    -0.380 OA
ATOM     23  H   UNL     1       6.555  -5.232  22.858  0.00  0.00    +0.211 HD
ENDBRANCH  15  22
ENDBRANCH  13  14
ENDBRANCH   4  13
TORSDOF 6
ENDMDL
MODEL 2
REMARK VINA RESULT:      -6.2      2.065      2.379
REMARK  Name = 
REMARK  6 active torsions:
REMARK  status: ('A' for Active; 'I' for Inactive)
REMARK    1  A    between atoms: O_1  and  C_2
REMARK    2  A    between atoms: C_6  and  O_8
REMARK    3  A    between atoms: O_8  and  C_9
REMARK    4  A    between atoms: C_16  and  O_18
REMARK    5  A    between atoms: C_19  and  O_21
REMARK    6  A    between atoms: C_22  and  O_24
REMARK                            x       y       z     vdW  Elec       q    Type
REMARK                         _______ _______ _______ _____ _____    ______ ____
ROOT
ATOM      1  C   UNL     1      10.237   1.763  23.643  0.00  0.00    +0.171 C 
ATOM      2  C   UNL     1      10.138   1.176  22.230  0.00  0.00    +0.178 C 
ATOM      3  C   UNL     1       9.456  -0.200  22.266  0.00  0.00    +0.201 C 
ATOM      4  C   UNL     1      10.150  -1.097  23.313  0.00  0.00    +0.282 C 
ATOM      5  O   UNL     1      10.201  -0.484  24.599  0.00  0.00    -0.346 OA
ATOM      6  C   UNL     1      10.912   0.756  24.576  0.00  0.00    +0.197 C 
ENDROOT
BRANCH   1   7
ATOM      7  O   UNL     1       8.903   2.061  24.092  0.00  0.00    -0.387 OA
ATOM      8  H   UNL     1       8.852   1.848  25.040  0.00  0.00    +0.210 HD
ENDBRANCH   1   7
BRANCH   2   9
ATOM      9  O   UNL     1       9.413   2.094  21.399  0.00  0.00    -0.386 OA
ATOM     10  H   UNL     1       9.316   2.907  21.932  0.00  0.00    +0.210 HD
ENDBRANCH   2   9
BRANCH   3  11
ATOM     11  O   UNL     1       9.539  -0.827  20.974  0.00  0.00    -0.384 OA
ATOM     12  H   UNL     1       9.790  -0.112  20.355  0.00  0.00    +0.210 HD
ENDBRANCH   3  11
BRANCH   4  13
ATOM     13  O   UNL     1       9.420  -2.329  23.363  0.00  0.00    -0.342 OA
BRANCH  13  14
ATOM     14  C   UNL     1       7.990  -2.190  23.358  0.00  0.00    +0.160 C 
ATOM     15  C   UNL     1       7.389  -3.328  22.511  0.00  0.00    +0.229 C 
ATOM     16  C   UNL     1       5.860  -3.303  22.546  0.00  0.00    +0.244 C 
ATOM     17  O   UNL     1       5.180  -3.769  21.634  0.00  0.00    -0.273 OA
ATOM     18  N   UNL     1       5.258  -2.896  23.706  0.00  0.00    -0.313 N 
ATOM     19  H   UNL     1       4.246  -2.933  23.677  0.00  0.00    +0.149 HD
ATOM     20  C   UNL     1       5.892  -2.046  24.682  0.00  0.00    +0.107 C 
ATOM     21  C   UNL     1       7.394  -2.245  24.767  0.00  0.00    +0.053 C 
BRANCH  15  22
ATOM     22  O   UNL     1       7.813  -4.611  22.994  0.00  0.00    -0.380 OA
ATOM     23  H   UNL     1       8.288  -4.439  23.827  0.00  0.00    +0.211 HD
ENDBRANCH  15  22
ENDBRANCH  13  14
ENDBRANCH   4  13
TORSDOF 6
ENDMDL
MODEL 3
REMARK VINA RESULT:      -6.1      2.741      6.249
REMARK  Name = 
REMARK  6 active torsions:
REMARK  status: ('A' for Active; 'I' for Inactive)
REMARK    1  A    between atoms: O_1  and  C_2
REMARK    2  A    between atoms: C_6  and  O_8
REMARK    3  A    between atoms: O_8  and  C_9
REMARK    4  A    between atoms: C_16  and  O_18
REMARK    5  A    between atoms: C_19  and  O_21
REMARK    6  A    between atoms: C_22  and  O_24
REMARK                            x       y       z     vdW  Elec       q    Type
REMARK                         _______ _______ _______ _____ _____    ______ ____
ROOT
ATOM      1  C   UNL     1       6.837  -4.465  24.326  0.00  0.00    +0.171 C 
ATOM      2  C   UNL     1       8.291  -4.313  23.865  0.00  0.00    +0.178 C 
ATOM      3  C   UNL     1       8.886  -2.997  24.390  0.00  0.00    +0.201 C 
ATOM      4  C   UNL     1       7.949  -1.824  24.036  0.00  0.00    +0.282 C 
ATOM      5  O   UNL     1       6.617  -2.039  24.499  0.00  0.00    -0.346 OA
ATOM      6  C   UNL     1       6.037  -3.220  23.939  0.00  0.00    +0.197 C 
ENDROOT
BRANCH   1   7
ATOM      7  O   UNL     1       6.842  -4.646  25.753  0.00  0.00    -0.387 OA
ATOM      8  H   UNL     1       6.404  -5.494  25.948  0.00  0.00    +0.210 HD
ENDBRANCH   1   7
BRANCH   2   9
ATOM      9  O   UNL     1       9.043  -5.444  24.327  0.00  0.00    -0.386 OA
ATOM     10  H   UNL     1       8.835  -6.167  23.704  0.00  0.00    +0.210 HD
ENDBRANCH   2   9
BRANCH   3  11
ATOM     11  O   UNL     1      10.178  -2.768  23.800  0.00  0.00    -0.384 OA
ATOM     12  H   UNL     1       9.996  -2.491  22.880  0.00  0.00    +0.210 HD
ENDBRANCH   3  11
BRANCH   4  13
ATOM     13  O   UNL     1       8.509  -0.644  24.624  0.00  0.00    -0.342 OA
BRANCH  13  14
ATOM     14  C   UNL     1       8.674   0.464  23.726  0.00  0.00    +0.160 C 
ATOM     15  C   UNL     1      10.020   1.149  24.033  0.00  0.00    +0.229 C 
ATOM     16  C   UNL     1      10.311   2.279  23.044  0.00  0.00    +0.244 C 
ATOM     17  O   UNL     1      11.031   3.232  23.336  0.00  0.00    -0.273 OA
ATOM     18  N   UNL     1       9.881   2.120  21.754  0.00  0.00    -0.313 N 
ATOM     19  H   UNL     1      10.132   2.887  21.141  0.00  0.00    +0.149 HD
ATOM     20  C   UNL     1       8.789   1.259  21.373  0.00  0.00    +0.107 C 
ATOM     21  C   UNL     1       8.656   0.032  22.257  0.00  0.00    +0.053 C 
BRANCH  15  22
ATOM     22  O   UNL     1      11.105   0.214  23.955  0.00  0.00    -0.380 OA
ATOM     23  H   UNL     1      11.905   0.747  23.795  0.00  0.00    +0.211 HD
ENDBRANCH  15  22
ENDBRANCH  13  14
ENDBRANCH   4  13
TORSDOF 6
ENDMDL
MODEL 4
REMARK VINA RESULT:      -6.0      1.742      2.333
REMARK  Name = 
REMARK  6 active torsions:
REMARK  status: ('A' for Active; 'I' for Inactive)
REMARK    1  A    between atoms: O_1  and  C_2
REMARK    2  A    between atoms: C_6  and  O_8
REMARK    3  A    between atoms: O_8  and  C_9
REMARK    4  A    between atoms: C_16  and  O_18
REMARK    5  A    between atoms: C_19  and  O_21
REMARK    6  A    between atoms: C_22  and  O_24
REMARK                            x       y       z     vdW  Elec       q    Type
REMARK                         _______ _______ _______ _____ _____    ______ ____
ROOT
ATOM      1  C   UNL     1       9.607   1.862  23.823  0.00  0.00    +0.171 C 
ATOM      2  C   UNL     1      10.054   1.204  22.512  0.00  0.00    +0.178 C 
ATOM      3  C   UNL     1       8.949   0.285  21.968  0.00  0.00    +0.201 C 
ATOM      4  C   UNL     1       8.486  -0.684  23.076  0.00  0.00    +0.282 C 
ATOM      5  O   UNL     1       8.086   0.001  24.260  0.00  0.00    -0.346 OA
ATOM      6  C   UNL     1       9.145   0.789  24.810  0.00  0.00    +0.197 C 
ENDROOT
BRANCH   1   7
ATOM      7  O   UNL     1       8.534   2.771  23.518  0.00  0.00    -0.387 OA
ATOM      8  H   UNL     1       8.610   3.534  24.118  0.00  0.00    +0.210 HD
ENDBRANCH   1   7
BRANCH   2   9
ATOM      9  O   UNL     1      10.384   2.233  21.569  0.00  0.00    -0.386 OA
ATOM     10  H   UNL     1      10.906   2.889  22.072  0.00  0.00    +0.210 HD
ENDBRANCH   2   9
BRANCH   3  11
ATOM     11  O   UNL     1       9.443  -0.473  20.850  0.00  0.00    -0.384 OA
ATOM     12  H   UNL     1      10.401  -0.580  21.013  0.00  0.00    +0.210 HD
ENDBRANCH   3  11
BRANCH   4  13
ATOM     13  O   UNL     1       7.403  -1.452  22.539  0.00  0.00    -0.342 OA
BRANCH  13  14
ATOM     14  C   UNL     1       7.654  -2.861  22.423  0.00  0.00    +0.160 C 
ATOM     15  C   UNL     1       8.129  -3.390  23.790  0.00  0.00    +0.229 C 
ATOM     16  C   UNL     1       8.318  -4.908  23.767  0.00  0.00    +0.244 C 
ATOM     17  O   UNL     1       9.097  -5.480  24.527  0.00  0.00    -0.273 OA
ATOM     18  N   UNL     1       7.466  -5.642  22.986  0.00  0.00    -0.313 N 
ATOM     19  H   UNL     1       7.621  -6.642  23.038  0.00  0.00    +0.149 HD
ATOM     20  C   UNL     1       6.767  -5.110  21.843  0.00  0.00    +0.107 C 
ATOM     21  C   UNL     1       6.410  -3.641  21.987  0.00  0.00    +0.053 C 
BRANCH  15  22
ATOM     22  O   UNL     1       7.177  -3.088  24.820  0.00  0.00    -0.380 OA
ATOM     23  H   UNL     1       7.335  -3.738  25.528  0.00  0.00    +0.211 HD
ENDBRANCH  15  22
ENDBRANCH  13  14
ENDBRANCH   4  13
TORSDOF 6
ENDMDL
MODEL 5
REMARK VINA RESULT:      -5.9      3.911      7.319
REMARK  Name = 
REMARK  6 active torsions:
REMARK  status: ('A' for Active; 'I' for Inactive)
REMARK    1  A    between atoms: O_1  and  C_2
REMARK    2  A    between atoms: C_6  and  O_8
REMARK    3  A    between atoms: O_8  and  C_9
REMARK    4  A    between atoms: C_16  and  O_18
REMARK    5  A    between atoms: C_19  and  O_21
REMARK    6  A    between atoms: C_22  and  O_24
REMARK                            x       y       z     vdW  Elec       q    Type
REMARK                         _______ _______ _______ _____ _____    ______ ____
ROOT
ATOM      1  C   UNL     1       8.124  -1.683  22.604  0.00  0.00    +0.171 C 
ATOM      2  C   UNL     1       9.098  -0.782  21.837  0.00  0.00    +0.178 C 
ATOM      3  C   UNL     1       9.537   0.402  22.711  0.00  0.00    +0.201 C 
ATOM      4  C   UNL     1       8.294   1.108  23.293  0.00  0.00    +0.282 C 
ATOM      5  O   UNL     1       7.439   0.206  23.992  0.00  0.00    -0.346 OA
ATOM      6  C   UNL     1       6.965  -0.848  23.150  0.00  0.00    +0.197 C 
ENDROOT
BRANCH   1   7
ATOM      7  O   UNL     1       8.852  -2.310  23.675  0.00  0.00    -0.387 OA
ATOM      8  H   UNL     1       9.722  -1.877  23.739  0.00  0.00    +0.210 HD
ENDBRANCH   1   7
BRANCH   2   9
ATOM      9  O   UNL     1      10.225  -1.567  21.422  0.00  0.00    -0.386 OA
ATOM     10  H   UNL     1      10.851  -0.932  21.022  0.00  0.00    +0.210 HD
ENDBRANCH   2   9
BRANCH   3  11
ATOM     11  O   UNL     1      10.293   1.342  21.927  0.00  0.00    -0.384 OA
ATOM     12  H   UNL     1      10.997   1.668  22.523  0.00  0.00    +0.210 HD
ENDBRANCH   3  11
BRANCH   4  13
ATOM     13  O   UNL     1       8.765   2.143  24.164  0.00  0.00    -0.342 OA
BRANCH  13  14
ATOM     14  C   UNL     1       8.303   3.465  23.845  0.00  0.00    +0.160 C 
ATOM     15  C   UNL     1       9.499   4.433  23.914  0.00  0.00    +0.229 C 
ATOM     16  C   UNL     1       9.100   5.846  23.484  0.00  0.00    +0.244 C 
ATOM     17  O   UNL     1       9.701   6.843  23.881  0.00  0.00    -0.273 OA
ATOM     18  N   UNL     1       8.152   5.968  22.504  0.00  0.00    -0.313 N 
ATOM     19  H   UNL     1       7.955   6.926  22.241  0.00  0.00    +0.149 HD
ATOM     20  C   UNL     1       7.172   4.953  22.207  0.00  0.00    +0.107 C 
ATOM     21  C   UNL     1       7.675   3.542  22.450  0.00  0.00    +0.053 C 
BRANCH  15  22
ATOM     22  O   UNL     1      10.563   4.003  23.053  0.00  0.00    -0.380 OA
ATOM     23  H   UNL     1      11.291   4.635  23.193  0.00  0.00    +0.211 HD
ENDBRANCH  15  22
ENDBRANCH  13  14
ENDBRANCH   4  13
TORSDOF 6
ENDMDL
MODEL 6
REMARK VINA RESULT:      -5.9      2.331      5.973
REMARK  Name = 
REMARK  6 active torsions:
REMARK  status: ('A' for Active; 'I' for Inactive)
REMARK    1  A    between atoms: O_1  and  C_2
REMARK    2  A    between atoms: C_6  and  O_8
REMARK    3  A    between atoms: O_8  and  C_9
REMARK    4  A    between atoms: C_16  and  O_18
REMARK    5  A    between atoms: C_19  and  O_21
REMARK    6  A    between atoms: C_22  and  O_24
REMARK                            x       y       z     vdW  Elec       q    Type
REMARK                         _______ _______ _______ _____ _____    ______ ____
ROOT
ATOM      1  C   UNL     1       6.359  -5.103  26.114  0.00  0.00    +0.171 C 
ATOM      2  C   UNL     1       7.806  -5.599  26.021  0.00  0.00    +0.178 C 
ATOM      3  C   UNL     1       8.632  -4.680  25.109  0.00  0.00    +0.201 C 
ATOM      4  C   UNL     1       7.904  -4.495  23.761  0.00  0.00    +0.282 C 
ATOM      5  O   UNL     1       6.567  -4.030  23.930  0.00  0.00    -0.346 OA
ATOM      6  C   UNL     1       5.778  -4.932  24.709  0.00  0.00    +0.197 C 
ENDROOT
BRANCH   1   7
ATOM      7  O   UNL     1       6.366  -3.849  26.819  0.00  0.00    -0.387 OA
ATOM      8  H   UNL     1       5.877  -3.971  27.652  0.00  0.00    +0.210 HD
ENDBRANCH   1   7
BRANCH   2   9
ATOM      9  O   UNL     1       8.361  -5.654  27.343  0.00  0.00    -0.386 OA
ATOM     10  H   UNL     1       8.768  -6.539  27.418  0.00  0.00    +0.210 HD
ENDBRANCH   2   9
BRANCH   3  11
ATOM     11  O   UNL     1       9.930  -5.255  24.872  0.00  0.00    -0.384 OA
ATOM     12  H   UNL     1      10.429  -4.572  24.380  0.00  0.00    +0.210 HD
ENDBRANCH   3  11
BRANCH   4  13
ATOM     13  O   UNL     1       8.674  -3.565  22.990  0.00  0.00    -0.342 OA
BRANCH  13  14
ATOM     14  C   UNL     1       8.643  -2.209  23.463  0.00  0.00    +0.160 C 
ATOM     15  C   UNL     1      10.062  -1.619  23.359  0.00  0.00    +0.229 C 
ATOM     16  C   UNL     1      10.084  -0.140  23.751  0.00  0.00    +0.244 C 
ATOM     17  O   UNL     1      11.095   0.403  24.190  0.00  0.00    -0.273 OA
ATOM     18  N   UNL     1       8.984   0.614  23.441  0.00  0.00    -0.313 N 
ATOM     19  H   UNL     1       9.072   1.591  23.696  0.00  0.00    +0.149 HD
ATOM     20  C   UNL     1       7.665   0.066  23.246  0.00  0.00    +0.107 C 
ATOM     21  C   UNL     1       7.676  -1.334  22.660  0.00  0.00    +0.053 C 
BRANCH  15  22
ATOM     22  O   UNL     1      10.567  -1.720  22.020  0.00  0.00    -0.380 OA
ATOM     23  H   UNL     1      10.735  -0.806  21.729  0.00  0.00    +0.211 HD
ENDBRANCH  15  22
ENDBRANCH  13  14
ENDBRANCH   4  13
TORSDOF 6
ENDMDL
MODEL 7
REMARK VINA RESULT:      -5.9      2.202      3.109
REMARK  Name = 
REMARK  6 active torsions:
REMARK  status: ('A' for Active; 'I' for Inactive)
REMARK    1  A    between atoms: O_1  and  C_2
REMARK    2  A    between atoms: C_6  and  O_8
REMARK    3  A    between atoms: O_8  and  C_9
REMARK    4  A    between atoms: C_16  and  O_18
REMARK    5  A    between atoms: C_19  and  O_21
REMARK    6  A    between atoms: C_22  and  O_24
REMARK                            x       y       z     vdW  Elec       q    Type
REMARK                         _______ _______ _______ _____ _____    ______ ____
ROOT
ATOM      1  C   UNL     1       9.919  -0.314  23.253  0.00  0.00    +0.171 C 
ATOM      2  C   UNL     1       8.391  -0.316  23.371  0.00  0.00    +0.178 C 
ATOM      3  C   UNL     1       7.912  -1.558  24.138  0.00  0.00    +0.201 C 
ATOM      4  C   UNL     1       8.533  -2.826  23.515  0.00  0.00    +0.282 C 
ATOM      5  O   UNL     1       9.955  -2.749  23.440  0.00  0.00    -0.346 OA
ATOM      6  C   UNL     1      10.394  -1.639  22.654  0.00  0.00    +0.197 C 
ENDROOT
BRANCH   1   7
ATOM      7  O   UNL     1      10.464  -0.125  24.571  0.00  0.00    -0.387 OA
ATOM      8  H   UNL     1      10.855   0.766  24.608  0.00  0.00    +0.210 HD
ENDBRANCH   1   7
BRANCH   2   9
ATOM      9  O   UNL     1       7.977   0.891  24.028  0.00  0.00    -0.386 OA
ATOM     10  H   UNL     1       7.112   0.684  24.432  0.00  0.00    +0.210 HD
ENDBRANCH   2   9
BRANCH   3  11
ATOM     11  O   UNL     1       6.478  -1.654  24.080  0.00  0.00    -0.384 OA
ATOM     12  H   UNL     1       6.273  -2.591  24.272  0.00  0.00    +0.210 HD
ENDBRANCH   3  11
BRANCH   4  13
ATOM     13  O   UNL     1       8.123  -3.937  24.320  0.00  0.00    -0.342 OA
BRANCH  13  14
ATOM     14  C   UNL     1       7.472  -4.999  23.606  0.00  0.00    +0.160 C 
ATOM     15  C   UNL     1       6.164  -5.354  24.340  0.00  0.00    +0.229 C 
ATOM     16  C   UNL     1       5.364  -6.411  23.576  0.00  0.00    +0.244 C 
ATOM     17  O   UNL     1       4.579  -7.169  24.142  0.00  0.00    -0.273 OA
ATOM     18  N   UNL     1       5.419  -6.384  22.209  0.00  0.00    -0.313 N 
ATOM     19  H   UNL     1       4.843  -7.087  21.761  0.00  0.00    +0.149 HD
ATOM     20  C   UNL     1       6.506  -5.801  21.462  0.00  0.00    +0.107 C 
ATOM     21  C   UNL     1       7.148  -4.616  22.160  0.00  0.00    +0.053 C 
BRANCH  15  22
ATOM     22  O   UNL     1       5.325  -4.200  24.488  0.00  0.00    -0.380 OA
ATOM     23  H   UNL     1       4.415  -4.508  24.325  0.00  0.00    +0.211 HD
ENDBRANCH  15  22
ENDBRANCH  13  14
ENDBRANCH   4  13
TORSDOF 6
ENDMDL
MODEL 8
REMARK VINA RESULT:      -5.8      2.429      5.896
REMARK  Name = 
REMARK  6 active torsions:
REMARK  status: ('A' for Active; 'I' for Inactive)
REMARK    1  A    between atoms: O_1  and  C_2
REMARK    2  A    between atoms: C_6  and  O_8
REMARK    3  A    between atoms: O_8  and  C_9
REMARK    4  A    between atoms: C_16  and  O_18
REMARK    5  A    between atoms: C_19  and  O_21
REMARK    6  A    between atoms: C_22  and  O_24
REMARK                            x       y       z     vdW  Elec       q    Type
REMARK                         _______ _______ _______ _____ _____    ______ ____
ROOT
ATOM      1  C   UNL     1       6.491  -5.324  23.539  0.00  0.00    +0.171 C 
ATOM      2  C   UNL     1       5.804  -3.978  23.282  0.00  0.00    +0.178 C 
ATOM      3  C   UNL     1       6.754  -3.023  22.543  0.00  0.00    +0.201 C 
ATOM      4  C   UNL     1       8.103  -2.951  23.287  0.00  0.00    +0.282 C 
ATOM      5  O   UNL     1       8.679  -4.240  23.487  0.00  0.00    -0.346 OA
ATOM      6  C   UNL     1       7.826  -5.098  24.249  0.00  0.00    +0.197 C 
ENDROOT
BRANCH   1   7
ATOM      7  O   UNL     1       6.691  -5.968  22.268  0.00  0.00    -0.387 OA
ATOM      8  H   UNL     1       7.246  -5.385  21.721  0.00  0.00    +0.210 HD
ENDBRANCH   1   7
BRANCH   2   9
ATOM      9  O   UNL     1       4.607  -4.207  22.526  0.00  0.00    -0.386 OA
ATOM     10  H   UNL     1       3.890  -3.785  23.040  0.00  0.00    +0.210 HD
ENDBRANCH   2   9
BRANCH   3  11
ATOM     11  O   UNL     1       6.178  -1.707  22.475  0.00  0.00    -0.384 OA
ATOM     12  H   UNL     1       5.967  -1.469  23.401  0.00  0.00    +0.210 HD
ENDBRANCH   3  11
BRANCH   4  13
ATOM     13  O   UNL     1       8.971  -2.120  22.509  0.00  0.00    -0.342 OA
BRANCH  13  14
ATOM     14  C   UNL     1       9.663  -1.101  23.248  0.00  0.00    +0.160 C 
ATOM     15  C   UNL     1       9.455   0.250  22.537  0.00  0.00    +0.229 C 
ATOM     16  C   UNL     1      10.081   1.400  23.327  0.00  0.00    +0.244 C 
ATOM     17  O   UNL     1      10.453   2.438  22.783  0.00  0.00    -0.273 OA
ATOM     18  N   UNL     1      10.065   1.315  24.693  0.00  0.00    -0.313 N 
ATOM     19  H   UNL     1      10.464   2.121  25.159  0.00  0.00    +0.149 HD
ATOM     20  C   UNL     1       9.974   0.072  25.417  0.00  0.00    +0.107 C 
ATOM     21  C   UNL     1       9.167  -0.989  24.692  0.00  0.00    +0.053 C 
BRANCH  15  22
ATOM     22  O   UNL     1       8.059   0.541  22.379  0.00  0.00    -0.380 OA
ATOM     23  H   UNL     1       7.600  -0.316  22.439  0.00  0.00    +0.211 HD
ENDBRANCH  15  22
ENDBRANCH  13  14
ENDBRANCH   4  13
TORSDOF 6
ENDMDL
MODEL 9
REMARK VINA RESULT:      -5.8      2.793      6.866
REMARK  Name = 
REMARK  6 active torsions:
REMARK  status: ('A' for Active; 'I' for Inactive)
REMARK    1  A    between atoms: O_1  and  C_2
REMARK    2  A    between atoms: C_6  and  O_8
REMARK    3  A    between atoms: O_8  and  C_9
REMARK    4  A    between atoms: C_16  and  O_18
REMARK    5  A    between atoms: C_19  and  O_21
REMARK    6  A    between atoms: C_22  and  O_24
REMARK                            x       y       z     vdW  Elec       q    Type
REMARK                         _______ _______ _______ _____ _____    ______ ____
ROOT
ATOM      1  C   UNL     1       4.736  -6.385  28.425  0.00  0.00    +0.171 C 
ATOM      2  C   UNL     1       4.615  -6.167  26.913  0.00  0.00    +0.178 C 
ATOM      3  C   UNL     1       6.007  -6.096  26.267  0.00  0.00    +0.201 C 
ATOM      4  C   UNL     1       6.878  -5.069  27.020  0.00  0.00    +0.282 C 
ATOM      5  O   UNL     1       6.944  -5.339  28.418  0.00  0.00    -0.346 OA
ATOM      6  C   UNL     1       5.651  -5.320  29.031  0.00  0.00    +0.197 C 
ENDROOT
BRANCH   1   7
ATOM      7  O   UNL     1       5.273  -7.702  28.640  0.00  0.00    -0.387 OA
ATOM      8  H   UNL     1       4.781  -8.322  28.073  0.00  0.00    +0.210 HD
ENDBRANCH   1   7
BRANCH   2   9
ATOM      9  O   UNL     1       3.837  -7.235  26.353  0.00  0.00    -0.386 OA
ATOM     10  H   UNL     1       4.355  -8.047  26.516  0.00  0.00    +0.210 HD
ENDBRANCH   2   9
BRANCH   3  11
ATOM     11  O   UNL     1       5.893  -5.701  24.888  0.00  0.00    -0.384 OA
ATOM     12  H   UNL     1       6.581  -6.212  24.415  0.00  0.00    +0.210 HD
ENDBRANCH   3  11
BRANCH   4  13
ATOM     13  O   UNL     1       8.183  -5.110  26.431  0.00  0.00    -0.342 OA
BRANCH  13  14
ATOM     14  C   UNL     1       8.707  -3.837  26.022  0.00  0.00    +0.160 C 
ATOM     15  C   UNL     1       9.168  -3.943  24.556  0.00  0.00    +0.229 C 
ATOM     16  C   UNL     1       9.644  -2.592  24.019  0.00  0.00    +0.244 C 
ATOM     17  O   UNL     1      10.457  -2.505  23.102  0.00  0.00    -0.273 OA
ATOM     18  N   UNL     1       9.011  -1.468  24.478  0.00  0.00    -0.313 N 
ATOM     19  H   UNL     1       9.349  -0.608  24.062  0.00  0.00    +0.149 HD
ATOM     20  C   UNL     1       8.312  -1.399  25.737  0.00  0.00    +0.107 C 
ATOM     21  C   UNL     1       7.672  -2.715  26.142  0.00  0.00    +0.053 C 
BRANCH  15  22
ATOM     22  O   UNL     1       8.100  -4.393  23.710  0.00  0.00    -0.380 OA
ATOM     23  H   UNL     1       8.146  -5.366  23.716  0.00  0.00    +0.211 HD
ENDBRANCH  15  22
ENDBRANCH  13  14
ENDBRANCH   4  13
TORSDOF 6
ENDMDL
