MODEL 1
REMARK VINA RESULT:      -5.9      0.000      0.000
REMARK  Name = 
REMARK  1 active torsions:
REMARK  status: ('A' for Active; 'I' for Inactive)
REMARK    1  A    between atoms: C_9  and  C_10
REMARK                            x       y       z     vdW  Elec       q    Type
REMARK                         _______ _______ _______ _____ _____    ______ ____
ROOT
ATOM      1  N   UNL     1       9.779  -0.834  24.997  0.00  0.00    -0.337 N 
ATOM      2  H   UNL     1       9.952  -0.816  25.991  0.00  0.00    +0.167 HD
ATOM      3  C   UNL     1       9.346  -1.935  24.308  0.00  0.00    +0.158 A 
ATOM      4  N   UNL     1       9.203  -1.674  23.025  0.00  0.00    -0.226 NA
ATOM      5  C   UNL     1       9.560  -0.355  22.885  0.00  0.00    +0.090 A 
ATOM      6  C   UNL     1       9.595   0.444  21.733  0.00  0.00    +0.030 A 
ATOM      7  C   UNL     1      10.001   1.780  21.854  0.00  0.00    +0.002 A 
ATOM      8  C   UNL     1      10.362   2.307  23.097  0.00  0.00    +0.002 A 
ATOM      9  C   UNL     1      10.333   1.525  24.258  0.00  0.00    +0.028 A 
ATOM     10  C   UNL     1       9.925   0.199  24.109  0.00  0.00    +0.067 A 
ENDROOT
BRANCH   3  11
ATOM     11  C   UNL     1       9.081  -3.247  24.959  0.00  0.00    +0.113 A 
ATOM     12  N   UNL     1       9.816  -4.376  24.634  0.00  0.00    -0.244 NA
ATOM     13  C   UNL     1       9.376  -5.387  25.351  0.00  0.00    +0.156 A 
ATOM     14  S   UNL     1       8.085  -5.053  26.433  0.00  0.00    -0.083 S 
ATOM     15  C   UNL     1       8.101  -3.420  25.913  0.00  0.00    +0.078 A 
ENDBRANCH   3  11
TORSDOF 1
ENDMDL
MODEL 2
REMARK VINA RESULT:      -5.9      4.170      6.575
REMARK  Name = 
REMARK  1 active torsions:
REMARK  status: ('A' for Active; 'I' for Inactive)
REMARK    1  A    between atoms: C_9  and  C_10
REMARK                            x       y       z     vdW  Elec       q    Type
REMARK                         _______ _______ _______ _____ _____    ______ ____
ROOT
ATOM      1  N   UNL     1      10.030   2.094  22.071  0.00  0.00    -0.337 N 
ATOM      2  H   UNL     1       9.887   2.683  21.264  0.00  0.00    +0.167 HD
ATOM      3  C   UNL     1      10.474   2.542  23.287  0.00  0.00    +0.158 A 
ATOM      4  N   UNL     1      10.569   1.557  24.156  0.00  0.00    -0.226 NA
ATOM      5  C   UNL     1      10.172   0.434  23.473  0.00  0.00    +0.090 A 
ATOM      6  C   UNL     1      10.080  -0.894  23.912  0.00  0.00    +0.030 A 
ATOM      7  C   UNL     1       9.643  -1.872  23.009  0.00  0.00    +0.002 A 
ATOM      8  C   UNL     1       9.303  -1.532  21.697  0.00  0.00    +0.002 A 
ATOM      9  C   UNL     1       9.388  -0.212  21.239  0.00  0.00    +0.028 A 
ATOM     10  C   UNL     1       9.828   0.742  22.159  0.00  0.00    +0.067 A 
ENDROOT
BRANCH   3  11
ATOM     11  C   UNL     1      10.799   3.969  23.555  0.00  0.00    +0.113 A 
ATOM     12  N   UNL     1      12.073   4.471  23.344  0.00  0.00    -0.244 NA
ATOM     13  C   UNL     1      12.082   5.748  23.660  0.00  0.00    +0.156 A 
ATOM     14  S   UNL     1      10.597   6.408  24.216  0.00  0.00    -0.083 S 
ATOM     15  C   UNL     1       9.867   4.870  24.025  0.00  0.00    +0.078 A 
ENDBRANCH   3  11
TORSDOF 1
ENDMDL
MODEL 3
REMARK VINA RESULT:      -5.6      1.688      1.768
REMARK  Name = 
REMARK  1 active torsions:
REMARK  status: ('A' for Active; 'I' for Inactive)
REMARK    1  A    between atoms: C_9  and  C_10
REMARK                            x       y       z     vdW  Elec       q    Type
REMARK                         _______ _______ _______ _____ _____    ______ ____
ROOT
ATOM      1  N   UNL     1       9.543  -1.337  24.200  0.00  0.00    -0.337 N 
ATOM      2  H   UNL     1       9.705  -1.786  25.089  0.00  0.00    +0.167 HD
ATOM      3  C   UNL     1       8.892  -1.921  23.146  0.00  0.00    +0.158 A 
ATOM      4  N   UNL     1       8.823  -1.107  22.112  0.00  0.00    -0.226 NA
ATOM      5  C   UNL     1       9.456   0.043  22.518  0.00  0.00    +0.090 A 
ATOM      6  C   UNL     1       9.674   1.237  21.817  0.00  0.00    +0.030 A 
ATOM      7  C   UNL     1      10.356   2.279  22.461  0.00  0.00    +0.002 A 
ATOM      8  C   UNL     1      10.807   2.133  23.775  0.00  0.00    +0.002 A 
ATOM      9  C   UNL     1      10.598   0.948  24.491  0.00  0.00    +0.028 A 
ATOM     10  C   UNL     1       9.917  -0.073  23.826  0.00  0.00    +0.067 A 
ENDROOT
BRANCH   3  11
ATOM     11  C   UNL     1       8.344  -3.304  23.197  0.00  0.00    +0.113 A 
ATOM     12  N   UNL     1       8.827  -4.239  24.098  0.00  0.00    -0.244 NA
ATOM     13  C   UNL     1       8.173  -5.367  23.927  0.00  0.00    +0.156 A 
ATOM     14  S   UNL     1       6.967  -5.375  22.705  0.00  0.00    -0.083 S 
ATOM     15  C   UNL     1       7.336  -3.737  22.362  0.00  0.00    +0.078 A 
ENDBRANCH   3  11
TORSDOF 1
ENDMDL
MODEL 4
REMARK VINA RESULT:      -5.2      2.727      3.081
REMARK  Name = 
REMARK  1 active torsions:
REMARK  status: ('A' for Active; 'I' for Inactive)
REMARK    1  A    between atoms: C_9  and  C_10
REMARK                            x       y       z     vdW  Elec       q    Type
REMARK                         _______ _______ _______ _____ _____    ______ ____
ROOT
ATOM      1  N   UNL     1       6.512  -0.795  23.005  0.00  0.00    -0.337 N 
ATOM      2  H   UNL     1       5.584  -0.590  23.344  0.00  0.00    +0.167 HD
ATOM      3  C   UNL     1       7.016  -2.058  22.842  0.00  0.00    +0.158 A 
ATOM      4  N   UNL     1       8.251  -2.027  22.384  0.00  0.00    -0.226 NA
ATOM      5  C   UNL     1       8.551  -0.694  22.248  0.00  0.00    +0.090 A 
ATOM      6  C   UNL     1       9.732  -0.085  21.800  0.00  0.00    +0.030 A 
ATOM      7  C   UNL     1       9.790   1.314  21.753  0.00  0.00    +0.002 A 
ATOM      8  C   UNL     1       8.695   2.088  22.143  0.00  0.00    +0.002 A 
ATOM      9  C   UNL     1       7.507   1.499  22.593  0.00  0.00    +0.028 A 
ATOM     10  C   UNL     1       7.476   0.104  22.631  0.00  0.00    +0.067 A 
ENDROOT
BRANCH   3  11
ATOM     11  C   UNL     1       6.239  -3.287  23.156  0.00  0.00    +0.113 A 
ATOM     12  N   UNL     1       5.204  -3.715  22.339  0.00  0.00    -0.244 NA
ATOM     13  C   UNL     1       4.693  -4.816  22.846  0.00  0.00    +0.156 A 
ATOM     14  S   UNL     1       5.407  -5.392  24.298  0.00  0.00    -0.083 S 
ATOM     15  C   UNL     1       6.495  -4.069  24.263  0.00  0.00    +0.078 A 
ENDBRANCH   3  11
TORSDOF 1
ENDMDL
MODEL 5
REMARK VINA RESULT:      -5.2      1.079      1.926
REMARK  Name = 
REMARK  1 active torsions:
REMARK  status: ('A' for Active; 'I' for Inactive)
REMARK    1  A    between atoms: C_9  and  C_10
REMARK                            x       y       z     vdW  Elec       q    Type
REMARK                         _______ _______ _______ _____ _____    ______ ____
ROOT
ATOM      1  N   UNL     1       8.612  -1.429  23.230  0.00  0.00    -0.337 N 
ATOM      2  H   UNL     1       8.173  -2.029  22.547  0.00  0.00    +0.167 HD
ATOM      3  C   UNL     1       8.728  -1.728  24.562  0.00  0.00    +0.158 A 
ATOM      4  N   UNL     1       9.345  -0.767  25.218  0.00  0.00    -0.226 NA
ATOM      5  C   UNL     1       9.635   0.186  24.273  0.00  0.00    +0.090 A 
ATOM      6  C   UNL     1      10.285   1.419  24.417  0.00  0.00    +0.030 A 
ATOM      7  C   UNL     1      10.461   2.223  23.282  0.00  0.00    +0.002 A 
ATOM      8  C   UNL     1      10.000   1.805  22.032  0.00  0.00    +0.002 A 
ATOM      9  C   UNL     1       9.349   0.576  21.867  0.00  0.00    +0.028 A 
ATOM     10  C   UNL     1       9.186  -0.204  23.014  0.00  0.00    +0.067 A 
ENDROOT
BRANCH   3  11
ATOM     11  C   UNL     1       8.210  -2.989  25.158  0.00  0.00    +0.113 A 
ATOM     12  N   UNL     1       8.515  -3.351  26.460  0.00  0.00    -0.244 NA
ATOM     13  C   UNL     1       7.933  -4.501  26.726  0.00  0.00    +0.156 A 
ATOM     14  S   UNL     1       7.007  -5.200  25.461  0.00  0.00    -0.083 S 
ATOM     15  C   UNL     1       7.405  -3.866  24.462  0.00  0.00    +0.078 A 
ENDBRANCH   3  11
TORSDOF 1
ENDMDL
MODEL 6
REMARK VINA RESULT:      -5.1      3.746      6.163
REMARK  Name = 
REMARK  1 active torsions:
REMARK  status: ('A' for Active; 'I' for Inactive)
REMARK    1  A    between atoms: C_9  and  C_10
REMARK                            x       y       z     vdW  Elec       q    Type
REMARK                         _______ _______ _______ _____ _____    ______ ____
ROOT
ATOM      1  N   UNL     1       8.118  -2.933  22.247  0.00  0.00    -0.337 N 
ATOM      2  H   UNL     1       9.067  -3.038  21.922  0.00  0.00    +0.167 HD
ATOM      3  C   UNL     1       7.573  -1.753  22.678  0.00  0.00    +0.158 A 
ATOM      4  N   UNL     1       6.317  -1.908  23.044  0.00  0.00    -0.226 NA
ATOM      5  C   UNL     1       6.045  -3.239  22.841  0.00  0.00    +0.090 A 
ATOM      6  C   UNL     1       4.859  -3.953  23.063  0.00  0.00    +0.030 A 
ATOM      7  C   UNL     1       4.836  -5.324  22.773  0.00  0.00    +0.002 A 
ATOM      8  C   UNL     1       5.970  -5.967  22.271  0.00  0.00    +0.002 A 
ATOM      9  C   UNL     1       7.163  -5.271  22.042  0.00  0.00    +0.028 A 
ATOM     10  C   UNL     1       7.159  -3.908  22.340  0.00  0.00    +0.067 A 
ENDROOT
BRANCH   3  11
ATOM     11  C   UNL     1       8.334  -0.475  22.717  0.00  0.00    +0.113 A 
ATOM     12  N   UNL     1       8.243   0.388  23.797  0.00  0.00    -0.244 NA
ATOM     13  C   UNL     1       9.011   1.431  23.571  0.00  0.00    +0.156 A 
ATOM     14  S   UNL     1       9.870   1.440  22.084  0.00  0.00    -0.083 S 
ATOM     15  C   UNL     1       9.168  -0.074  21.694  0.00  0.00    +0.078 A 
ENDBRANCH   3  11
TORSDOF 1
ENDMDL
MODEL 7
REMARK VINA RESULT:      -5.1      3.571      5.909
REMARK  Name = 
REMARK  1 active torsions:
REMARK  status: ('A' for Active; 'I' for Inactive)
REMARK    1  A    between atoms: C_9  and  C_10
REMARK                            x       y       z     vdW  Elec       q    Type
REMARK                         _______ _______ _______ _____ _____    ______ ____
ROOT
ATOM      1  N   UNL     1       6.577  -1.544  23.081  0.00  0.00    -0.337 N 
ATOM      2  H   UNL     1       6.041  -0.769  23.443  0.00  0.00    +0.167 HD
ATOM      3  C   UNL     1       7.879  -1.457  22.665  0.00  0.00    +0.158 A 
ATOM      4  N   UNL     1       8.327  -2.621  22.242  0.00  0.00    -0.226 NA
ATOM      5  C   UNL     1       7.272  -3.488  22.390  0.00  0.00    +0.090 A 
ATOM      6  C   UNL     1       7.192  -4.856  22.095  0.00  0.00    +0.030 A 
ATOM      7  C   UNL     1       5.985  -5.526  22.340  0.00  0.00    +0.002 A 
ATOM      8  C   UNL     1       4.885  -4.847  22.869  0.00  0.00    +0.002 A 
ATOM      9  C   UNL     1       4.946  -3.481  23.171  0.00  0.00    +0.028 A 
ATOM     10  C   UNL     1       6.159  -2.838  22.917  0.00  0.00    +0.067 A 
ENDROOT
BRANCH   3  11
ATOM     11  C   UNL     1       8.658  -0.190  22.700  0.00  0.00    +0.113 A 
ATOM     12  N   UNL     1       9.179   0.370  21.544  0.00  0.00    -0.244 NA
ATOM     13  C   UNL     1       9.817   1.476  21.861  0.00  0.00    +0.156 A 
ATOM     14  S   UNL     1       9.831   1.901  23.524  0.00  0.00    -0.083 S 
ATOM     15  C   UNL     1       8.909   0.498  23.869  0.00  0.00    +0.078 A 
ENDBRANCH   3  11
TORSDOF 1
ENDMDL
MODEL 8
REMARK VINA RESULT:      -5.1      2.508      5.605
REMARK  Name = 
REMARK  1 active torsions:
REMARK  status: ('A' for Active; 'I' for Inactive)
REMARK    1  A    between atoms: C_9  and  C_10
REMARK                            x       y       z     vdW  Elec       q    Type
REMARK                         _______ _______ _______ _____ _____    ______ ____
ROOT
ATOM      1  N   UNL     1       8.382  -1.290  25.290  0.00  0.00    -0.337 N 
ATOM      2  H   UNL     1       7.855  -0.520  25.677  0.00  0.00    +0.167 HD
ATOM      3  C   UNL     1       9.331  -1.163  24.312  0.00  0.00    +0.158 A 
ATOM      4  N   UNL     1       9.858  -2.329  23.999  0.00  0.00    -0.226 NA
ATOM      5  C   UNL     1       9.222  -3.239  24.806  0.00  0.00    +0.090 A 
ATOM      6  C   UNL     1       9.391  -4.628  24.893  0.00  0.00    +0.030 A 
ATOM      7  C   UNL     1       8.609  -5.344  25.810  0.00  0.00    +0.002 A 
ATOM      8  C   UNL     1       7.681  -4.689  26.622  0.00  0.00    +0.002 A 
ATOM      9  C   UNL     1       7.498  -3.302  26.551  0.00  0.00    +0.028 A 
ATOM     10  C   UNL     1       8.289  -2.614  25.629  0.00  0.00    +0.067 A 
ENDROOT
BRANCH   3  11
ATOM     11  C   UNL     1       9.696   0.144  23.701  0.00  0.00    +0.113 A 
ATOM     12  N   UNL     1       9.660   0.335  22.329  0.00  0.00    -0.244 NA
ATOM     13  C   UNL     1      10.027   1.570  22.064  0.00  0.00    +0.156 A 
ATOM     14  S   UNL     1      10.428   2.555  23.413  0.00  0.00    -0.083 S 
ATOM     15  C   UNL     1      10.088   1.234  24.450  0.00  0.00    +0.078 A 
ENDBRANCH   3  11
TORSDOF 1
ENDMDL
MODEL 9
REMARK VINA RESULT:      -5.0      4.982      6.671
REMARK  Name = 
REMARK  1 active torsions:
REMARK  status: ('A' for Active; 'I' for Inactive)
REMARK    1  A    between atoms: C_9  and  C_10
REMARK                            x       y       z     vdW  Elec       q    Type
REMARK                         _______ _______ _______ _____ _____    ______ ____
ROOT
ATOM      1  N   UNL     1       5.649  -6.030  25.772  0.00  0.00    -0.337 N 
ATOM      2  H   UNL     1       5.131  -6.407  26.551  0.00  0.00    +0.167 HD
ATOM      3  C   UNL     1       5.207  -6.028  24.476  0.00  0.00    +0.158 A 
ATOM      4  N   UNL     1       6.087  -5.472  23.668  0.00  0.00    -0.226 NA
ATOM      5  C   UNL     1       7.135  -5.104  24.477  0.00  0.00    +0.090 A 
ATOM      6  C   UNL     1       8.341  -4.471  24.144  0.00  0.00    +0.030 A 
ATOM      7  C   UNL     1       9.261  -4.200  25.166  0.00  0.00    +0.002 A 
ATOM      8  C   UNL     1       8.984  -4.551  26.489  0.00  0.00    +0.002 A 
ATOM      9  C   UNL     1       7.785  -5.183  26.841  0.00  0.00    +0.028 A 
ATOM     10  C   UNL     1       6.887  -5.442  25.804  0.00  0.00    +0.067 A 
ENDROOT
BRANCH   3  11
ATOM     11  C   UNL     1       3.893  -6.593  24.067  0.00  0.00    +0.113 A 
ATOM     12  N   UNL     1       3.423  -7.785  24.595  0.00  0.00    -0.244 NA
ATOM     13  C   UNL     1       2.249  -8.048  24.065  0.00  0.00    +0.156 A 
ATOM     14  S   UNL     1       1.651  -6.910  22.927  0.00  0.00    -0.083 S 
ATOM     15  C   UNL     1       3.070  -5.976  23.149  0.00  0.00    +0.078 A 
ENDBRANCH   3  11
TORSDOF 1
ENDMDL
