MODEL 1
REMARK VINA RESULT:      -7.7      0.000      0.000
REMARK  Name = 
REMARK  7 active torsions:
REMARK  status: ('A' for Active; 'I' for Inactive)
REMARK    1  A    between atoms: C_2  and  C_19
REMARK    2  A    between atoms: C_7  and  C_9
REMARK    3  A    between atoms: C_9  and  N_10
REMARK    4  A    between atoms: N_10  and  C_11
REMARK    5  A    between atoms: N_21  and  C_22
REMARK    6  A    between atoms: C_22  and  C_23
REMARK    7  A    between atoms: C_26  and  C_29
REMARK                            x       y       z     vdW  Elec       q    Type
REMARK                         _______ _______ _______ _____ _____    ______ ____
ROOT
ATOM      1  C   UNL     1       6.768  -2.737  23.122  0.00  0.00    +0.162 C 
ATOM      2  N   UNL     1       7.255  -4.002  23.694  0.00  0.00    -0.289 N 
ATOM      3  C   UNL     1       8.536  -4.318  24.111  0.00  0.00    +0.230 C 
ATOM      4  O   UNL     1       8.836  -5.463  24.460  0.00  0.00    -0.274 OA
ATOM      5  C   UNL     1       6.271  -5.062  23.518  0.00  0.00    +0.108 C 
ATOM      6  C   UNL     1       5.040  -4.382  22.934  0.00  0.00    +0.021 C 
ATOM      7  C   UNL     1       5.618  -3.174  22.208  0.00  0.00    +0.033 C 
ENDROOT
BRANCH   1   8
ATOM      8  C   UNL     1       6.275  -1.707  24.170  0.00  0.00    +0.234 C 
ATOM      9  N   UNL     1       6.188  -0.409  23.728  0.00  0.00    -0.310 N 
ATOM     10  H   UNL     1       6.514  -0.174  22.804  0.00  0.00    +0.149 HD
ATOM     11  O   UNL     1       5.869  -2.043  25.280  0.00  0.00    -0.274 OA
BRANCH   9  12
ATOM     12  C   UNL     1       5.721   0.674  24.565  0.00  0.00    +0.139 C 
BRANCH  12  13
ATOM     13  C   UNL     1       6.230   1.994  24.042  0.00  0.00    -0.030 A 
ATOM     14  C   UNL     1       7.128   2.759  24.805  0.00  0.00    +0.006 A 
ATOM     15  C   UNL     1       7.642   3.960  24.312  0.00  0.00    +0.016 A 
ATOM     16  C   UNL     1       7.253   4.419  23.052  0.00  0.00    +0.065 A 
ATOM     17  C   UNL     1       6.330   3.683  22.301  0.00  0.00    +0.016 A 
ATOM     18  C   UNL     1       5.823   2.478  22.791  0.00  0.00    +0.006 A 
BRANCH  16  19
ATOM     19  C   UNL     1       7.834   5.687  22.518  0.00  0.00    +0.308 C 
ATOM     20  N   UNL     1       8.842   6.286  23.067  0.00  0.00    -0.099 NA
ATOM     21  H   UNL     1       9.137   5.814  23.925  0.00  0.00    +0.363 HD
ATOM     22  N   UNL     1       7.313   6.274  21.405  0.00  0.00    -0.247 N 
ATOM     23  H   UNL     1       7.930   7.007  21.066  0.00  0.00    +0.288 HD
ATOM     24  H   UNL     1       7.010   5.649  20.669  0.00  0.00    +0.288 HD
ENDBRANCH  16  19
ENDBRANCH  12  13
ENDBRANCH   9  12
ENDBRANCH   1   8
BRANCH   3  25
ATOM     25  C   UNL     1       9.570  -3.176  24.200  0.00  0.00    +0.178 C 
BRANCH  25  26
ATOM     26  N   UNL     1       9.815  -2.514  22.909  0.00  0.00    -0.305 NA
ATOM     27  H   UNL     1       9.043  -2.783  22.292  0.00  0.00    +0.123 HD
BRANCH  26  28
ATOM     28  C   UNL     1       9.849  -1.035  22.951  0.00  0.00    +0.054 C 
ATOM     29  C   UNL     1       9.542  -0.660  24.414  0.00  0.00    +0.019 C 
ATOM     30  C   UNL     1       9.692   0.809  24.809  0.00  0.00    +0.002 C 
ATOM     31  C   UNL     1      10.965   1.482  24.295  0.00  0.00    +0.000 C 
ATOM     32  C   UNL     1      10.767   2.388  23.078  0.00  0.00    +0.000 C 
ATOM     33  C   UNL     1      10.347   1.724  21.764  0.00  0.00    +0.000 C 
ATOM     34  C   UNL     1       8.938   1.127  21.778  0.00  0.00    +0.002 C 
ATOM     35  C   UNL     1       8.877  -0.396  21.942  0.00  0.00    +0.019 C 
ENDBRANCH  26  28
ENDBRANCH  25  26
ENDBRANCH   3  25
TORSDOF 7
ENDMDL
MODEL 2
REMARK VINA RESULT:      -7.7      1.650      4.362
REMARK  Name = 
REMARK  7 active torsions:
REMARK  status: ('A' for Active; 'I' for Inactive)
REMARK    1  A    between atoms: C_2  and  C_19
REMARK    2  A    between atoms: C_7  and  C_9
REMARK    3  A    between atoms: C_9  and  N_10
REMARK    4  A    between atoms: N_10  and  C_11
REMARK    5  A    between atoms: N_21  and  C_22
REMARK    6  A    between atoms: C_22  and  C_23
REMARK    7  A    between atoms: C_26  and  C_29
REMARK                            x       y       z     vdW  Elec       q    Type
REMARK                         _______ _______ _______ _____ _____    ______ ____
ROOT
ATOM      1  C   UNL     1       7.766  -3.356  25.765  0.00  0.00    +0.162 C 
ATOM      2  N   UNL     1       6.368  -3.399  25.308  0.00  0.00    -0.289 N 
ATOM      3  C   UNL     1       5.490  -2.344  25.136  0.00  0.00    +0.230 C 
ATOM      4  O   UNL     1       4.301  -2.533  24.862  0.00  0.00    -0.274 OA
ATOM      5  C   UNL     1       5.863  -4.766  25.315  0.00  0.00    +0.108 C 
ATOM      6  C   UNL     1       7.061  -5.641  25.656  0.00  0.00    +0.021 C 
ATOM      7  C   UNL     1       7.959  -4.709  26.459  0.00  0.00    +0.033 C 
ENDROOT
BRANCH   1   8
ATOM      8  C   UNL     1       8.806  -3.168  24.632  0.00  0.00    +0.234 C 
ATOM      9  N   UNL     1       8.672  -2.019  23.891  0.00  0.00    -0.310 N 
ATOM     10  H   UNL     1       7.885  -1.411  24.053  0.00  0.00    +0.149 HD
ATOM     11  O   UNL     1       9.760  -3.928  24.484  0.00  0.00    -0.274 OA
BRANCH   9  12
ATOM     12  C   UNL     1       9.571  -1.671  22.813  0.00  0.00    +0.139 C 
BRANCH  12  13
ATOM     13  C   UNL     1      10.001  -0.231  22.936  0.00  0.00    -0.030 A 
ATOM     14  C   UNL     1       9.818   0.656  21.862  0.00  0.00    +0.006 A 
ATOM     15  C   UNL     1      10.170   2.003  21.980  0.00  0.00    +0.016 A 
ATOM     16  C   UNL     1      10.722   2.478  23.172  0.00  0.00    +0.065 A 
ATOM     17  C   UNL     1      10.941   1.593  24.233  0.00  0.00    +0.016 A 
ATOM     18  C   UNL     1      10.583   0.248  24.117  0.00  0.00    +0.006 A 
BRANCH  16  19
ATOM     19  C   UNL     1      11.062   3.925  23.300  0.00  0.00    +0.308 C 
ATOM     20  N   UNL     1      10.165   4.857  23.362  0.00  0.00    -0.099 NA
ATOM     21  H   UNL     1       9.221   4.477  23.255  0.00  0.00    +0.363 HD
ATOM     22  N   UNL     1      12.361   4.330  23.360  0.00  0.00    -0.247 N 
ATOM     23  H   UNL     1      12.419   5.306  23.637  0.00  0.00    +0.288 HD
ATOM     24  H   UNL     1      12.991   3.738  23.886  0.00  0.00    +0.288 HD
ENDBRANCH  16  19
ENDBRANCH  12  13
ENDBRANCH   9  12
ENDBRANCH   1   8
BRANCH   3  25
ATOM     25  C   UNL     1       6.055  -0.911  25.222  0.00  0.00    +0.178 C 
BRANCH  25  26
ATOM     26  N   UNL     1       6.069  -0.213  23.927  0.00  0.00    -0.305 NA
ATOM     27  H   UNL     1       5.144  -0.355  23.510  0.00  0.00    +0.123 HD
BRANCH  26  28
ATOM     28  C   UNL     1       6.301   1.246  23.995  0.00  0.00    +0.054 C 
ATOM     29  C   UNL     1       6.604   1.681  22.548  0.00  0.00    +0.019 C 
ATOM     30  C   UNL     1       6.704   3.181  22.271  0.00  0.00    +0.002 C 
ATOM     31  C   UNL     1       5.598   4.023  22.907  0.00  0.00    +0.000 C 
ATOM     32  C   UNL     1       6.011   4.777  24.173  0.00  0.00    +0.000 C 
ATOM     33  C   UNL     1       6.364   3.943  25.408  0.00  0.00    +0.000 C 
ATOM     34  C   UNL     1       7.640   3.110  25.267  0.00  0.00    +0.002 C 
ATOM     35  C   UNL     1       7.417   1.619  24.989  0.00  0.00    +0.019 C 
ENDBRANCH  26  28
ENDBRANCH  25  26
ENDBRANCH   3  25
TORSDOF 7
ENDMDL
MODEL 3
REMARK VINA RESULT:      -7.6      2.059      5.443
REMARK  Name = 
REMARK  7 active torsions:
REMARK  status: ('A' for Active; 'I' for Inactive)
REMARK    1  A    between atoms: C_2  and  C_19
REMARK    2  A    between atoms: C_7  and  C_9
REMARK    3  A    between atoms: C_9  and  N_10
REMARK    4  A    between atoms: N_10  and  C_11
REMARK    5  A    between atoms: N_21  and  C_22
REMARK    6  A    between atoms: C_22  and  C_23
REMARK    7  A    between atoms: C_26  and  C_29
REMARK                            x       y       z     vdW  Elec       q    Type
REMARK                         _______ _______ _______ _____ _____    ______ ____
ROOT
ATOM      1  C   UNL     1       8.326  -3.288  24.497  0.00  0.00    +0.162 C 
ATOM      2  N   UNL     1       8.236  -4.571  23.782  0.00  0.00    -0.289 N 
ATOM      3  C   UNL     1       7.421  -4.902  22.714  0.00  0.00    +0.230 C 
ATOM      4  O   UNL     1       7.358  -6.058  22.285  0.00  0.00    -0.274 OA
ATOM      5  C   UNL     1       8.926  -5.623  24.517  0.00  0.00    +0.108 C 
ATOM      6  C   UNL     1       9.610  -4.922  25.684  0.00  0.00    +0.021 C 
ATOM      7  C   UNL     1       8.738  -3.695  25.916  0.00  0.00    +0.033 C 
ENDROOT
BRANCH   1   8
ATOM      8  C   UNL     1       9.345  -2.288  23.895  0.00  0.00    +0.234 C 
ATOM      9  N   UNL     1       9.392  -1.055  24.500  0.00  0.00    -0.310 N 
ATOM     10  H   UNL     1       8.731  -0.831  25.227  0.00  0.00    +0.149 HD
ATOM     11  O   UNL     1      10.145  -2.613  23.021  0.00  0.00    -0.274 OA
BRANCH   9  12
ATOM     12  C   UNL     1      10.303  -0.012  24.084  0.00  0.00    +0.139 C 
BRANCH  12  13
ATOM     13  C   UNL     1       9.534   1.190  23.600  0.00  0.00    -0.030 A 
ATOM     14  C   UNL     1       9.019   1.221  22.293  0.00  0.00    +0.006 A 
ATOM     15  C   UNL     1       8.265   2.309  21.847  0.00  0.00    +0.016 A 
ATOM     16  C   UNL     1       8.028   3.389  22.700  0.00  0.00    +0.065 A 
ATOM     17  C   UNL     1       8.569   3.383  23.991  0.00  0.00    +0.016 A 
ATOM     18  C   UNL     1       9.316   2.291  24.438  0.00  0.00    +0.006 A 
BRANCH  16  19
ATOM     19  C   UNL     1       7.192   4.532  22.227  0.00  0.00    +0.308 C 
ATOM     20  N   UNL     1       7.695   5.656  21.828  0.00  0.00    -0.099 NA
ATOM     21  H   UNL     1       8.713   5.670  21.934  0.00  0.00    +0.363 HD
ATOM     22  N   UNL     1       5.833   4.432  22.197  0.00  0.00    -0.247 N 
ATOM     23  H   UNL     1       5.429   5.206  21.678  0.00  0.00    +0.288 HD
ATOM     24  H   UNL     1       5.457   3.536  21.915  0.00  0.00    +0.288 HD
ENDBRANCH  16  19
ENDBRANCH  12  13
ENDBRANCH   9  12
ENDBRANCH   1   8
BRANCH   3  25
ATOM     25  C   UNL     1       6.641  -3.766  22.020  0.00  0.00    +0.178 C 
BRANCH  25  26
ATOM     26  N   UNL     1       5.207  -3.762  22.347  0.00  0.00    -0.305 NA
ATOM     27  H   UNL     1       4.733  -4.256  21.584  0.00  0.00    +0.123 HD
BRANCH  26  28
ATOM     28  C   UNL     1       4.841  -4.446  23.607  0.00  0.00    +0.054 C 
ATOM     29  C   UNL     1       3.567  -5.250  23.282  0.00  0.00    +0.019 C 
ATOM     30  C   UNL     1       3.054  -6.216  24.350  0.00  0.00    +0.002 C 
ATOM     31  C   UNL     1       4.133  -7.083  24.998  0.00  0.00    +0.000 C 
ATOM     32  C   UNL     1       4.573  -6.627  26.391  0.00  0.00    +0.000 C 
ATOM     33  C   UNL     1       5.303  -5.284  26.497  0.00  0.00    +0.000 C 
ATOM     34  C   UNL     1       4.437  -4.065  26.171  0.00  0.00    +0.002 C 
ATOM     35  C   UNL     1       4.659  -3.464  24.778  0.00  0.00    +0.019 C 
ENDBRANCH  26  28
ENDBRANCH  25  26
ENDBRANCH   3  25
TORSDOF 7
ENDMDL
MODEL 4
REMARK VINA RESULT:      -7.5      2.654      4.409
REMARK  Name = 
REMARK  7 active torsions:
REMARK  status: ('A' for Active; 'I' for Inactive)
REMARK    1  A    between atoms: C_2  and  C_19
REMARK    2  A    between atoms: C_7  and  C_9
REMARK    3  A    between atoms: C_9  and  N_10
REMARK    4  A    between atoms: N_10  and  C_11
REMARK    5  A    between atoms: N_21  and  C_22
REMARK    6  A    between atoms: C_22  and  C_23
REMARK    7  A    between atoms: C_26  and  C_29
REMARK                            x       y       z     vdW  Elec       q    Type
REMARK                         _______ _______ _______ _____ _____    ______ ____
ROOT
ATOM      1  C   UNL     1       5.591  -3.632  26.259  0.00  0.00    +0.162 C 
ATOM      2  N   UNL     1       5.901  -4.717  27.204  0.00  0.00    -0.289 N 
ATOM      3  C   UNL     1       7.110  -5.358  27.407  0.00  0.00    +0.230 C 
ATOM      4  O   UNL     1       7.202  -6.340  28.150  0.00  0.00    -0.274 OA
ATOM      5  C   UNL     1       4.678  -5.291  27.752  0.00  0.00    +0.108 C 
ATOM      6  C   UNL     1       3.548  -4.414  27.230  0.00  0.00    +0.021 C 
ATOM      7  C   UNL     1       4.110  -3.853  25.931  0.00  0.00    +0.033 C 
ENDROOT
BRANCH   1   8
ATOM      8  C   UNL     1       5.821  -2.206  26.822  0.00  0.00    +0.234 C 
ATOM      9  N   UNL     1       7.099  -1.720  26.696  0.00  0.00    -0.310 N 
ATOM     10  H   UNL     1       7.826  -2.317  26.333  0.00  0.00    +0.149 HD
ATOM     11  O   UNL     1       4.899  -1.509  27.238  0.00  0.00    -0.274 OA
BRANCH   9  12
ATOM     12  C   UNL     1       7.484  -0.400  27.142  0.00  0.00    +0.139 C 
BRANCH  12  13
ATOM     13  C   UNL     1       8.174   0.347  26.028  0.00  0.00    -0.030 A 
ATOM     14  C   UNL     1       9.468  -0.022  25.624  0.00  0.00    +0.006 A 
ATOM     15  C   UNL     1      10.099   0.631  24.564  0.00  0.00    +0.016 A 
ATOM     16  C   UNL     1       9.448   1.674  23.900  0.00  0.00    +0.065 A 
ATOM     17  C   UNL     1       8.174   2.073  24.321  0.00  0.00    +0.016 A 
ATOM     18  C   UNL     1       7.541   1.414  25.376  0.00  0.00    +0.006 A 
BRANCH  16  19
ATOM     19  C   UNL     1      10.116   2.344  22.745  0.00  0.00    +0.308 C 
ATOM     20  N   UNL     1       9.917   1.993  21.515  0.00  0.00    -0.099 NA
ATOM     21  H   UNL     1       9.300   1.179  21.453  0.00  0.00    +0.363 HD
ATOM     22  N   UNL     1      10.982   3.375  22.948  0.00  0.00    -0.247 N 
ATOM     23  H   UNL     1      11.197   3.840  22.070  0.00  0.00    +0.288 HD
ATOM     24  H   UNL     1      10.738   4.027  23.683  0.00  0.00    +0.288 HD
ENDBRANCH  16  19
ENDBRANCH  12  13
ENDBRANCH   9  12
ENDBRANCH   1   8
BRANCH   3  25
ATOM     25  C   UNL     1       8.365  -4.763  26.736  0.00  0.00    +0.178 C 
BRANCH  25  26
ATOM     26  N   UNL     1       8.600  -5.283  25.380  0.00  0.00    -0.305 NA
ATOM     27  H   UNL     1       8.200  -6.226  25.357  0.00  0.00    +0.123 HD
BRANCH  26  28
ATOM     28  C   UNL     1       7.969  -4.511  24.287  0.00  0.00    +0.054 C 
ATOM     29  C   UNL     1       7.765  -5.518  23.139  0.00  0.00    +0.019 C 
ATOM     30  C   UNL     1       6.956  -5.051  21.929  0.00  0.00    +0.002 C 
ATOM     31  C   UNL     1       5.670  -4.299  22.272  0.00  0.00    +0.000 C 
ATOM     32  C   UNL     1       5.755  -2.778  22.124  0.00  0.00    +0.000 C 
ATOM     33  C   UNL     1       6.689  -2.027  23.078  0.00  0.00    +0.000 C 
ATOM     34  C   UNL     1       8.177  -2.315  22.866  0.00  0.00    +0.002 C 
ATOM     35  C   UNL     1       8.803  -3.282  23.877  0.00  0.00    +0.019 C 
ENDBRANCH  26  28
ENDBRANCH  25  26
ENDBRANCH   3  25
TORSDOF 7
ENDMDL
MODEL 5
REMARK VINA RESULT:      -7.4      1.808      2.140
REMARK  Name = 
REMARK  7 active torsions:
REMARK  status: ('A' for Active; 'I' for Inactive)
REMARK    1  A    between atoms: C_2  and  C_19
REMARK    2  A    between atoms: C_7  and  C_9
REMARK    3  A    between atoms: C_9  and  N_10
REMARK    4  A    between atoms: N_10  and  C_11
REMARK    5  A    between atoms: N_21  and  C_22
REMARK    6  A    between atoms: C_22  and  C_23
REMARK    7  A    between atoms: C_26  and  C_29
REMARK                            x       y       z     vdW  Elec       q    Type
REMARK                         _______ _______ _______ _____ _____    ______ ____
ROOT
ATOM      1  C   UNL     1       6.698  -3.200  25.726  0.00  0.00    +0.162 C 
ATOM      2  N   UNL     1       7.728  -4.250  25.672  0.00  0.00    -0.289 N 
ATOM      3  C   UNL     1       8.641  -4.505  24.664  0.00  0.00    +0.230 C 
ATOM      4  O   UNL     1       9.372  -5.499  24.693  0.00  0.00    -0.274 OA
ATOM      5  C   UNL     1       7.511  -5.242  26.717  0.00  0.00    +0.108 C 
ATOM      6  C   UNL     1       6.367  -4.699  27.563  0.00  0.00    +0.021 C 
ATOM      7  C   UNL     1       5.593  -3.824  26.585  0.00  0.00    +0.033 C 
ENDROOT
BRANCH   1   8
ATOM      8  C   UNL     1       7.180  -1.861  26.340  0.00  0.00    +0.234 C 
ATOM      9  N   UNL     1       6.266  -0.836  26.314  0.00  0.00    -0.310 N 
ATOM     10  H   UNL     1       5.386  -0.965  25.841  0.00  0.00    +0.149 HD
ATOM     11  O   UNL     1       8.256  -1.756  26.923  0.00  0.00    -0.274 OA
BRANCH   9  12
ATOM     12  C   UNL     1       6.539   0.472  26.867  0.00  0.00    +0.139 C 
BRANCH  12  13
ATOM     13  C   UNL     1       6.440   1.524  25.791  0.00  0.00    -0.030 A 
ATOM     14  C   UNL     1       7.387   2.560  25.726  0.00  0.00    +0.006 A 
ATOM     15  C   UNL     1       7.333   3.514  24.707  0.00  0.00    +0.016 A 
ATOM     16  C   UNL     1       6.321   3.453  23.747  0.00  0.00    +0.065 A 
ATOM     17  C   UNL     1       5.351   2.446  23.827  0.00  0.00    +0.016 A 
ATOM     18  C   UNL     1       5.411   1.488  24.841  0.00  0.00    +0.006 A 
BRANCH  16  19
ATOM     19  C   UNL     1       6.291   4.456  22.642  0.00  0.00    +0.308 C 
ATOM     20  N   UNL     1       7.315   4.709  21.891  0.00  0.00    -0.099 NA
ATOM     21  H   UNL     1       8.139   4.180  22.191  0.00  0.00    +0.363 HD
ATOM     22  N   UNL     1       5.156   5.161  22.376  0.00  0.00    -0.247 N 
ATOM     23  H   UNL     1       5.240   5.651  21.489  0.00  0.00    +0.288 HD
ATOM     24  H   UNL     1       4.284   4.654  22.460  0.00  0.00    +0.288 HD
ENDBRANCH  16  19
ENDBRANCH  12  13
ENDBRANCH   9  12
ENDBRANCH   1   8
BRANCH   3  25
ATOM     25  C   UNL     1       8.775  -3.466  23.530  0.00  0.00    +0.178 C 
BRANCH  25  26
ATOM     26  N   UNL     1       9.961  -2.608  23.667  0.00  0.00    -0.305 NA
ATOM     27  H   UNL     1      10.651  -2.956  22.994  0.00  0.00    +0.123 HD
BRANCH  26  28
ATOM     28  C   UNL     1       9.745  -1.174  23.372  0.00  0.00    +0.054 C 
ATOM     29  C   UNL     1      10.109  -0.429  24.671  0.00  0.00    +0.019 C 
ATOM     30  C   UNL     1      10.162   1.097  24.615  0.00  0.00    +0.002 C 
ATOM     31  C   UNL     1      10.893   1.666  23.400  0.00  0.00    +0.000 C 
ATOM     32  C   UNL     1       9.981   2.195  22.290  0.00  0.00    +0.000 C 
ATOM     33  C   UNL     1       9.113   1.177  21.545  0.00  0.00    +0.000 C 
ATOM     34  C   UNL     1       8.013   0.538  22.395  0.00  0.00    +0.002 C 
ATOM     35  C   UNL     1       8.313  -0.883  22.885  0.00  0.00    +0.019 C 
ENDBRANCH  26  28
ENDBRANCH  25  26
ENDBRANCH   3  25
TORSDOF 7
ENDMDL
MODEL 6
REMARK VINA RESULT:      -7.2      2.364      6.853
REMARK  Name = 
REMARK  7 active torsions:
REMARK  status: ('A' for Active; 'I' for Inactive)
REMARK    1  A    between atoms: C_2  and  C_19
REMARK    2  A    between atoms: C_7  and  C_9
REMARK    3  A    between atoms: C_9  and  N_10
REMARK    4  A    between atoms: N_10  and  C_11
REMARK    5  A    between atoms: N_21  and  C_22
REMARK    6  A    between atoms: C_22  and  C_23
REMARK    7  A    between atoms: C_26  and  C_29
REMARK                            x       y       z     vdW  Elec       q    Type
REMARK                         _______ _______ _______ _____ _____    ______ ____
ROOT
ATOM      1  C   UNL     1       7.063   2.385  24.790  0.00  0.00    +0.162 C 
ATOM      2  N   UNL     1       6.747   3.590  24.006  0.00  0.00    -0.289 N 
ATOM      3  C   UNL     1       6.915   3.798  22.649  0.00  0.00    +0.230 C 
ATOM      4  O   UNL     1       6.721   4.904  22.138  0.00  0.00    -0.274 OA
ATOM      5  C   UNL     1       6.479   4.722  24.883  0.00  0.00    +0.108 C 
ATOM      6  C   UNL     1       6.485   4.154  26.296  0.00  0.00    +0.021 C 
ATOM      7  C   UNL     1       7.396   2.938  26.180  0.00  0.00    +0.033 C 
ENDROOT
BRANCH   1   8
ATOM      8  C   UNL     1       5.911   1.352  24.872  0.00  0.00    +0.234 C 
ATOM      9  N   UNL     1       6.258   0.117  25.364  0.00  0.00    -0.310 N 
ATOM     10  H   UNL     1       7.224  -0.085  25.566  0.00  0.00    +0.149 HD
ATOM     11  O   UNL     1       4.744   1.651  24.632  0.00  0.00    -0.274 OA
BRANCH   9  12
ATOM     12  C   UNL     1       5.303  -0.956  25.533  0.00  0.00    +0.139 C 
BRANCH  12  13
ATOM     13  C   UNL     1       5.732  -2.165  24.742  0.00  0.00    -0.030 A 
ATOM     14  C   UNL     1       6.294  -3.275  25.395  0.00  0.00    +0.006 A 
ATOM     15  C   UNL     1       6.653  -4.420  24.679  0.00  0.00    +0.016 A 
ATOM     16  C   UNL     1       6.467  -4.463  23.295  0.00  0.00    +0.065 A 
ATOM     17  C   UNL     1       5.943  -3.348  22.632  0.00  0.00    +0.016 A 
ATOM     18  C   UNL     1       5.577  -2.207  23.350  0.00  0.00    +0.006 A 
BRANCH  16  19
ATOM     19  C   UNL     1       6.821  -5.703  22.543  0.00  0.00    +0.308 C 
ATOM     20  N   UNL     1       8.037  -6.130  22.419  0.00  0.00    -0.099 NA
ATOM     21  H   UNL     1       8.706  -5.485  22.848  0.00  0.00    +0.363 HD
ATOM     22  N   UNL     1       5.853  -6.451  21.944  0.00  0.00    -0.247 N 
ATOM     23  H   UNL     1       6.227  -7.348  21.646  0.00  0.00    +0.288 HD
ATOM     24  H   UNL     1       4.981  -6.543  22.450  0.00  0.00    +0.288 HD
ENDBRANCH  16  19
ENDBRANCH  12  13
ENDBRANCH   9  12
ENDBRANCH   1   8
BRANCH   3  25
ATOM     25  C   UNL     1       7.284   2.583  21.771  0.00  0.00    +0.178 C 
BRANCH  25  26
ATOM     26  N   UNL     1       8.733   2.343  21.692  0.00  0.00    -0.305 NA
ATOM     27  H   UNL     1       9.187   3.167  22.097  0.00  0.00    +0.123 HD
BRANCH  26  28
ATOM     28  C   UNL     1       9.221   1.161  22.435  0.00  0.00    +0.054 C 
ATOM     29  C   UNL     1      10.326   1.692  23.369  0.00  0.00    +0.019 C 
ATOM     30  C   UNL     1      10.896   0.724  24.406  0.00  0.00    +0.002 C 
ATOM     31  C   UNL     1       9.848  -0.094  25.159  0.00  0.00    +0.000 C 
ATOM     32  C   UNL     1       9.697  -1.541  24.684  0.00  0.00    +0.000 C 
ATOM     33  C   UNL     1       9.151  -1.766  23.271  0.00  0.00    +0.000 C 
ATOM     34  C   UNL     1      10.082  -1.301  22.149  0.00  0.00    +0.002 C 
ATOM     35  C   UNL     1       9.704   0.036  21.501  0.00  0.00    +0.019 C 
ENDBRANCH  26  28
ENDBRANCH  25  26
ENDBRANCH   3  25
TORSDOF 7
ENDMDL
MODEL 7
REMARK VINA RESULT:      -7.2      1.828      4.066
REMARK  Name = 
REMARK  7 active torsions:
REMARK  status: ('A' for Active; 'I' for Inactive)
REMARK    1  A    between atoms: C_2  and  C_19
REMARK    2  A    between atoms: C_7  and  C_9
REMARK    3  A    between atoms: C_9  and  N_10
REMARK    4  A    between atoms: N_10  and  C_11
REMARK    5  A    between atoms: N_21  and  C_22
REMARK    6  A    between atoms: C_22  and  C_23
REMARK    7  A    between atoms: C_26  and  C_29
REMARK                            x       y       z     vdW  Elec       q    Type
REMARK                         _______ _______ _______ _____ _____    ______ ____
ROOT
ATOM      1  C   UNL     1       7.623  -4.170  24.473  0.00  0.00    +0.162 C 
ATOM      2  N   UNL     1       6.538  -3.218  24.186  0.00  0.00    -0.289 N 
ATOM      3  C   UNL     1       6.021  -2.232  25.009  0.00  0.00    +0.230 C 
ATOM      4  O   UNL     1       5.024  -1.581  24.685  0.00  0.00    -0.274 OA
ATOM      5  C   UNL     1       5.815  -3.605  22.981  0.00  0.00    +0.108 C 
ATOM      6  C   UNL     1       6.588  -4.783  22.404  0.00  0.00    +0.021 C 
ATOM      7  C   UNL     1       7.260  -5.395  23.627  0.00  0.00    +0.033 C 
ENDROOT
BRANCH   1   8
ATOM      8  C   UNL     1       9.040  -3.655  24.114  0.00  0.00    +0.234 C 
ATOM      9  N   UNL     1       9.080  -2.470  23.421  0.00  0.00    -0.310 N 
ATOM     10  H   UNL     1       8.220  -2.043  23.114  0.00  0.00    +0.149 HD
ATOM     11  O   UNL     1      10.060  -4.200  24.528  0.00  0.00    -0.274 OA
BRANCH   9  12
ATOM     12  C   UNL     1      10.317  -1.832  23.029  0.00  0.00    +0.139 C 
BRANCH  12  13
ATOM     13  C   UNL     1      10.170  -0.332  23.081  0.00  0.00    -0.030 A 
ATOM     14  C   UNL     1      10.560   0.378  24.229  0.00  0.00    +0.006 A 
ATOM     15  C   UNL     1      10.472   1.771  24.272  0.00  0.00    +0.016 A 
ATOM     16  C   UNL     1       9.979   2.473  23.169  0.00  0.00    +0.065 A 
ATOM     17  C   UNL     1       9.553   1.771  22.036  0.00  0.00    +0.016 A 
ATOM     18  C   UNL     1       9.649   0.378  21.991  0.00  0.00    +0.006 A 
BRANCH  16  19
ATOM     19  C   UNL     1       9.921   3.964  23.211  0.00  0.00    +0.308 C 
ATOM     20  N   UNL     1      10.949   4.702  23.486  0.00  0.00    -0.099 NA
ATOM     21  H   UNL     1      11.767   4.134  23.720  0.00  0.00    +0.363 HD
ATOM     22  N   UNL     1       8.755   4.620  22.954  0.00  0.00    -0.247 N 
ATOM     23  H   UNL     1       8.924   5.615  22.833  0.00  0.00    +0.288 HD
ATOM     24  H   UNL     1       8.175   4.232  22.221  0.00  0.00    +0.288 HD
ENDBRANCH  16  19
ENDBRANCH  12  13
ENDBRANCH   9  12
ENDBRANCH   1   8
BRANCH   3  25
ATOM     25  C   UNL     1       6.774  -1.915  26.318  0.00  0.00    +0.178 C 
BRANCH  25  26
ATOM     26  N   UNL     1       7.818  -0.892  26.154  0.00  0.00    -0.305 NA
ATOM     27  H   UNL     1       8.123  -0.942  25.177  0.00  0.00    +0.123 HD
BRANCH  26  28
ATOM     28  C   UNL     1       7.387   0.500  26.410  0.00  0.00    +0.054 C 
ATOM     29  C   UNL     1       6.250   0.394  27.444  0.00  0.00    +0.019 C 
ATOM     30  C   UNL     1       5.725   1.696  28.048  0.00  0.00    +0.002 C 
ATOM     31  C   UNL     1       6.809   2.681  28.483  0.00  0.00    +0.000 C 
ATOM     32  C   UNL     1       7.039   3.850  27.522  0.00  0.00    +0.000 C 
ATOM     33  C   UNL     1       7.606   3.524  26.137  0.00  0.00    +0.000 C 
ATOM     34  C   UNL     1       6.659   2.730  25.235  0.00  0.00    +0.002 C 
ATOM     35  C   UNL     1       6.971   1.234  25.121  0.00  0.00    +0.019 C 
ENDBRANCH  26  28
ENDBRANCH  25  26
ENDBRANCH   3  25
TORSDOF 7
ENDMDL
MODEL 8
REMARK VINA RESULT:      -7.2      3.223      7.901
REMARK  Name = 
REMARK  7 active torsions:
REMARK  status: ('A' for Active; 'I' for Inactive)
REMARK    1  A    between atoms: C_2  and  C_19
REMARK    2  A    between atoms: C_7  and  C_9
REMARK    3  A    between atoms: C_9  and  N_10
REMARK    4  A    between atoms: N_10  and  C_11
REMARK    5  A    between atoms: N_21  and  C_22
REMARK    6  A    between atoms: C_22  and  C_23
REMARK    7  A    between atoms: C_26  and  C_29
REMARK                            x       y       z     vdW  Elec       q    Type
REMARK                         _______ _______ _______ _____ _____    ______ ____
ROOT
ATOM      1  C   UNL     1       9.804  -0.276  24.440  0.00  0.00    +0.162 C 
ATOM      2  N   UNL     1       9.584   0.017  23.014  0.00  0.00    -0.289 N 
ATOM      3  C   UNL     1       9.151  -0.842  22.020  0.00  0.00    +0.230 C 
ATOM      4  O   UNL     1       9.127  -0.496  20.836  0.00  0.00    -0.274 OA
ATOM      5  C   UNL     1      10.165   1.304  22.655  0.00  0.00    +0.108 C 
ATOM      6  C   UNL     1      10.644   1.915  23.965  0.00  0.00    +0.021 C 
ATOM      7  C   UNL     1      10.918   0.698  24.839  0.00  0.00    +0.033 C 
ENDROOT
BRANCH   1   8
ATOM      8  C   UNL     1       8.555  -0.077  25.335  0.00  0.00    +0.234 C 
ATOM      9  N   UNL     1       7.944  -1.231  25.763  0.00  0.00    -0.310 N 
ATOM     10  H   UNL     1       8.270  -2.122  25.424  0.00  0.00    +0.149 HD
ATOM     11  O   UNL     1       8.207   1.030  25.739  0.00  0.00    -0.274 OA
BRANCH   9  12
ATOM     12  C   UNL     1       6.784  -1.230  26.626  0.00  0.00    +0.139 C 
BRANCH  12  13
ATOM     13  C   UNL     1       6.324  -2.643  26.883  0.00  0.00    -0.030 A 
ATOM     14  C   UNL     1       7.221  -3.716  26.743  0.00  0.00    +0.006 A 
ATOM     15  C   UNL     1       6.820  -5.024  27.022  0.00  0.00    +0.016 A 
ATOM     16  C   UNL     1       5.509  -5.279  27.432  0.00  0.00    +0.065 A 
ATOM     17  C   UNL     1       4.599  -4.221  27.538  0.00  0.00    +0.016 A 
ATOM     18  C   UNL     1       5.003  -2.912  27.266  0.00  0.00    +0.006 A 
BRANCH  16  19
ATOM     19  C   UNL     1       5.099  -6.676  27.762  0.00  0.00    +0.308 C 
ATOM     20  N   UNL     1       5.798  -7.455  28.523  0.00  0.00    -0.099 NA
ATOM     21  H   UNL     1       6.674  -7.011  28.811  0.00  0.00    +0.363 HD
ATOM     22  N   UNL     1       3.943  -7.195  27.262  0.00  0.00    -0.247 N 
ATOM     23  H   UNL     1       3.713  -8.069  27.727  0.00  0.00    +0.288 HD
ATOM     24  H   UNL     1       3.153  -6.564  27.210  0.00  0.00    +0.288 HD
ENDBRANCH  16  19
ENDBRANCH  12  13
ENDBRANCH   9  12
ENDBRANCH   1   8
BRANCH   3  25
ATOM     25  C   UNL     1       8.625  -2.230  22.442  0.00  0.00    +0.178 C 
BRANCH  25  26
ATOM     26  N   UNL     1       7.285  -2.183  23.046  0.00  0.00    -0.305 NA
ATOM     27  H   UNL     1       6.763  -1.461  22.541  0.00  0.00    +0.123 HD
BRANCH  26  28
ATOM     28  C   UNL     1       6.503  -3.436  22.954  0.00  0.00    +0.054 C 
ATOM     29  C   UNL     1       6.653  -3.906  21.494  0.00  0.00    +0.019 C 
ATOM     30  C   UNL     1       6.102  -5.287  21.139  0.00  0.00    +0.002 C 
ATOM     31  C   UNL     1       6.450  -6.389  22.139  0.00  0.00    +0.000 C 
ATOM     32  C   UNL     1       5.317  -6.776  23.092  0.00  0.00    +0.000 C 
ATOM     33  C   UNL     1       4.856  -5.723  24.105  0.00  0.00    +0.000 C 
ATOM     34  C   UNL     1       4.167  -4.506  23.485  0.00  0.00    +0.002 C 
ATOM     35  C   UNL     1       5.036  -3.247  23.384  0.00  0.00    +0.019 C 
ENDBRANCH  26  28
ENDBRANCH  25  26
ENDBRANCH   3  25
TORSDOF 7
ENDMDL
MODEL 9
REMARK VINA RESULT:      -7.1      2.722      7.734
REMARK  Name = 
REMARK  7 active torsions:
REMARK  status: ('A' for Active; 'I' for Inactive)
REMARK    1  A    between atoms: C_2  and  C_19
REMARK    2  A    between atoms: C_7  and  C_9
REMARK    3  A    between atoms: C_9  and  N_10
REMARK    4  A    between atoms: N_10  and  C_11
REMARK    5  A    between atoms: N_21  and  C_22
REMARK    6  A    between atoms: C_22  and  C_23
REMARK    7  A    between atoms: C_26  and  C_29
REMARK                            x       y       z     vdW  Elec       q    Type
REMARK                         _______ _______ _______ _____ _____    ______ ____
ROOT
ATOM      1  C   UNL     1       8.303   0.769  22.573  0.00  0.00    +0.162 C 
ATOM      2  N   UNL     1       8.443   1.105  23.999  0.00  0.00    -0.289 N 
ATOM      3  C   UNL     1       7.533   0.901  25.021  0.00  0.00    +0.230 C 
ATOM      4  O   UNL     1       7.729   1.344  26.156  0.00  0.00    -0.274 OA
ATOM      5  C   UNL     1       9.585   1.983  24.213  0.00  0.00    +0.108 C 
ATOM      6  C   UNL     1      10.284   2.080  22.864  0.00  0.00    +0.021 C 
ATOM      7  C   UNL     1       9.159   1.827  21.868  0.00  0.00    +0.033 C 
ENDROOT
BRANCH   1   8
ATOM      8  C   UNL     1       8.778  -0.659  22.201  0.00  0.00    +0.234 C 
ATOM      9  N   UNL     1       7.859  -1.659  22.404  0.00  0.00    -0.310 N 
ATOM     10  H   UNL     1       6.979  -1.445  22.846  0.00  0.00    +0.149 HD
ATOM     11  O   UNL     1       9.854  -0.869  21.646  0.00  0.00    -0.274 OA
BRANCH   9  12
ATOM     12  C   UNL     1       8.125  -3.045  22.087  0.00  0.00    +0.139 C 
BRANCH  12  13
ATOM     13  C   UNL     1       6.903  -3.886  22.358  0.00  0.00    -0.030 A 
ATOM     14  C   UNL     1       6.948  -5.278  22.174  0.00  0.00    +0.006 A 
ATOM     15  C   UNL     1       5.837  -6.074  22.465  0.00  0.00    +0.016 A 
ATOM     16  C   UNL     1       4.661  -5.483  22.933  0.00  0.00    +0.065 A 
ATOM     17  C   UNL     1       4.595  -4.093  23.083  0.00  0.00    +0.016 A 
ATOM     18  C   UNL     1       5.709  -3.300  22.798  0.00  0.00    +0.006 A 
BRANCH  16  19
ATOM     19  C   UNL     1       3.490  -6.345  23.275  0.00  0.00    +0.308 C 
ATOM     20  N   UNL     1       3.611  -7.525  23.794  0.00  0.00    -0.099 NA
ATOM     21  H   UNL     1       4.593  -7.798  23.881  0.00  0.00    +0.363 HD
ATOM     22  N   UNL     1       2.219  -5.910  23.048  0.00  0.00    -0.247 N 
ATOM     23  H   UNL     1       1.546  -6.519  23.506  0.00  0.00    +0.288 HD
ATOM     24  H   UNL     1       2.042  -4.930  23.229  0.00  0.00    +0.288 HD
ENDBRANCH  16  19
ENDBRANCH  12  13
ENDBRANCH   9  12
ENDBRANCH   1   8
BRANCH   3  25
ATOM     25  C   UNL     1       6.292   0.034  24.722  0.00  0.00    +0.178 C 
BRANCH  25  26
ATOM     26  N   UNL     1       5.719  -0.593  25.924  0.00  0.00    -0.305 NA
ATOM     27  H   UNL     1       4.704  -0.610  25.787  0.00  0.00    +0.123 HD
BRANCH  26  28
ATOM     28  C   UNL     1       6.152  -1.984  26.181  0.00  0.00    +0.054 C 
ATOM     29  C   UNL     1       5.241  -2.493  27.315  0.00  0.00    +0.019 C 
ATOM     30  C   UNL     1       5.328  -3.976  27.675  0.00  0.00    +0.002 C 
ATOM     31  C   UNL     1       5.342  -4.924  26.476  0.00  0.00    +0.000 C 
ATOM     32  C   UNL     1       6.719  -5.485  26.114  0.00  0.00    +0.000 C 
ATOM     33  C   UNL     1       7.771  -4.496  25.602  0.00  0.00    +0.000 C 
ATOM     34  C   UNL     1       8.253  -3.486  26.645  0.00  0.00    +0.002 C 
ATOM     35  C   UNL     1       7.652  -2.081  26.516  0.00  0.00    +0.019 C 
ENDBRANCH  26  28
ENDBRANCH  25  26
ENDBRANCH   3  25
TORSDOF 7
ENDMDL
