MODEL 1
REMARK VINA RESULT:      -6.0      0.000      0.000
REMARK  Name = 
REMARK  6 active torsions:
REMARK  status: ('A' for Active; 'I' for Inactive)
REMARK    1  A    between atoms: C_1  and  O_2
REMARK    2  A    between atoms: O_2  and  C_3
REMARK    3  A    between atoms: C_9  and  C_10
REMARK    4  A    between atoms: C_10  and  C_11
REMARK    5  A    between atoms: C_11  and  N_12
REMARK    6  A    between atoms: C_13  and  C_14
REMARK                            x       y       z     vdW  Elec       q    Type
REMARK                         _______ _______ _______ _____ _____    ______ ____
ROOT
ATOM      1  C   UNL     1       6.810  -3.931  22.253  0.00  0.00    +0.121 A 
ATOM      2  C   UNL     1       7.170  -4.530  23.460  0.00  0.00    +0.047 A 
ATOM      3  C   UNL     1       8.208  -4.020  24.244  0.00  0.00    +0.030 A 
ATOM      4  C   UNL     1       8.863  -2.874  23.780  0.00  0.00    +0.047 A 
ATOM      5  N   UNL     1       9.901  -2.168  24.336  0.00  0.00    -0.360 N 
ATOM      6  H   UNL     1      10.355  -2.408  25.206  0.00  0.00    +0.165 HD
ATOM      7  C   UNL     1      10.219  -1.094  23.548  0.00  0.00    +0.087 A 
ATOM      8  C   UNL     1       9.392  -1.098  22.440  0.00  0.00    -0.021 A 
ATOM      9  C   UNL     1       8.522  -2.233  22.590  0.00  0.00    +0.006 A 
ATOM     10  C   UNL     1       7.467  -2.772  21.819  0.00  0.00    +0.056 A 
ENDROOT
BRANCH   1  12
ATOM     11  C   UNL     1       6.039  -5.855  21.126  0.00  0.00    +0.277 C 
ATOM     12  O   UNL     1       5.773  -4.536  21.590  0.00  0.00    -0.495 OA
ENDBRANCH   1  12
BRANCH   8  13
ATOM     13  C   UNL     1       9.386  -0.108  21.306  0.00  0.00    +0.056 C 
BRANCH  13  14
ATOM     14  C   UNL     1       8.951   1.302  21.728  0.00  0.00    +0.109 C 
BRANCH  14  15
ATOM     15  N   UNL     1      10.051   2.224  21.963  0.00  0.00    -0.315 N 
ATOM     16  H   UNL     1      10.422   2.721  21.163  0.00  0.00    +0.149 HD
ATOM     17  C   UNL     1      10.342   2.694  23.220  0.00  0.00    +0.210 C 
ATOM     18  O   UNL     1       9.806   2.285  24.243  0.00  0.00    -0.276 OA
ATOM     19  C   UNL     1      11.403   3.765  23.253  0.00  0.00    +0.109 C 
ENDBRANCH  14  15
ENDBRANCH  13  14
ENDBRANCH   8  13
TORSDOF 4
ENDMDL
MODEL 2
REMARK VINA RESULT:      -5.8      2.865      3.968
REMARK  Name = 
REMARK  6 active torsions:
REMARK  status: ('A' for Active; 'I' for Inactive)
REMARK    1  A    between atoms: C_1  and  O_2
REMARK    2  A    between atoms: O_2  and  C_3
REMARK    3  A    between atoms: C_9  and  C_10
REMARK    4  A    between atoms: C_10  and  C_11
REMARK    5  A    between atoms: C_11  and  N_12
REMARK    6  A    between atoms: C_13  and  C_14
REMARK                            x       y       z     vdW  Elec       q    Type
REMARK                         _______ _______ _______ _____ _____    ______ ____
ROOT
ATOM      1  C   UNL     1       7.199  -5.377  26.593  0.00  0.00    +0.121 A 
ATOM      2  C   UNL     1       6.047  -5.810  25.939  0.00  0.00    +0.047 A 
ATOM      3  C   UNL     1       5.743  -5.387  24.643  0.00  0.00    +0.030 A 
ATOM      4  C   UNL     1       6.649  -4.523  24.018  0.00  0.00    +0.047 A 
ATOM      5  N   UNL     1       6.608  -3.958  22.768  0.00  0.00    -0.360 N 
ATOM      6  H   UNL     1       5.863  -4.101  22.100  0.00  0.00    +0.165 HD
ATOM      7  C   UNL     1       7.721  -3.187  22.559  0.00  0.00    +0.087 A 
ATOM      8  C   UNL     1       8.505  -3.224  23.697  0.00  0.00    -0.021 A 
ATOM      9  C   UNL     1       7.824  -4.082  24.629  0.00  0.00    +0.006 A 
ATOM     10  C   UNL     1       8.103  -4.529  25.940  0.00  0.00    +0.056 A 
ENDROOT
BRANCH   1  12
ATOM     11  C   UNL     1       6.170  -6.094  28.592  0.00  0.00    +0.277 C 
ATOM     12  O   UNL     1       7.371  -5.875  27.860  0.00  0.00    -0.495 OA
ENDBRANCH   1  12
BRANCH   8  13
ATOM     13  C   UNL     1       9.819  -2.525  23.920  0.00  0.00    +0.056 C 
BRANCH  13  14
ATOM     14  C   UNL     1      10.305  -1.731  22.700  0.00  0.00    +0.109 C 
BRANCH  14  15
ATOM     15  N   UNL     1      10.363  -0.292  22.904  0.00  0.00    -0.315 N 
ATOM     16  H   UNL     1      11.035   0.056  23.576  0.00  0.00    +0.149 HD
ATOM     17  C   UNL     1       9.826   0.588  21.997  0.00  0.00    +0.210 C 
ATOM     18  O   UNL     1       9.149   0.248  21.034  0.00  0.00    -0.276 OA
ATOM     19  C   UNL     1      10.124   2.037  22.285  0.00  0.00    +0.109 C 
ENDBRANCH  14  15
ENDBRANCH  13  14
ENDBRANCH   8  13
TORSDOF 4
ENDMDL
MODEL 3
REMARK VINA RESULT:      -5.8      2.332      2.886
REMARK  Name = 
REMARK  6 active torsions:
REMARK  status: ('A' for Active; 'I' for Inactive)
REMARK    1  A    between atoms: C_1  and  O_2
REMARK    2  A    between atoms: O_2  and  C_3
REMARK    3  A    between atoms: C_9  and  C_10
REMARK    4  A    between atoms: C_10  and  C_11
REMARK    5  A    between atoms: C_11  and  N_12
REMARK    6  A    between atoms: C_13  and  C_14
REMARK                            x       y       z     vdW  Elec       q    Type
REMARK                         _______ _______ _______ _____ _____    ______ ____
ROOT
ATOM      1  C   UNL     1       8.996  -3.484  24.576  0.00  0.00    +0.121 A 
ATOM      2  C   UNL     1       8.551  -3.267  25.880  0.00  0.00    +0.047 A 
ATOM      3  C   UNL     1       8.511  -1.983  26.429  0.00  0.00    +0.030 A 
ATOM      4  C   UNL     1       8.919  -0.920  25.616  0.00  0.00    +0.047 A 
ATOM      5  N   UNL     1       8.981   0.424  25.889  0.00  0.00    -0.360 N 
ATOM      6  H   UNL     1       8.728   0.839  26.775  0.00  0.00    +0.165 HD
ATOM      7  C   UNL     1       9.423   1.110  24.791  0.00  0.00    +0.087 A 
ATOM      8  C   UNL     1       9.679   0.206  23.776  0.00  0.00    -0.021 A 
ATOM      9  C   UNL     1       9.352  -1.092  24.302  0.00  0.00    +0.006 A 
ATOM     10  C   UNL     1       9.381  -2.403  23.774  0.00  0.00    +0.056 A 
ENDROOT
BRANCH   1  12
ATOM     11  C   UNL     1       7.771  -5.220  23.550  0.00  0.00    +0.277 C 
ATOM     12  O   UNL     1       8.980  -4.794  24.168  0.00  0.00    -0.495 OA
ENDBRANCH   1  12
BRANCH   8  13
ATOM     13  C   UNL     1      10.182   0.510  22.391  0.00  0.00    +0.056 C 
BRANCH  13  14
ATOM     14  C   UNL     1       9.095   1.043  21.448  0.00  0.00    +0.109 C 
BRANCH  14  15
ATOM     15  N   UNL     1       8.725   2.430  21.682  0.00  0.00    -0.315 N 
ATOM     16  H   UNL     1       9.309   3.145  21.267  0.00  0.00    +0.149 HD
ATOM     17  C   UNL     1       7.469   2.779  22.113  0.00  0.00    +0.210 C 
ATOM     18  O   UNL     1       6.617   1.970  22.461  0.00  0.00    -0.276 OA
ATOM     19  C   UNL     1       7.211   4.264  22.141  0.00  0.00    +0.109 C 
ENDBRANCH  14  15
ENDBRANCH  13  14
ENDBRANCH   8  13
TORSDOF 4
ENDMDL
MODEL 4
REMARK VINA RESULT:      -5.7      3.954      6.443
REMARK  Name = 
REMARK  6 active torsions:
REMARK  status: ('A' for Active; 'I' for Inactive)
REMARK    1  A    between atoms: C_1  and  O_2
REMARK    2  A    between atoms: O_2  and  C_3
REMARK    3  A    between atoms: C_9  and  C_10
REMARK    4  A    between atoms: C_10  and  C_11
REMARK    5  A    between atoms: C_11  and  N_12
REMARK    6  A    between atoms: C_13  and  C_14
REMARK                            x       y       z     vdW  Elec       q    Type
REMARK                         _______ _______ _______ _____ _____    ______ ____
ROOT
ATOM      1  C   UNL     1       6.830  -3.757  22.493  0.00  0.00    +0.121 A 
ATOM      2  C   UNL     1       6.382  -4.653  21.523  0.00  0.00    +0.047 A 
ATOM      3  C   UNL     1       5.653  -5.793  21.869  0.00  0.00    +0.030 A 
ATOM      4  C   UNL     1       5.375  -5.994  23.225  0.00  0.00    +0.047 A 
ATOM      5  N   UNL     1       4.689  -7.011  23.842  0.00  0.00    -0.360 N 
ATOM      6  H   UNL     1       4.276  -7.798  23.359  0.00  0.00    +0.165 HD
ATOM      7  C   UNL     1       4.638  -6.797  25.193  0.00  0.00    +0.087 A 
ATOM      8  C   UNL     1       5.320  -5.629  25.482  0.00  0.00    -0.021 A 
ATOM      9  C   UNL     1       5.787  -5.113  24.224  0.00  0.00    +0.006 A 
ATOM     10  C   UNL     1       6.522  -3.967  23.843  0.00  0.00    +0.056 A 
ENDROOT
BRANCH   1  12
ATOM     11  C   UNL     1       8.698  -2.338  22.750  0.00  0.00    +0.277 C 
ATOM     12  O   UNL     1       7.531  -2.681  22.011  0.00  0.00    -0.495 OA
ENDBRANCH   1  12
BRANCH   8  13
ATOM     13  C   UNL     1       5.523  -5.006  26.837  0.00  0.00    +0.056 C 
BRANCH  13  14
ATOM     14  C   UNL     1       6.730  -5.574  27.597  0.00  0.00    +0.109 C 
BRANCH  14  15
ATOM     15  N   UNL     1       7.914  -5.778  26.777  0.00  0.00    -0.315 N 
ATOM     16  H   UNL     1       7.944  -6.609  26.201  0.00  0.00    +0.149 HD
ATOM     17  C   UNL     1       8.781  -4.751  26.494  0.00  0.00    +0.210 C 
ATOM     18  O   UNL     1       8.713  -3.639  27.004  0.00  0.00    -0.276 OA
ATOM     19  C   UNL     1       9.857  -5.103  25.498  0.00  0.00    +0.109 C 
ENDBRANCH  14  15
ENDBRANCH  13  14
ENDBRANCH   8  13
TORSDOF 4
ENDMDL
MODEL 5
REMARK VINA RESULT:      -5.7      2.449      3.188
REMARK  Name = 
REMARK  6 active torsions:
REMARK  status: ('A' for Active; 'I' for Inactive)
REMARK    1  A    between atoms: C_1  and  O_2
REMARK    2  A    between atoms: O_2  and  C_3
REMARK    3  A    between atoms: C_9  and  C_10
REMARK    4  A    between atoms: C_10  and  C_11
REMARK    5  A    between atoms: C_11  and  N_12
REMARK    6  A    between atoms: C_13  and  C_14
REMARK                            x       y       z     vdW  Elec       q    Type
REMARK                         _______ _______ _______ _____ _____    ______ ____
ROOT
ATOM      1  C   UNL     1       9.203  -2.518  23.834  0.00  0.00    +0.121 A 
ATOM      2  C   UNL     1       7.846  -2.804  23.978  0.00  0.00    +0.047 A 
ATOM      3  C   UNL     1       6.867  -1.863  23.652  0.00  0.00    +0.030 A 
ATOM      4  C   UNL     1       7.298  -0.627  23.159  0.00  0.00    +0.047 A 
ATOM      5  N   UNL     1       6.569   0.467  22.763  0.00  0.00    -0.360 N 
ATOM      6  H   UNL     1       5.560   0.521  22.787  0.00  0.00    +0.165 HD
ATOM      7  C   UNL     1       7.404   1.461  22.328  0.00  0.00    +0.087 A 
ATOM      8  C   UNL     1       8.711   1.029  22.455  0.00  0.00    -0.021 A 
ATOM      9  C   UNL     1       8.645  -0.308  22.981  0.00  0.00    +0.006 A 
ATOM     10  C   UNL     1       9.612  -1.281  23.320  0.00  0.00    +0.056 A 
ENDROOT
BRANCH   1  12
ATOM     11  C   UNL     1       9.496  -4.508  25.067  0.00  0.00    +0.277 C 
ATOM     12  O   UNL     1      10.052  -3.535  24.190  0.00  0.00    -0.495 OA
ENDBRANCH   1  12
BRANCH   8  13
ATOM     13  C   UNL     1       9.960   1.790  22.100  0.00  0.00    +0.056 C 
BRANCH  13  14
ATOM     14  C   UNL     1      10.621   2.478  23.302  0.00  0.00    +0.109 C 
BRANCH  14  15
ATOM     15  N   UNL     1      10.610   3.931  23.243  0.00  0.00    -0.315 N 
ATOM     16  H   UNL     1      11.132   4.371  22.495  0.00  0.00    +0.149 HD
ATOM     17  C   UNL     1       9.668   4.674  23.910  0.00  0.00    +0.210 C 
ATOM     18  O   UNL     1       8.860   4.201  24.701  0.00  0.00    -0.276 OA
ATOM     19  C   UNL     1       9.706   6.149  23.602  0.00  0.00    +0.109 C 
ENDBRANCH  14  15
ENDBRANCH  13  14
ENDBRANCH   8  13
TORSDOF 4
ENDMDL
MODEL 6
REMARK VINA RESULT:      -5.7      2.358      3.300
REMARK  Name = 
REMARK  6 active torsions:
REMARK  status: ('A' for Active; 'I' for Inactive)
REMARK    1  A    between atoms: C_1  and  O_2
REMARK    2  A    between atoms: O_2  and  C_3
REMARK    3  A    between atoms: C_9  and  C_10
REMARK    4  A    between atoms: C_10  and  C_11
REMARK    5  A    between atoms: C_11  and  N_12
REMARK    6  A    between atoms: C_13  and  C_14
REMARK                            x       y       z     vdW  Elec       q    Type
REMARK                         _______ _______ _______ _____ _____    ______ ____
ROOT
ATOM      1  C   UNL     1       8.543  -2.498  24.985  0.00  0.00    +0.121 A 
ATOM      2  C   UNL     1       8.282  -3.210  23.815  0.00  0.00    +0.047 A 
ATOM      3  C   UNL     1       8.536  -2.658  22.557  0.00  0.00    +0.030 A 
ATOM      4  C   UNL     1       9.077  -1.369  22.515  0.00  0.00    +0.047 A 
ATOM      5  N   UNL     1       9.423  -0.592  21.437  0.00  0.00    -0.360 N 
ATOM      6  H   UNL     1       9.315  -0.874  20.472  0.00  0.00    +0.165 HD
ATOM      7  C   UNL     1       9.938   0.604  21.859  0.00  0.00    +0.087 A 
ATOM      8  C   UNL     1       9.916   0.632  23.241  0.00  0.00    -0.021 A 
ATOM      9  C   UNL     1       9.371  -0.630  23.662  0.00  0.00    +0.006 A 
ATOM     10  C   UNL     1       9.104  -1.216  24.920  0.00  0.00    +0.056 A 
ENDROOT
BRANCH   1  12
ATOM     11  C   UNL     1       8.968  -4.373  26.352  0.00  0.00    +0.277 C 
ATOM     12  O   UNL     1       8.247  -3.163  26.148  0.00  0.00    -0.495 OA
ENDBRANCH   1  12
BRANCH   8  13
ATOM     13  C   UNL     1      10.383   1.749  24.136  0.00  0.00    +0.056 C 
BRANCH  13  14
ATOM     14  C   UNL     1      10.238   3.140  23.505  0.00  0.00    +0.109 C 
BRANCH  14  15
ATOM     15  N   UNL     1      11.488   3.722  23.041  0.00  0.00    -0.315 N 
ATOM     16  H   UNL     1      11.970   3.250  22.286  0.00  0.00    +0.149 HD
ATOM     17  C   UNL     1      11.829   5.021  23.325  0.00  0.00    +0.210 C 
ATOM     18  O   UNL     1      11.196   5.742  24.088  0.00  0.00    -0.276 OA
ATOM     19  C   UNL     1      13.074   5.505  22.627  0.00  0.00    +0.109 C 
ENDBRANCH  14  15
ENDBRANCH  13  14
ENDBRANCH   8  13
TORSDOF 4
ENDMDL
MODEL 7
REMARK VINA RESULT:      -5.6      1.739      6.567
REMARK  Name = 
REMARK  6 active torsions:
REMARK  status: ('A' for Active; 'I' for Inactive)
REMARK    1  A    between atoms: C_1  and  O_2
REMARK    2  A    between atoms: O_2  and  C_3
REMARK    3  A    between atoms: C_9  and  C_10
REMARK    4  A    between atoms: C_10  and  C_11
REMARK    5  A    between atoms: C_11  and  N_12
REMARK    6  A    between atoms: C_13  and  C_14
REMARK                            x       y       z     vdW  Elec       q    Type
REMARK                         _______ _______ _______ _____ _____    ______ ____
ROOT
ATOM      1  C   UNL     1       9.040   2.237  24.288  0.00  0.00    +0.121 A 
ATOM      2  C   UNL     1       9.372   2.695  23.014  0.00  0.00    +0.047 A 
ATOM      3  C   UNL     1       9.711   1.809  21.988  0.00  0.00    +0.030 A 
ATOM      4  C   UNL     1       9.689   0.442  22.283  0.00  0.00    +0.047 A 
ATOM      5  N   UNL     1       9.971  -0.637  21.483  0.00  0.00    -0.360 N 
ATOM      6  H   UNL     1      10.255  -0.572  20.515  0.00  0.00    +0.165 HD
ATOM      7  C   UNL     1       9.802  -1.803  22.181  0.00  0.00    +0.087 A 
ATOM      8  C   UNL     1       9.421  -1.493  23.473  0.00  0.00    -0.021 A 
ATOM      9  C   UNL     1       9.343  -0.059  23.539  0.00  0.00    +0.006 A 
ATOM     10  C   UNL     1       9.004   0.863  24.555  0.00  0.00    +0.056 A 
ENDROOT
BRANCH   1  12
ATOM     11  C   UNL     1       8.702   4.541  24.670  0.00  0.00    +0.277 C 
ATOM     12  O   UNL     1       8.727   3.218  25.194  0.00  0.00    -0.495 OA
ENDBRANCH   1  12
BRANCH   8  13
ATOM     13  C   UNL     1       9.126  -2.458  24.591  0.00  0.00    +0.056 C 
BRANCH  13  14
ATOM     14  C   UNL     1       7.764  -3.151  24.458  0.00  0.00    +0.109 C 
BRANCH  14  15
ATOM     15  N   UNL     1       7.788  -4.378  23.677  0.00  0.00    -0.315 N 
ATOM     16  H   UNL     1       8.029  -5.234  24.160  0.00  0.00    +0.149 HD
ATOM     17  C   UNL     1       7.170  -4.467  22.454  0.00  0.00    +0.210 C 
ATOM     18  O   UNL     1       6.676  -3.512  21.867  0.00  0.00    -0.276 OA
ATOM     19  C   UNL     1       7.154  -5.855  21.865  0.00  0.00    +0.109 C 
ENDBRANCH  14  15
ENDBRANCH  13  14
ENDBRANCH   8  13
TORSDOF 4
ENDMDL
MODEL 8
REMARK VINA RESULT:      -5.6      2.563      6.934
REMARK  Name = 
REMARK  6 active torsions:
REMARK  status: ('A' for Active; 'I' for Inactive)
REMARK    1  A    between atoms: C_1  and  O_2
REMARK    2  A    between atoms: O_2  and  C_3
REMARK    3  A    between atoms: C_9  and  C_10
REMARK    4  A    between atoms: C_10  and  C_11
REMARK    5  A    between atoms: C_11  and  N_12
REMARK    6  A    between atoms: C_13  and  C_14
REMARK                            x       y       z     vdW  Elec       q    Type
REMARK                         _______ _______ _______ _____ _____    ______ ____
ROOT
ATOM      1  C   UNL     1      10.338   0.289  23.680  0.00  0.00    +0.121 A 
ATOM      2  C   UNL     1       9.921   0.392  22.354  0.00  0.00    +0.047 A 
ATOM      3  C   UNL     1       9.169  -0.618  21.748  0.00  0.00    +0.030 A 
ATOM      4  C   UNL     1       8.835  -1.730  22.528  0.00  0.00    +0.047 A 
ATOM      5  N   UNL     1       8.116  -2.853  22.200  0.00  0.00    -0.360 N 
ATOM      6  H   UNL     1       7.716  -3.029  21.289  0.00  0.00    +0.165 HD
ATOM      7  C   UNL     1       8.014  -3.684  23.283  0.00  0.00    +0.087 A 
ATOM      8  C   UNL     1       8.694  -3.114  24.344  0.00  0.00    -0.021 A 
ATOM      9  C   UNL     1       9.215  -1.863  23.864  0.00  0.00    +0.006 A 
ATOM     10  C   UNL     1       9.975  -0.824  24.449  0.00  0.00    +0.056 A 
ENDROOT
BRANCH   1  12
ATOM     11  C   UNL     1      10.720   2.616  23.583  0.00  0.00    +0.277 C 
ATOM     12  O   UNL     1      11.067   1.354  24.144  0.00  0.00    -0.495 OA
ENDBRANCH   1  12
BRANCH   8  13
ATOM     13  C   UNL     1       8.849  -3.675  25.732  0.00  0.00    +0.056 C 
BRANCH  13  14
ATOM     14  C   UNL     1       8.645  -5.194  25.805  0.00  0.00    +0.109 C 
BRANCH  14  15
ATOM     15  N   UNL     1       8.006  -5.656  27.027  0.00  0.00    -0.315 N 
ATOM     16  H   UNL     1       8.573  -5.693  27.864  0.00  0.00    +0.149 HD
ATOM     17  C   UNL     1       6.639  -5.691  27.158  0.00  0.00    +0.210 C 
ATOM     18  O   UNL     1       5.859  -5.473  26.238  0.00  0.00    -0.276 OA
ATOM     19  C   UNL     1       6.156  -6.036  28.543  0.00  0.00    +0.109 C 
ENDBRANCH  14  15
ENDBRANCH  13  14
ENDBRANCH   8  13
TORSDOF 4
ENDMDL
MODEL 9
REMARK VINA RESULT:      -5.5      2.086      6.001
REMARK  Name = 
REMARK  6 active torsions:
REMARK  status: ('A' for Active; 'I' for Inactive)
REMARK    1  A    between atoms: C_1  and  O_2
REMARK    2  A    between atoms: O_2  and  C_3
REMARK    3  A    between atoms: C_9  and  C_10
REMARK    4  A    between atoms: C_10  and  C_11
REMARK    5  A    between atoms: C_11  and  N_12
REMARK    6  A    between atoms: C_13  and  C_14
REMARK                            x       y       z     vdW  Elec       q    Type
REMARK                         _______ _______ _______ _____ _____    ______ ____
ROOT
ATOM      1  C   UNL     1       7.572   1.313  22.264  0.00  0.00    +0.121 A 
ATOM      2  C   UNL     1       8.774   1.419  21.566  0.00  0.00    +0.047 A 
ATOM      3  C   UNL     1       9.773   0.449  21.687  0.00  0.00    +0.030 A 
ATOM      4  C   UNL     1       9.514  -0.642  22.524  0.00  0.00    +0.047 A 
ATOM      5  N   UNL     1      10.300  -1.726  22.826  0.00  0.00    -0.360 N 
ATOM      6  H   UNL     1      11.230  -1.877  22.461  0.00  0.00    +0.165 HD
ATOM      7  C   UNL     1       9.639  -2.568  23.680  0.00  0.00    +0.087 A 
ATOM      8  C   UNL     1       8.401  -2.024  23.967  0.00  0.00    -0.021 A 
ATOM      9  C   UNL     1       8.317  -0.795  23.224  0.00  0.00    +0.006 A 
ATOM     10  C   UNL     1       7.326   0.202  23.080  0.00  0.00    +0.056 A 
ENDROOT
BRANCH   1  12
ATOM     11  C   UNL     1       5.729   2.537  23.085  0.00  0.00    +0.277 C 
ATOM     12  O   UNL     1       6.683   2.335  22.048  0.00  0.00    -0.495 OA
ENDBRANCH   1  12
BRANCH   8  13
ATOM     13  C   UNL     1       7.338  -2.603  24.862  0.00  0.00    +0.056 C 
BRANCH  13  14
ATOM     14  C   UNL     1       6.164  -3.226  24.095  0.00  0.00    +0.109 C 
BRANCH  14  15
ATOM     15  N   UNL     1       6.533  -4.336  23.230  0.00  0.00    -0.315 N 
ATOM     16  H   UNL     1       6.864  -5.182  23.674  0.00  0.00    +0.149 HD
ATOM     17  C   UNL     1       6.121  -4.399  21.922  0.00  0.00    +0.210 C 
ATOM     18  O   UNL     1       5.539  -3.489  21.344  0.00  0.00    -0.276 OA
ATOM     19  C   UNL     1       6.454  -5.695  21.227  0.00  0.00    +0.109 C 
ENDBRANCH  14  15
ENDBRANCH  13  14
ENDBRANCH   8  13
TORSDOF 4
ENDMDL
