MODEL 1
REMARK VINA RESULT:      -5.6      0.000      0.000
REMARK  Name = 
REMARK  4 active torsions:
REMARK  status: ('A' for Active; 'I' for Inactive)
REMARK    1  A    between atoms: O_1  and  C_2
REMARK    2  A    between atoms: C_3  and  N_14
REMARK    3  A    between atoms: C_5  and  N_11
REMARK    4  A    between atoms: C_7  and  N_8
REMARK                            x       y       z     vdW  Elec       q    Type
REMARK                         _______ _______ _______ _____ _____    ______ ____
ROOT
ATOM      1  C   UNL     1       7.606  -5.229  26.065  0.00  0.00    +0.274 A 
ATOM      2  C   UNL     1       6.251  -5.585  26.100  0.00  0.00    +0.327 A 
ATOM      3  C   UNL     1       5.448  -5.601  24.950  0.00  0.00    +0.172 A 
ATOM      4  C   UNL     1       6.020  -5.235  23.729  0.00  0.00    +0.286 A 
ATOM      5  C   UNL     1       7.371  -4.861  23.656  0.00  0.00    +0.172 A 
ATOM      6  C   UNL     1       8.158  -4.860  24.825  0.00  0.00    +0.327 A 
ENDROOT
BRANCH   2   7
ATOM      7  N   UNL     1       5.627  -5.958  27.356  0.00  0.00    +0.084 N 
ATOM      8  O   UNL     1       5.530  -5.067  28.210  0.00  0.00    +0.042 OA
ATOM      9  O   UNL     1       5.317  -7.146  27.504  0.00  0.00    -0.576 OA
ENDBRANCH   2   7
BRANCH   4  10
ATOM     10  N   UNL     1       5.199  -5.242  22.510  0.00  0.00    +0.080 N 
ATOM     11  O   UNL     1       5.733  -4.859  21.461  0.00  0.00    +0.041 OA
ATOM     12  O   UNL     1       4.028  -5.631  22.611  0.00  0.00    -0.576 OA
ENDBRANCH   4  10
BRANCH   6  13
ATOM     13  N   UNL     1       9.569  -4.468  24.712  0.00  0.00    +0.084 N 
ATOM     14  O   UNL     1       9.834  -3.421  24.110  0.00  0.00    +0.042 OA
ATOM     15  O   UNL     1      10.410  -5.216  25.233  0.00  0.00    -0.576 OA
ENDBRANCH   6  13
BRANCH   1  16
ATOM     16  O   UNL     1       8.319  -5.288  27.230  0.00  0.00    -0.497 OA
ATOM     17  H   UNL     1       9.288  -5.307  27.065  0.00  0.00    +0.293 HD
ENDBRANCH   1  16
TORSDOF 4
ENDMDL
MODEL 2
REMARK VINA RESULT:      -5.6      0.535      3.730
REMARK  Name = 
REMARK  4 active torsions:
REMARK  status: ('A' for Active; 'I' for Inactive)
REMARK    1  A    between atoms: O_1  and  C_2
REMARK    2  A    between atoms: C_3  and  N_14
REMARK    3  A    between atoms: C_5  and  N_11
REMARK    4  A    between atoms: C_7  and  N_8
REMARK                            x       y       z     vdW  Elec       q    Type
REMARK                         _______ _______ _______ _____ _____    ______ ____
ROOT
ATOM      1  C   UNL     1       7.765  -5.098  26.087  0.00  0.00    +0.274 A 
ATOM      2  C   UNL     1       8.135  -4.641  24.814  0.00  0.00    +0.327 A 
ATOM      3  C   UNL     1       7.249  -4.644  23.728  0.00  0.00    +0.172 A 
ATOM      4  C   UNL     1       5.954  -5.133  23.921  0.00  0.00    +0.286 A 
ATOM      5  C   UNL     1       5.551  -5.611  25.178  0.00  0.00    +0.172 A 
ATOM      6  C   UNL     1       6.459  -5.590  26.255  0.00  0.00    +0.327 A 
ENDROOT
BRANCH   2   7
ATOM      7  N   UNL     1       9.477  -4.137  24.581  0.00  0.00    +0.084 N 
ATOM      8  O   UNL     1       9.564  -3.038  24.019  0.00  0.00    +0.042 OA
ATOM      9  O   UNL     1      10.420  -4.877  24.886  0.00  0.00    -0.576 OA
ENDBRANCH   2   7
BRANCH   4  10
ATOM     10  N   UNL     1       5.007  -5.149  22.797  0.00  0.00    +0.080 N 
ATOM     11  O   UNL     1       5.370  -5.706  21.754  0.00  0.00    +0.041 OA
ATOM     12  O   UNL     1       3.908  -4.607  22.968  0.00  0.00    -0.576 OA
ENDBRANCH   4  10
BRANCH   6  13
ATOM     13  N   UNL     1       6.003  -6.093  27.558  0.00  0.00    +0.084 N 
ATOM     14  O   UNL     1       6.342  -5.469  28.570  0.00  0.00    +0.042 OA
ATOM     15  O   UNL     1       5.303  -7.116  27.560  0.00  0.00    -0.576 OA
ENDBRANCH   6  13
BRANCH   1  16
ATOM     16  O   UNL     1       8.685  -5.013  27.095  0.00  0.00    -0.497 OA
ATOM     17  H   UNL     1       9.470  -5.578  26.921  0.00  0.00    +0.293 HD
ENDBRANCH   1  16
TORSDOF 4
ENDMDL
MODEL 3
REMARK VINA RESULT:      -5.5      2.495      4.987
REMARK  Name = 
REMARK  4 active torsions:
REMARK  status: ('A' for Active; 'I' for Inactive)
REMARK    1  A    between atoms: O_1  and  C_2
REMARK    2  A    between atoms: C_3  and  N_14
REMARK    3  A    between atoms: C_5  and  N_11
REMARK    4  A    between atoms: C_7  and  N_8
REMARK                            x       y       z     vdW  Elec       q    Type
REMARK                         _______ _______ _______ _____ _____    ______ ____
ROOT
ATOM      1  C   UNL     1       7.507  -4.203  23.743  0.00  0.00    +0.274 A 
ATOM      2  C   UNL     1       8.728  -3.835  24.325  0.00  0.00    +0.327 A 
ATOM      3  C   UNL     1       9.462  -2.721  23.893  0.00  0.00    +0.172 A 
ATOM      4  C   UNL     1       8.961  -1.960  22.834  0.00  0.00    +0.286 A 
ATOM      5  C   UNL     1       7.748  -2.304  22.217  0.00  0.00    +0.172 A 
ATOM      6  C   UNL     1       7.027  -3.424  22.675  0.00  0.00    +0.327 A 
ENDROOT
BRANCH   2   7
ATOM      7  N   UNL     1       9.278  -4.614  25.420  0.00  0.00    +0.084 N 
ATOM      8  O   UNL     1       8.668  -4.562  26.495  0.00  0.00    +0.042 OA
ATOM      9  O   UNL     1      10.349  -5.198  25.217  0.00  0.00    -0.576 OA
ENDBRANCH   2   7
BRANCH   4  10
ATOM     10  N   UNL     1       9.713  -0.789  22.360  0.00  0.00    +0.080 N 
ATOM     11  O   UNL     1      10.574  -0.321  23.115  0.00  0.00    +0.041 OA
ATOM     12  O   UNL     1       9.438  -0.348  21.237  0.00  0.00    -0.576 OA
ENDBRANCH   4  10
BRANCH   6  13
ATOM     13  N   UNL     1       5.758  -3.753  22.011  0.00  0.00    +0.084 N 
ATOM     14  O   UNL     1       4.754  -3.896  22.718  0.00  0.00    +0.042 OA
ATOM     15  O   UNL     1       5.775  -3.867  20.777  0.00  0.00    -0.576 OA
ENDBRANCH   6  13
BRANCH   1  16
ATOM     16  O   UNL     1       6.842  -5.278  24.263  0.00  0.00    -0.497 OA
ATOM     17  H   UNL     1       5.868  -5.180  24.178  0.00  0.00    +0.293 HD
ENDBRANCH   1  16
TORSDOF 4
ENDMDL
MODEL 4
REMARK VINA RESULT:      -5.5      1.507      5.069
REMARK  Name = 
REMARK  4 active torsions:
REMARK  status: ('A' for Active; 'I' for Inactive)
REMARK    1  A    between atoms: O_1  and  C_2
REMARK    2  A    between atoms: C_3  and  N_14
REMARK    3  A    between atoms: C_5  and  N_11
REMARK    4  A    between atoms: C_7  and  N_8
REMARK                            x       y       z     vdW  Elec       q    Type
REMARK                         _______ _______ _______ _____ _____    ______ ____
ROOT
ATOM      1  C   UNL     1       7.706  -3.471  23.019  0.00  0.00    +0.274 A 
ATOM      2  C   UNL     1       8.518  -3.347  24.154  0.00  0.00    +0.327 A 
ATOM      3  C   UNL     1       8.286  -4.077  25.328  0.00  0.00    +0.172 A 
ATOM      4  C   UNL     1       7.196  -4.951  25.368  0.00  0.00    +0.286 A 
ATOM      5  C   UNL     1       6.353  -5.094  24.256  0.00  0.00    +0.172 A 
ATOM      6  C   UNL     1       6.612  -4.353  23.085  0.00  0.00    +0.327 A 
ENDROOT
BRANCH   2   7
ATOM      7  N   UNL     1       9.650  -2.438  24.145  0.00  0.00    +0.084 N 
ATOM      8  O   UNL     1       9.567  -1.446  24.880  0.00  0.00    +0.042 OA
ATOM      9  O   UNL     1      10.566  -2.682  23.351  0.00  0.00    -0.576 OA
ENDBRANCH   2   7
BRANCH   4  10
ATOM     10  N   UNL     1       6.929  -5.726  26.589  0.00  0.00    +0.080 N 
ATOM     11  O   UNL     1       5.927  -6.451  26.596  0.00  0.00    +0.041 OA
ATOM     12  O   UNL     1       7.726  -5.605  27.528  0.00  0.00    -0.576 OA
ENDBRANCH   4  10
BRANCH   6  13
ATOM     13  N   UNL     1       5.714  -4.530  21.937  0.00  0.00    +0.084 N 
ATOM     14  O   UNL     1       5.286  -5.667  21.706  0.00  0.00    +0.042 OA
ATOM     15  O   UNL     1       5.439  -3.523  21.269  0.00  0.00    -0.576 OA
ENDBRANCH   6  13
BRANCH   1  16
ATOM     16  O   UNL     1       8.039  -2.752  21.905  0.00  0.00    -0.497 OA
ATOM     17  H   UNL     1       8.702  -2.054  22.107  0.00  0.00    +0.293 HD
ENDBRANCH   1  16
TORSDOF 4
ENDMDL
MODEL 5
REMARK VINA RESULT:      -5.5      2.018      4.882
REMARK  Name = 
REMARK  4 active torsions:
REMARK  status: ('A' for Active; 'I' for Inactive)
REMARK    1  A    between atoms: O_1  and  C_2
REMARK    2  A    between atoms: C_3  and  N_14
REMARK    3  A    between atoms: C_5  and  N_11
REMARK    4  A    between atoms: C_7  and  N_8
REMARK                            x       y       z     vdW  Elec       q    Type
REMARK                         _______ _______ _______ _____ _____    ______ ____
ROOT
ATOM      1  C   UNL     1       6.869  -4.661  24.032  0.00  0.00    +0.274 A 
ATOM      2  C   UNL     1       7.105  -4.091  22.773  0.00  0.00    +0.327 A 
ATOM      3  C   UNL     1       8.116  -3.145  22.554  0.00  0.00    +0.172 A 
ATOM      4  C   UNL     1       8.908  -2.749  23.635  0.00  0.00    +0.286 A 
ATOM      5  C   UNL     1       8.695  -3.288  24.913  0.00  0.00    +0.172 A 
ATOM      6  C   UNL     1       7.676  -4.243  25.105  0.00  0.00    +0.327 A 
ENDROOT
BRANCH   2   7
ATOM      7  N   UNL     1       6.290  -4.475  21.635  0.00  0.00    +0.084 N 
ATOM      8  O   UNL     1       6.459  -5.620  21.196  0.00  0.00    +0.042 OA
ATOM      9  O   UNL     1       5.556  -3.608  21.145  0.00  0.00    -0.576 OA
ENDBRANCH   2   7
BRANCH   4  10
ATOM     10  N   UNL     1       9.973  -1.756  23.431  0.00  0.00    +0.080 N 
ATOM     11  O   UNL     1      10.631  -1.833  22.386  0.00  0.00    +0.041 OA
ATOM     12  O   UNL     1      10.142  -0.909  24.317  0.00  0.00    -0.576 OA
ENDBRANCH   4  10
BRANCH   6  13
ATOM     13  N   UNL     1       7.483  -4.791  26.454  0.00  0.00    +0.084 N 
ATOM     14  O   UNL     1       7.185  -4.006  27.362  0.00  0.00    +0.042 OA
ATOM     15  O   UNL     1       7.630  -6.014  26.598  0.00  0.00    -0.576 OA
ENDBRANCH   6  13
BRANCH   1  16
ATOM     16  O   UNL     1       5.890  -5.610  24.138  0.00  0.00    -0.497 OA
ATOM     17  H   UNL     1       6.223  -6.432  24.561  0.00  0.00    +0.293 HD
ENDBRANCH   1  16
TORSDOF 4
ENDMDL
MODEL 6
REMARK VINA RESULT:      -5.5      2.044      4.223
REMARK  Name = 
REMARK  4 active torsions:
REMARK  status: ('A' for Active; 'I' for Inactive)
REMARK    1  A    between atoms: O_1  and  C_2
REMARK    2  A    between atoms: C_3  and  N_14
REMARK    3  A    between atoms: C_5  and  N_11
REMARK    4  A    between atoms: C_7  and  N_8
REMARK                            x       y       z     vdW  Elec       q    Type
REMARK                         _______ _______ _______ _____ _____    ______ ____
ROOT
ATOM      1  C   UNL     1       8.745  -3.247  23.926  0.00  0.00    +0.274 A 
ATOM      2  C   UNL     1       8.155  -2.675  22.791  0.00  0.00    +0.327 A 
ATOM      3  C   UNL     1       7.167  -3.333  22.045  0.00  0.00    +0.172 A 
ATOM      4  C   UNL     1       6.768  -4.612  22.443  0.00  0.00    +0.286 A 
ATOM      5  C   UNL     1       7.345  -5.223  23.568  0.00  0.00    +0.172 A 
ATOM      6  C   UNL     1       8.331  -4.536  24.304  0.00  0.00    +0.327 A 
ENDROOT
BRANCH   2   7
ATOM      7  N   UNL     1       8.558  -1.353  22.346  0.00  0.00    +0.084 N 
ATOM      8  O   UNL     1       7.750  -0.435  22.540  0.00  0.00    +0.042 OA
ATOM      9  O   UNL     1       9.633  -1.262  21.741  0.00  0.00    -0.576 OA
ENDBRANCH   2   7
BRANCH   4  10
ATOM     10  N   UNL     1       5.735  -5.324  21.677  0.00  0.00    +0.080 N 
ATOM     11  O   UNL     1       5.982  -5.582  20.492  0.00  0.00    +0.041 OA
ATOM     12  O   UNL     1       4.688  -5.620  22.266  0.00  0.00    -0.576 OA
ENDBRANCH   4  10
BRANCH   6  13
ATOM     13  N   UNL     1       8.910  -5.202  25.478  0.00  0.00    +0.084 N 
ATOM     14  O   UNL     1      10.138  -5.165  25.618  0.00  0.00    +0.042 OA
ATOM     15  O   UNL     1       8.127  -5.761  26.260  0.00  0.00    -0.576 OA
ENDBRANCH   6  13
BRANCH   1  16
ATOM     16  O   UNL     1       9.667  -2.509  24.615  0.00  0.00    -0.497 OA
ATOM     17  H   UNL     1       9.594  -1.550  24.409  0.00  0.00    +0.293 HD
ENDBRANCH   1  16
TORSDOF 4
ENDMDL
MODEL 7
REMARK VINA RESULT:      -5.5      1.876      5.578
REMARK  Name = 
REMARK  4 active torsions:
REMARK  status: ('A' for Active; 'I' for Inactive)
REMARK    1  A    between atoms: O_1  and  C_2
REMARK    2  A    between atoms: C_3  and  N_14
REMARK    3  A    between atoms: C_5  and  N_11
REMARK    4  A    between atoms: C_7  and  N_8
REMARK                            x       y       z     vdW  Elec       q    Type
REMARK                         _______ _______ _______ _____ _____    ______ ____
ROOT
ATOM      1  C   UNL     1       4.703  -6.152  23.856  0.00  0.00    +0.274 A 
ATOM      2  C   UNL     1       5.837  -5.339  23.722  0.00  0.00    +0.327 A 
ATOM      3  C   UNL     1       6.704  -5.076  24.792  0.00  0.00    +0.172 A 
ATOM      4  C   UNL     1       6.417  -5.637  26.039  0.00  0.00    +0.286 A 
ATOM      5  C   UNL     1       5.285  -6.447  26.216  0.00  0.00    +0.172 A 
ATOM      6  C   UNL     1       4.433  -6.701  25.122  0.00  0.00    +0.327 A 
ENDROOT
BRANCH   2   7
ATOM      7  N   UNL     1       6.153  -4.732  22.441  0.00  0.00    +0.084 N 
ATOM      8  O   UNL     1       5.279  -4.012  21.941  0.00  0.00    +0.042 OA
ATOM      9  O   UNL     1       7.228  -5.046  21.916  0.00  0.00    -0.576 OA
ENDBRANCH   2   7
BRANCH   4  10
ATOM     10  N   UNL     1       7.310  -5.376  27.178  0.00  0.00    +0.080 N 
ATOM     11  O   UNL     1       8.156  -4.483  27.044  0.00  0.00    +0.041 OA
ATOM     12  O   UNL     1       7.156  -6.063  28.195  0.00  0.00    -0.576 OA
ENDBRANCH   4  10
BRANCH   6  13
ATOM     13  N   UNL     1       3.259  -7.557  25.339  0.00  0.00    +0.084 N 
ATOM     14  O   UNL     1       3.044  -8.463  24.525  0.00  0.00    +0.042 OA
ATOM     15  O   UNL     1       2.556  -7.317  26.331  0.00  0.00    -0.576 OA
ENDBRANCH   6  13
BRANCH   1  16
ATOM     16  O   UNL     1       3.943  -6.387  22.744  0.00  0.00    -0.497 OA
ATOM     17  H   UNL     1       3.688  -5.551  22.293  0.00  0.00    +0.293 HD
ENDBRANCH   1  16
TORSDOF 4
ENDMDL
MODEL 8
REMARK VINA RESULT:      -5.4      1.644      4.055
REMARK  Name = 
REMARK  4 active torsions:
REMARK  status: ('A' for Active; 'I' for Inactive)
REMARK    1  A    between atoms: O_1  and  C_2
REMARK    2  A    between atoms: C_3  and  N_14
REMARK    3  A    between atoms: C_5  and  N_11
REMARK    4  A    between atoms: C_7  and  N_8
REMARK                            x       y       z     vdW  Elec       q    Type
REMARK                         _______ _______ _______ _____ _____    ______ ____
ROOT
ATOM      1  C   UNL     1       8.164  -3.940  25.107  0.00  0.00    +0.274 A 
ATOM      2  C   UNL     1       8.518  -3.288  23.919  0.00  0.00    +0.327 A 
ATOM      3  C   UNL     1       7.867  -3.536  22.702  0.00  0.00    +0.172 A 
ATOM      4  C   UNL     1       6.836  -4.479  22.675  0.00  0.00    +0.286 A 
ATOM      5  C   UNL     1       6.461  -5.162  23.842  0.00  0.00    +0.172 A 
ATOM      6  C   UNL     1       7.127  -4.889  25.053  0.00  0.00    +0.327 A 
ENDROOT
BRANCH   2   7
ATOM      7  N   UNL     1       9.593  -2.312  23.915  0.00  0.00    +0.084 N 
ATOM      8  O   UNL     1      10.537  -2.534  23.146  0.00  0.00    +0.042 OA
ATOM      9  O   UNL     1       9.520  -1.385  24.730  0.00  0.00    -0.576 OA
ENDBRANCH   2   7
BRANCH   4  10
ATOM     10  N   UNL     1       6.140  -4.760  21.411  0.00  0.00    +0.080 N 
ATOM     11  O   UNL     1       5.609  -3.806  20.829  0.00  0.00    +0.041 OA
ATOM     12  O   UNL     1       6.131  -5.931  21.010  0.00  0.00    -0.576 OA
ENDBRANCH   4  10
BRANCH   6  13
ATOM     13  N   UNL     1       6.706  -5.617  26.258  0.00  0.00    +0.084 N 
ATOM     14  O   UNL     1       5.514  -5.929  26.359  0.00  0.00    +0.042 OA
ATOM     15  O   UNL     1       7.578  -5.874  27.101  0.00  0.00    -0.576 OA
ENDBRANCH   6  13
BRANCH   1  16
ATOM     16  O   UNL     1       8.826  -3.597  26.253  0.00  0.00    -0.497 OA
ATOM     17  H   UNL     1       8.292  -3.793  27.056  0.00  0.00    +0.293 HD
ENDBRANCH   1  16
TORSDOF 4
ENDMDL
MODEL 9
REMARK VINA RESULT:      -5.4      1.823      4.444
REMARK  Name = 
REMARK  4 active torsions:
REMARK  status: ('A' for Active; 'I' for Inactive)
REMARK    1  A    between atoms: O_1  and  C_2
REMARK    2  A    between atoms: C_3  and  N_14
REMARK    3  A    between atoms: C_5  and  N_11
REMARK    4  A    between atoms: C_7  and  N_8
REMARK                            x       y       z     vdW  Elec       q    Type
REMARK                         _______ _______ _______ _____ _____    ______ ____
ROOT
ATOM      1  C   UNL     1       7.873  -3.242  23.155  0.00  0.00    +0.274 A 
ATOM      2  C   UNL     1       7.061  -4.375  23.015  0.00  0.00    +0.327 A 
ATOM      3  C   UNL     1       6.718  -5.194  24.100  0.00  0.00    +0.172 A 
ATOM      4  C   UNL     1       7.217  -4.873  25.365  0.00  0.00    +0.286 A 
ATOM      5  C   UNL     1       8.044  -3.753  25.544  0.00  0.00    +0.172 A 
ATOM      6  C   UNL     1       8.367  -2.942  24.438  0.00  0.00    +0.327 A 
ENDROOT
BRANCH   2   7
ATOM      7  N   UNL     1       6.537  -4.740  21.710  0.00  0.00    +0.084 N 
ATOM      8  O   UNL     1       5.708  -3.968  21.213  0.00  0.00    +0.042 OA
ATOM      9  O   UNL     1       6.897  -5.826  21.239  0.00  0.00    -0.576 OA
ENDBRANCH   2   7
BRANCH   4  10
ATOM     10  N   UNL     1       6.874  -5.717  26.519  0.00  0.00    +0.080 N 
ATOM     11  O   UNL     1       5.864  -6.425  26.426  0.00  0.00    +0.041 OA
ATOM     12  O   UNL     1       7.619  -5.666  27.506  0.00  0.00    -0.576 OA
ENDBRANCH   4  10
BRANCH   6  13
ATOM     13  N   UNL     1       9.231  -1.775  24.660  0.00  0.00    +0.084 N 
ATOM     14  O   UNL     1      10.135  -1.558  23.845  0.00  0.00    +0.042 OA
ATOM     15  O   UNL     1       8.996  -1.075  25.657  0.00  0.00    -0.576 OA
ENDBRANCH   6  13
BRANCH   1  16
ATOM     16  O   UNL     1       8.115  -2.480  22.047  0.00  0.00    -0.497 OA
ATOM     17  H   UNL     1       7.333  -1.936  21.800  0.00  0.00    +0.293 HD
ENDBRANCH   1  16
TORSDOF 4
ENDMDL
