MODEL 1
REMARK VINA RESULT:      -4.3      0.000      0.000
REMARK  Name = 
REMARK  8 active torsions:
REMARK  status: ('A' for Active; 'I' for Inactive)
REMARK    1  A    between atoms: N_1  and  CA_2
REMARK    2  A    between atoms: CA_2  and  C_4
REMARK    3  A    between atoms: CA_2  and  C_9
REMARK    4  A    between atoms: C_4  and  C_5
REMARK    5  A    between atoms: C_5  and  C_6
REMARK    6  A    between atoms: C_6  and  C_7
REMARK    7  A    between atoms: C_7  and  O_8
REMARK    8  A    between atoms: C_9  and  O_10
REMARK                            x       y       z     vdW  Elec       q    Type
REMARK                         _______ _______ _______ _____ _____    ______ ____
ROOT
ATOM      1  CA  UNL     1       9.713   2.519  23.800  0.00  0.00    +0.161 C 
ENDROOT
BRANCH   1   2
ATOM      2  N   UNL     1      10.054   1.419  24.756  0.00  0.00    -0.318 NA
ATOM      3  H1  UNL     1       9.474   1.529  25.594  0.00  0.00    +0.119 HD
ATOM      4  H2  UNL     1       9.723   0.542  24.342  0.00  0.00    +0.119 HD
ENDBRANCH   1   2
BRANCH   1   5
ATOM      5  C   UNL     1       9.149   1.883  22.515  0.00  0.00    +0.322 C 
ATOM      6  OXT UNL     1       8.149   1.186  22.451  0.00  0.00    -0.249 OA
BRANCH   5   7
ATOM      7  O   UNL     1       9.921   2.185  21.439  0.00  0.00    -0.480 OA
ATOM      8  H   UNL     1      10.228   1.311  21.085  0.00  0.00    +0.295 HD
ENDBRANCH   5   7
ENDBRANCH   1   5
BRANCH   1   9
ATOM      9  C   UNL     1      10.932   3.385  23.461  0.00  0.00    +0.030 C 
BRANCH   9  10
ATOM     10  C   UNL     1      10.687   4.882  23.668  0.00  0.00    +0.004 C 
BRANCH  10  11
ATOM     11  C   UNL     1      12.007   5.647  23.806  0.00  0.00    +0.028 C 
BRANCH  11  12
ATOM     12  C   UNL     1      12.969   5.333  22.665  0.00  0.00    +0.156 C 
BRANCH  12  13
ATOM     13  O   UNL     1      14.275   5.084  23.166  0.00  0.00    -0.395 OA
ATOM     14  H   UNL     1      14.802   4.716  22.436  0.00  0.00    +0.209 HD
ENDBRANCH  12  13
ENDBRANCH  11  12
ENDBRANCH  10  11
ENDBRANCH   9  10
ENDBRANCH   1   9
TORSDOF 8
ENDMDL
MODEL 2
REMARK VINA RESULT:      -4.3      1.867      2.022
REMARK  Name = 
REMARK  8 active torsions:
REMARK  status: ('A' for Active; 'I' for Inactive)
REMARK    1  A    between atoms: N_1  and  CA_2
REMARK    2  A    between atoms: CA_2  and  C_4
REMARK    3  A    between atoms: CA_2  and  C_9
REMARK    4  A    between atoms: C_4  and  C_5
REMARK    5  A    between atoms: C_5  and  C_6
REMARK    6  A    between atoms: C_6  and  C_7
REMARK    7  A    between atoms: C_7  and  O_8
REMARK    8  A    between atoms: C_9  and  O_10
REMARK                            x       y       z     vdW  Elec       q    Type
REMARK                         _______ _______ _______ _____ _____    ______ ____
ROOT
ATOM      1  CA  UNL     1      10.243   2.286  22.894  0.00  0.00    +0.161 C 
ENDROOT
BRANCH   1   2
ATOM      2  N   UNL     1       9.541   2.003  21.602  0.00  0.00    -0.318 NA
ATOM      3  H1  UNL     1      10.248   1.911  20.864  0.00  0.00    +0.119 HD
ATOM      4  H2  UNL     1       9.138   1.063  21.673  0.00  0.00    +0.119 HD
ENDBRANCH   1   2
BRANCH   1   5
ATOM      5  C   UNL     1      10.178   1.016  23.765  0.00  0.00    +0.322 C 
ATOM      6  OXT UNL     1      10.405  -0.119  23.378  0.00  0.00    -0.249 OA
BRANCH   5   7
ATOM      7  O   UNL     1       9.816   1.315  25.039  0.00  0.00    -0.480 OA
ATOM      8  H   UNL     1      10.591   1.050  25.599  0.00  0.00    +0.295 HD
ENDBRANCH   5   7
ENDBRANCH   1   5
BRANCH   1   9
ATOM      9  C   UNL     1       9.612   3.465  23.644  0.00  0.00    +0.030 C 
BRANCH   9  10
ATOM     10  C   UNL     1      10.564   4.652  23.813  0.00  0.00    +0.004 C 
BRANCH  10  11
ATOM     11  C   UNL     1      11.955   4.331  23.256  0.00  0.00    +0.028 C 
BRANCH  11  12
ATOM     12  C   UNL     1      12.893   5.530  23.339  0.00  0.00    +0.156 C 
BRANCH  12  13
ATOM     13  O   UNL     1      14.240   5.127  23.139  0.00  0.00    -0.395 OA
ATOM     14  H   UNL     1      14.798   5.678  23.716  0.00  0.00    +0.209 HD
ENDBRANCH  12  13
ENDBRANCH  11  12
ENDBRANCH  10  11
ENDBRANCH   9  10
ENDBRANCH   1   9
TORSDOF 8
ENDMDL
MODEL 3
REMARK VINA RESULT:      -4.2      6.248      7.928
REMARK  Name = 
REMARK  8 active torsions:
REMARK  status: ('A' for Active; 'I' for Inactive)
REMARK    1  A    between atoms: N_1  and  CA_2
REMARK    2  A    between atoms: CA_2  and  C_4
REMARK    3  A    between atoms: CA_2  and  C_9
REMARK    4  A    between atoms: C_4  and  C_5
REMARK    5  A    between atoms: C_5  and  C_6
REMARK    6  A    between atoms: C_6  and  C_7
REMARK    7  A    between atoms: C_7  and  O_8
REMARK    8  A    between atoms: C_9  and  O_10
REMARK                            x       y       z     vdW  Elec       q    Type
REMARK                         _______ _______ _______ _____ _____    ______ ____
ROOT
ATOM      1  CA  UNL     1       9.097  -4.516  25.356  0.00  0.00    +0.161 C 
ENDROOT
BRANCH   1   2
ATOM      2  N   UNL     1      10.031  -5.685  25.329  0.00  0.00    -0.318 NA
ATOM      3  H1  UNL     1       9.496  -6.531  25.552  0.00  0.00    +0.119 HD
ATOM      4  H2  UNL     1      10.316  -5.826  24.354  0.00  0.00    +0.119 HD
ENDBRANCH   1   2
BRANCH   1   5
ATOM      5  C   UNL     1       8.116  -4.711  26.529  0.00  0.00    +0.322 C 
ATOM      6  OXT UNL     1       7.335  -3.870  26.945  0.00  0.00    -0.249 OA
BRANCH   5   7
ATOM      7  O   UNL     1       8.235  -5.953  27.065  0.00  0.00    -0.480 OA
ATOM      8  H   UNL     1       7.435  -6.067  27.640  0.00  0.00    +0.295 HD
ENDBRANCH   5   7
ENDBRANCH   1   5
BRANCH   1   9
ATOM      9  C   UNL     1       8.318  -4.372  24.044  0.00  0.00    +0.030 C 
BRANCH   9  10
ATOM     10  C   UNL     1       8.511  -3.008  23.374  0.00  0.00    +0.004 C 
BRANCH  10  11
ATOM     11  C   UNL     1       9.879  -2.410  23.717  0.00  0.00    +0.028 C 
BRANCH  11  12
ATOM     12  C   UNL     1      10.207  -1.201  22.848  0.00  0.00    +0.156 C 
BRANCH  12  13
ATOM     13  O   UNL     1      10.238  -1.565  21.475  0.00  0.00    -0.395 OA
ATOM     14  H   UNL     1      10.555  -0.793  20.976  0.00  0.00    +0.209 HD
ENDBRANCH  12  13
ENDBRANCH  11  12
ENDBRANCH  10  11
ENDBRANCH   9  10
ENDBRANCH   1   9
TORSDOF 8
ENDMDL
MODEL 4
REMARK VINA RESULT:      -4.1      2.865      3.987
REMARK  Name = 
REMARK  8 active torsions:
REMARK  status: ('A' for Active; 'I' for Inactive)
REMARK    1  A    between atoms: N_1  and  CA_2
REMARK    2  A    between atoms: CA_2  and  C_4
REMARK    3  A    between atoms: CA_2  and  C_9
REMARK    4  A    between atoms: C_4  and  C_5
REMARK    5  A    between atoms: C_5  and  C_6
REMARK    6  A    between atoms: C_6  and  C_7
REMARK    7  A    between atoms: C_7  and  O_8
REMARK    8  A    between atoms: C_9  and  O_10
REMARK                            x       y       z     vdW  Elec       q    Type
REMARK                         _______ _______ _______ _____ _____    ______ ____
ROOT
ATOM      1  CA  UNL     1       8.967  -0.779  23.487  0.00  0.00    +0.161 C 
ENDROOT
BRANCH   1   2
ATOM      2  N   UNL     1       7.880  -1.777  23.739  0.00  0.00    -0.318 NA
ATOM      3  H1  UNL     1       7.851  -1.975  24.745  0.00  0.00    +0.119 HD
ATOM      4  H2  UNL     1       6.987  -1.308  23.556  0.00  0.00    +0.119 HD
ENDBRANCH   1   2
BRANCH   1   5
ATOM      5  C   UNL     1       9.924  -1.366  22.431  0.00  0.00    +0.322 C 
ATOM      6  OXT UNL     1      10.703  -2.288  22.616  0.00  0.00    -0.249 OA
BRANCH   5   7
ATOM      7  O   UNL     1       9.805  -0.713  21.246  0.00  0.00    -0.480 OA
ATOM      8  H   UNL     1       9.946   0.245  21.461  0.00  0.00    +0.295 HD
ENDBRANCH   5   7
ENDBRANCH   1   5
BRANCH   1   9
ATOM      9  C   UNL     1       9.745  -0.442  24.765  0.00  0.00    +0.030 C 
BRANCH   9  10
ATOM     10  C   UNL     1      10.644   0.789  24.617  0.00  0.00    +0.004 C 
BRANCH  10  11
ATOM     11  C   UNL     1       9.848   2.001  24.122  0.00  0.00    +0.028 C 
BRANCH  11  12
ATOM     12  C   UNL     1      10.566   2.731  22.992  0.00  0.00    +0.156 C 
BRANCH  12  13
ATOM     13  O   UNL     1      10.183   2.200  21.731  0.00  0.00    -0.395 OA
ATOM     14  H   UNL     1      10.950   1.721  21.372  0.00  0.00    +0.209 HD
ENDBRANCH  12  13
ENDBRANCH  11  12
ENDBRANCH  10  11
ENDBRANCH   9  10
ENDBRANCH   1   9
TORSDOF 8
ENDMDL
MODEL 5
REMARK VINA RESULT:      -4.1      3.228      4.524
REMARK  Name = 
REMARK  8 active torsions:
REMARK  status: ('A' for Active; 'I' for Inactive)
REMARK    1  A    between atoms: N_1  and  CA_2
REMARK    2  A    between atoms: CA_2  and  C_4
REMARK    3  A    between atoms: CA_2  and  C_9
REMARK    4  A    between atoms: C_4  and  C_5
REMARK    5  A    between atoms: C_5  and  C_6
REMARK    6  A    between atoms: C_6  and  C_7
REMARK    7  A    between atoms: C_7  and  O_8
REMARK    8  A    between atoms: C_9  and  O_10
REMARK                            x       y       z     vdW  Elec       q    Type
REMARK                         _______ _______ _______ _____ _____    ______ ____
ROOT
ATOM      1  CA  UNL     1      10.217  -1.274  22.990  0.00  0.00    +0.161 C 
ENDROOT
BRANCH   1   2
ATOM      2  N   UNL     1       9.898  -1.010  21.551  0.00  0.00    -0.318 NA
ATOM      3  H1  UNL     1      10.725  -0.596  21.109  0.00  0.00    +0.119 HD
ATOM      4  H2  UNL     1       9.802  -1.920  21.088  0.00  0.00    +0.119 HD
ENDBRANCH   1   2
BRANCH   1   5
ATOM      5  C   UNL     1       9.539  -2.597  23.398  0.00  0.00    +0.322 C 
ATOM      6  OXT UNL     1       9.979  -3.396  24.210  0.00  0.00    -0.249 OA
BRANCH   5   7
ATOM      7  O   UNL     1       8.376  -2.780  22.722  0.00  0.00    -0.480 OA
ATOM      8  H   UNL     1       7.737  -2.137  23.123  0.00  0.00    +0.295 HD
ENDBRANCH   5   7
ENDBRANCH   1   5
BRANCH   1   9
ATOM      9  C   UNL     1       9.736  -0.140  23.902  0.00  0.00    +0.030 C 
BRANCH   9  10
ATOM     10  C   UNL     1      10.865   0.792  24.353  0.00  0.00    +0.004 C 
BRANCH  10  11
ATOM     11  C   UNL     1      10.670   2.207  23.800  0.00  0.00    +0.028 C 
BRANCH  11  12
ATOM     12  C   UNL     1       9.506   2.280  22.817  0.00  0.00    +0.156 C 
BRANCH  12  13
ATOM     13  O   UNL     1       9.973   2.175  21.480  0.00  0.00    -0.395 OA
ATOM     14  H   UNL     1      10.945   2.196  21.508  0.00  0.00    +0.209 HD
ENDBRANCH  12  13
ENDBRANCH  11  12
ENDBRANCH  10  11
ENDBRANCH   9  10
ENDBRANCH   1   9
TORSDOF 8
ENDMDL
MODEL 6
REMARK VINA RESULT:      -4.1      8.186      9.142
REMARK  Name = 
REMARK  8 active torsions:
REMARK  status: ('A' for Active; 'I' for Inactive)
REMARK    1  A    between atoms: N_1  and  CA_2
REMARK    2  A    between atoms: CA_2  and  C_4
REMARK    3  A    between atoms: CA_2  and  C_9
REMARK    4  A    between atoms: C_4  and  C_5
REMARK    5  A    between atoms: C_5  and  C_6
REMARK    6  A    between atoms: C_6  and  C_7
REMARK    7  A    between atoms: C_7  and  O_8
REMARK    8  A    between atoms: C_9  and  O_10
REMARK                            x       y       z     vdW  Elec       q    Type
REMARK                         _______ _______ _______ _____ _____    ______ ____
ROOT
ATOM      1  CA  UNL     1       9.082  -4.632  25.996  0.00  0.00    +0.161 C 
ENDROOT
BRANCH   1   2
ATOM      2  N   UNL     1       9.867  -5.484  25.049  0.00  0.00    -0.318 NA
ATOM      3  H1  UNL     1      10.403  -6.165  25.597  0.00  0.00    +0.119 HD
ATOM      4  H2  UNL     1       9.197  -6.061  24.530  0.00  0.00    +0.119 HD
ENDBRANCH   1   2
BRANCH   1   5
ATOM      5  C   UNL     1       7.786  -5.384  26.360  0.00  0.00    +0.322 C 
ATOM      6  OXT UNL     1       6.805  -5.489  25.642  0.00  0.00    -0.249 OA
BRANCH   5   7
ATOM      7  O   UNL     1       7.864  -5.916  27.607  0.00  0.00    -0.480 OA
ATOM      8  H   UNL     1       8.664  -6.500  27.592  0.00  0.00    +0.295 HD
ENDBRANCH   5   7
ENDBRANCH   1   5
BRANCH   1   9
ATOM      9  C   UNL     1       8.738  -3.266  25.389  0.00  0.00    +0.030 C 
BRANCH   9  10
ATOM     10  C   UNL     1       8.892  -3.226  23.866  0.00  0.00    +0.004 C 
BRANCH  10  11
ATOM     11  C   UNL     1       7.534  -3.059  23.176  0.00  0.00    +0.028 C 
BRANCH  11  12
ATOM     12  C   UNL     1       7.197  -4.250  22.286  0.00  0.00    +0.156 C 
BRANCH  12  13
ATOM     13  O   UNL     1       7.687  -5.455  22.855  0.00  0.00    -0.395 OA
ATOM     14  H   UNL     1       7.945  -5.260  23.773  0.00  0.00    +0.209 HD
ENDBRANCH  12  13
ENDBRANCH  11  12
ENDBRANCH  10  11
ENDBRANCH   9  10
ENDBRANCH   1   9
TORSDOF 8
ENDMDL
MODEL 7
REMARK VINA RESULT:      -4.0      2.999      4.920
REMARK  Name = 
REMARK  8 active torsions:
REMARK  status: ('A' for Active; 'I' for Inactive)
REMARK    1  A    between atoms: N_1  and  CA_2
REMARK    2  A    between atoms: CA_2  and  C_4
REMARK    3  A    between atoms: CA_2  and  C_9
REMARK    4  A    between atoms: C_4  and  C_5
REMARK    5  A    between atoms: C_5  and  C_6
REMARK    6  A    between atoms: C_6  and  C_7
REMARK    7  A    between atoms: C_7  and  O_8
REMARK    8  A    between atoms: C_9  and  O_10
REMARK                            x       y       z     vdW  Elec       q    Type
REMARK                         _______ _______ _______ _____ _____    ______ ____
ROOT
ATOM      1  CA  UNL     1      10.197   1.867  24.155  0.00  0.00    +0.161 C 
ENDROOT
BRANCH   1   2
ATOM      2  N   UNL     1       8.980   2.077  25.002  0.00  0.00    -0.318 NA
ATOM      3  H1  UNL     1       8.724   1.179  25.427  0.00  0.00    +0.119 HD
ATOM      4  H2  UNL     1       9.261   2.655  25.802  0.00  0.00    +0.119 HD
ENDBRANCH   1   2
BRANCH   1   5
ATOM      5  C   UNL     1       9.808   2.113  22.685  0.00  0.00    +0.322 C 
ATOM      6  OXT UNL     1      10.131   1.410  21.740  0.00  0.00    -0.249 OA
BRANCH   5   7
ATOM      7  O   UNL     1       9.057   3.238  22.559  0.00  0.00    -0.480 OA
ATOM      8  H   UNL     1       8.211   2.941  22.134  0.00  0.00    +0.295 HD
ENDBRANCH   5   7
ENDBRANCH   1   5
BRANCH   1   9
ATOM      9  C   UNL     1      10.769   0.454  24.313  0.00  0.00    +0.030 C 
BRANCH   9  10
ATOM     10  C   UNL     1       9.704  -0.597  24.638  0.00  0.00    +0.004 C 
BRANCH  10  11
ATOM     11  C   UNL     1       9.921  -1.877  23.825  0.00  0.00    +0.028 C 
BRANCH  11  12
ATOM     12  C   UNL     1       9.213  -1.822  22.476  0.00  0.00    +0.156 C 
BRANCH  12  13
ATOM     13  O   UNL     1      10.138  -1.538  21.436  0.00  0.00    -0.395 OA
ATOM     14  H   UNL     1       9.846  -0.718  21.002  0.00  0.00    +0.209 HD
ENDBRANCH  12  13
ENDBRANCH  11  12
ENDBRANCH  10  11
ENDBRANCH   9  10
ENDBRANCH   1   9
TORSDOF 8
ENDMDL
MODEL 8
REMARK VINA RESULT:      -3.9      6.421      7.917
REMARK  Name = 
REMARK  8 active torsions:
REMARK  status: ('A' for Active; 'I' for Inactive)
REMARK    1  A    between atoms: N_1  and  CA_2
REMARK    2  A    between atoms: CA_2  and  C_4
REMARK    3  A    between atoms: CA_2  and  C_9
REMARK    4  A    between atoms: C_4  and  C_5
REMARK    5  A    between atoms: C_5  and  C_6
REMARK    6  A    between atoms: C_6  and  C_7
REMARK    7  A    between atoms: C_7  and  O_8
REMARK    8  A    between atoms: C_9  and  O_10
REMARK                            x       y       z     vdW  Elec       q    Type
REMARK                         _______ _______ _______ _____ _____    ______ ____
ROOT
ATOM      1  CA  UNL     1       8.027  -4.804  26.099  0.00  0.00    +0.161 C 
ENDROOT
BRANCH   1   2
ATOM      2  N   UNL     1       8.135  -5.761  27.244  0.00  0.00    -0.318 NA
ATOM      3  H1  UNL     1       8.896  -5.447  27.857  0.00  0.00    +0.119 HD
ATOM      4  H2  UNL     1       7.294  -5.645  27.820  0.00  0.00    +0.119 HD
ENDBRANCH   1   2
BRANCH   1   5
ATOM      5  C   UNL     1       8.933  -5.311  24.960  0.00  0.00    +0.322 C 
ATOM      6  OXT UNL     1       8.624  -5.363  23.780  0.00  0.00    -0.249 OA
BRANCH   5   7
ATOM      7  O   UNL     1      10.139  -5.715  25.437  0.00  0.00    -0.480 OA
ATOM      8  H   UNL     1      10.230  -6.659  25.149  0.00  0.00    +0.295 HD
ENDBRANCH   5   7
ENDBRANCH   1   5
BRANCH   1   9
ATOM      9  C   UNL     1       8.438  -3.382  26.498  0.00  0.00    +0.030 C 
BRANCH   9  10
ATOM     10  C   UNL     1       7.932  -2.312  25.525  0.00  0.00    +0.004 C 
BRANCH  10  11
ATOM     11  C   UNL     1       9.069  -1.388  25.077  0.00  0.00    +0.028 C 
BRANCH  11  12
ATOM     12  C   UNL     1       9.463  -1.633  23.624  0.00  0.00    +0.156 C 
BRANCH  12  13
ATOM     13  O   UNL     1      10.333  -2.751  23.523  0.00  0.00    -0.395 OA
ATOM     14  H   UNL     1       9.796  -3.551  23.655  0.00  0.00    +0.209 HD
ENDBRANCH  12  13
ENDBRANCH  11  12
ENDBRANCH  10  11
ENDBRANCH   9  10
ENDBRANCH   1   9
TORSDOF 8
ENDMDL
MODEL 9
REMARK VINA RESULT:      -3.9      8.141      8.948
REMARK  Name = 
REMARK  8 active torsions:
REMARK  status: ('A' for Active; 'I' for Inactive)
REMARK    1  A    between atoms: N_1  and  CA_2
REMARK    2  A    between atoms: CA_2  and  C_4
REMARK    3  A    between atoms: CA_2  and  C_9
REMARK    4  A    between atoms: C_4  and  C_5
REMARK    5  A    between atoms: C_5  and  C_6
REMARK    6  A    between atoms: C_6  and  C_7
REMARK    7  A    between atoms: C_7  and  O_8
REMARK    8  A    between atoms: C_9  and  O_10
REMARK                            x       y       z     vdW  Elec       q    Type
REMARK                         _______ _______ _______ _____ _____    ______ ____
ROOT
ATOM      1  CA  UNL     1       8.001  -5.218  25.705  0.00  0.00    +0.161 C 
ENDROOT
BRANCH   1   2
ATOM      2  N   UNL     1       8.113  -5.625  27.141  0.00  0.00    -0.318 NA
ATOM      3  H1  UNL     1       7.369  -5.154  27.668  0.00  0.00    +0.119 HD
ATOM      4  H2  UNL     1       7.863  -6.617  27.197  0.00  0.00    +0.119 HD
ENDBRANCH   1   2
BRANCH   1   5
ATOM      5  C   UNL     1       9.409  -4.850  25.197  0.00  0.00    +0.322 C 
ATOM      6  OXT UNL     1       9.665  -3.950  24.414  0.00  0.00    -0.249 OA
BRANCH   5   7
ATOM      7  O   UNL     1      10.351  -5.672  25.727  0.00  0.00    -0.480 OA
ATOM      8  H   UNL     1      10.914  -5.090  26.298  0.00  0.00    +0.295 HD
ENDBRANCH   5   7
ENDBRANCH   1   5
BRANCH   1   9
ATOM      9  C   UNL     1       7.052  -4.029  25.517  0.00  0.00    +0.030 C 
BRANCH   9  10
ATOM     10  C   UNL     1       5.986  -4.270  24.444  0.00  0.00    +0.004 C 
BRANCH  10  11
ATOM     11  C   UNL     1       5.998  -3.158  23.390  0.00  0.00    +0.028 C 
BRANCH  11  12
ATOM     12  C   UNL     1       6.903  -3.499  22.211  0.00  0.00    +0.156 C 
BRANCH  12  13
ATOM     13  O   UNL     1       8.111  -2.755  22.277  0.00  0.00    -0.395 OA
ATOM     14  H   UNL     1       8.413  -2.608  21.364  0.00  0.00    +0.209 HD
ENDBRANCH  12  13
ENDBRANCH  11  12
ENDBRANCH  10  11
ENDBRANCH   9  10
ENDBRANCH   1   9
TORSDOF 8
ENDMDL
