MODEL 1
REMARK VINA RESULT:      -7.5      0.000      0.000
REMARK  Name = 
REMARK  5 active torsions:
REMARK  status: ('A' for Active; 'I' for Inactive)
REMARK    1  A    between atoms: C_1  and  N_2
REMARK    2  A    between atoms: C_3  and  C_5
REMARK    3  A    between atoms: C_6  and  C_7
REMARK    4  A    between atoms: C_9  and  C_10
REMARK    5  A    between atoms: C_22  and  C_23
REMARK                            x       y       z     vdW  Elec       q    Type
REMARK                         _______ _______ _______ _____ _____    ______ ____
ROOT
ATOM      1  C   UNL     1       8.770  -2.514  24.242  0.00  0.00    +0.060 A 
ATOM      2  C   UNL     1       9.350  -1.429  23.494  0.00  0.00    -0.013 A 
ATOM      3  C   UNL     1       9.793  -1.511  22.070  0.00  0.00    +0.047 C 
ATOM      4  C   UNL     1       9.437  -0.328  24.339  0.00  0.00    +0.044 A 
ATOM      5  N   UNL     1       8.911  -0.704  25.547  0.00  0.00    -0.358 N 
ATOM      6  H   UNL     1       8.824  -0.098  26.360  0.00  0.00    +0.166 HD
ATOM      7  C   UNL     1       8.496  -2.016  25.512  0.00  0.00    +0.026 A 
ATOM      8  C   UNL     1       7.846  -2.609  26.713  0.00  0.00    +0.064 C 
ENDROOT
BRANCH   4   9
ATOM      9  C   UNL     1       9.949   0.973  24.093  0.00  0.00    +0.039 C 
ATOM     10  C   UNL     1       9.392   2.180  24.270  0.00  0.00    +0.048 C 
ATOM     11  C   UNL     1      10.122   3.422  23.957  0.00  0.00    +0.010 A 
ATOM     12  C   UNL     1       9.259   4.477  24.254  0.00  0.00    +0.042 A 
ATOM     13  C   UNL     1       9.623   5.798  24.081  0.00  0.00    +0.025 A 
ATOM     14  C   UNL     1      10.908   6.054  23.590  0.00  0.00    +0.022 A 
ATOM     15  C   UNL     1      11.784   4.996  23.292  0.00  0.00    +0.042 A 
ATOM     16 CL   UNL     1      13.360   5.339  22.693  0.00  0.00    -0.084 Cl
ATOM     17  N   UNL     1       8.046   3.990  24.729  0.00  0.00    -0.281 N 
ATOM     18  H   UNL     1       7.255   4.550  25.012  0.00  0.00    +0.155 HD
ATOM     19  C   UNL     1      11.397   3.667  23.475  0.00  0.00    +0.030 A 
ATOM     20  C   UNL     1       8.036   2.601  24.773  0.00  0.00    +0.249 C 
ATOM     21  O   UNL     1       7.119   1.891  25.143  0.00  0.00    -0.270 OA
ENDBRANCH   4   9
BRANCH   1  25
ATOM     22  C   UNL     1       7.143  -5.148  22.136  0.00  0.00    +0.128 C 
ATOM     23  N   UNL     1       7.520  -3.913  22.761  0.00  0.00    -0.314 N 
ATOM     24  H   UNL     1       6.957  -3.087  22.619  0.00  0.00    +0.149 HD
ATOM     25  C   UNL     1       8.501  -3.860  23.725  0.00  0.00    +0.246 C 
ATOM     26  O   UNL     1       9.068  -4.862  24.150  0.00  0.00    -0.270 OA
ENDBRANCH   1  25
TORSDOF 2
ENDMDL
MODEL 2
REMARK VINA RESULT:      -7.3      3.424      7.843
REMARK  Name = 
REMARK  5 active torsions:
REMARK  status: ('A' for Active; 'I' for Inactive)
REMARK    1  A    between atoms: C_1  and  N_2
REMARK    2  A    between atoms: C_3  and  C_5
REMARK    3  A    between atoms: C_6  and  C_7
REMARK    4  A    between atoms: C_9  and  C_10
REMARK    5  A    between atoms: C_22  and  C_23
REMARK                            x       y       z     vdW  Elec       q    Type
REMARK                         _______ _______ _______ _____ _____    ______ ____
ROOT
ATOM      1  C   UNL     1       8.420   3.205  23.119  0.00  0.00    +0.060 A 
ATOM      2  C   UNL     1       7.606   2.039  22.893  0.00  0.00    -0.013 A 
ATOM      3  C   UNL     1       6.125   2.053  22.705  0.00  0.00    +0.047 C 
ATOM      4  C   UNL     1       8.441   0.927  22.907  0.00  0.00    +0.044 A 
ATOM      5  N   UNL     1       9.718   1.384  23.106  0.00  0.00    -0.358 N 
ATOM      6  H   UNL     1      10.548   0.798  23.145  0.00  0.00    +0.166 HD
ATOM      7  C   UNL     1       9.732   2.755  23.230  0.00  0.00    +0.026 A 
ATOM      8  C   UNL     1      11.032   3.459  23.403  0.00  0.00    +0.064 C 
ENDROOT
BRANCH   4   9
ATOM      9  C   UNL     1       8.132  -0.450  22.752  0.00  0.00    +0.039 C 
ATOM     10  C   UNL     1       8.362  -1.494  23.560  0.00  0.00    +0.048 C 
ATOM     11  C   UNL     1       7.936  -2.859  23.201  0.00  0.00    +0.010 A 
ATOM     12  C   UNL     1       8.328  -3.689  24.252  0.00  0.00    +0.042 A 
ATOM     13  C   UNL     1       8.083  -5.048  24.249  0.00  0.00    +0.025 A 
ATOM     14  C   UNL     1       7.415  -5.580  23.140  0.00  0.00    +0.022 A 
ATOM     15  C   UNL     1       7.014  -4.749  22.080  0.00  0.00    +0.042 A 
ATOM     16 CL   UNL     1       6.191  -5.430  20.731  0.00  0.00    -0.084 Cl
ATOM     17  N   UNL     1       8.967  -2.947  25.241  0.00  0.00    -0.281 N 
ATOM     18  H   UNL     1       9.345  -3.314  26.102  0.00  0.00    +0.155 HD
ATOM     19  C   UNL     1       7.271  -3.377  22.102  0.00  0.00    +0.030 A 
ATOM     20  C   UNL     1       9.033  -1.600  24.905  0.00  0.00    +0.249 C 
ATOM     21  O   UNL     1       9.530  -0.709  25.568  0.00  0.00    -0.270 OA
ENDBRANCH   4   9
BRANCH   1  25
ATOM     22  C   UNL     1       7.226   6.509  21.824  0.00  0.00    +0.128 C 
ATOM     23  N   UNL     1       7.718   5.167  21.949  0.00  0.00    -0.314 N 
ATOM     24  H   UNL     1       8.067   4.684  21.134  0.00  0.00    +0.149 HD
ATOM     25  C   UNL     1       7.934   4.588  23.179  0.00  0.00    +0.246 C 
ATOM     26  O   UNL     1       7.779   5.194  24.234  0.00  0.00    -0.270 OA
ENDBRANCH   1  25
TORSDOF 2
ENDMDL
MODEL 3
REMARK VINA RESULT:      -7.2      2.795      4.525
REMARK  Name = 
REMARK  5 active torsions:
REMARK  status: ('A' for Active; 'I' for Inactive)
REMARK    1  A    between atoms: C_1  and  N_2
REMARK    2  A    between atoms: C_3  and  C_5
REMARK    3  A    between atoms: C_6  and  C_7
REMARK    4  A    between atoms: C_9  and  C_10
REMARK    5  A    between atoms: C_22  and  C_23
REMARK                            x       y       z     vdW  Elec       q    Type
REMARK                         _______ _______ _______ _____ _____    ______ ____
ROOT
ATOM      1  C   UNL     1       5.582  -4.611  23.249  0.00  0.00    +0.060 A 
ATOM      2  C   UNL     1       5.669  -3.247  23.700  0.00  0.00    -0.013 A 
ATOM      3  C   UNL     1       4.803  -2.636  24.752  0.00  0.00    +0.047 C 
ATOM      4  C   UNL     1       6.672  -2.619  22.969  0.00  0.00    +0.044 A 
ATOM      5  N   UNL     1       7.201  -3.557  22.122  0.00  0.00    -0.358 N 
ATOM      6  H   UNL     1       7.967  -3.393  21.474  0.00  0.00    +0.166 HD
ATOM      7  C   UNL     1       6.565  -4.769  22.276  0.00  0.00    +0.026 A 
ATOM      8  C   UNL     1       7.023  -5.941  21.482  0.00  0.00    +0.064 C 
ENDROOT
BRANCH   4   9
ATOM      9  C   UNL     1       7.135  -1.278  23.017  0.00  0.00    +0.039 C 
ATOM     10  C   UNL     1       8.337  -0.778  23.339  0.00  0.00    +0.048 C 
ATOM     11  C   UNL     1       8.605   0.671  23.308  0.00  0.00    +0.010 A 
ATOM     12  C   UNL     1       9.936   0.838  23.694  0.00  0.00    +0.042 A 
ATOM     13  C   UNL     1      10.530   2.082  23.772  0.00  0.00    +0.025 A 
ATOM     14  C   UNL     1       9.744   3.194  23.447  0.00  0.00    +0.022 A 
ATOM     15  C   UNL     1       8.404   3.032  23.054  0.00  0.00    +0.042 A 
ATOM     16 CL   UNL     1       7.462   4.416  22.655  0.00  0.00    -0.084 Cl
ATOM     17  N   UNL     1      10.519  -0.396  23.963  0.00  0.00    -0.281 N 
ATOM     18  H   UNL     1      11.472  -0.546  24.262  0.00  0.00    +0.155 HD
ATOM     19  C   UNL     1       7.822   1.765  22.979  0.00  0.00    +0.030 A 
ATOM     20  C   UNL     1       9.619  -1.438  23.774  0.00  0.00    +0.249 C 
ATOM     21  O   UNL     1       9.837  -2.625  23.930  0.00  0.00    -0.270 OA
ENDBRANCH   4   9
BRANCH   1  25
ATOM     22  C   UNL     1       4.213  -7.164  25.621  0.00  0.00    +0.128 C 
ATOM     23  N   UNL     1       5.018  -6.172  24.968  0.00  0.00    -0.314 N 
ATOM     24  H   UNL     1       5.950  -5.981  25.307  0.00  0.00    +0.149 HD
ATOM     25  C   UNL     1       4.651  -5.622  23.761  0.00  0.00    +0.246 C 
ATOM     26  O   UNL     1       3.655  -5.984  23.143  0.00  0.00    -0.270 OA
ENDBRANCH   1  25
TORSDOF 2
ENDMDL
MODEL 4
REMARK VINA RESULT:      -7.1      3.381      7.685
REMARK  Name = 
REMARK  5 active torsions:
REMARK  status: ('A' for Active; 'I' for Inactive)
REMARK    1  A    between atoms: C_1  and  N_2
REMARK    2  A    between atoms: C_3  and  C_5
REMARK    3  A    between atoms: C_6  and  C_7
REMARK    4  A    between atoms: C_9  and  C_10
REMARK    5  A    between atoms: C_22  and  C_23
REMARK                            x       y       z     vdW  Elec       q    Type
REMARK                         _______ _______ _______ _____ _____    ______ ____
ROOT
ATOM      1  C   UNL     1       9.225   3.171  23.354  0.00  0.00    +0.060 A 
ATOM      2  C   UNL     1       9.425   1.774  23.639  0.00  0.00    -0.013 A 
ATOM      3  C   UNL     1      10.613   1.206  24.343  0.00  0.00    +0.047 C 
ATOM      4  C   UNL     1       8.340   1.074  23.123  0.00  0.00    +0.044 A 
ATOM      5  N   UNL     1       7.492   1.997  22.568  0.00  0.00    -0.358 N 
ATOM      6  H   UNL     1       6.601   1.781  22.127  0.00  0.00    +0.166 HD
ATOM      7  C   UNL     1       8.000   3.270  22.700  0.00  0.00    +0.026 A 
ATOM      8  C   UNL     1       7.207   4.428  22.206  0.00  0.00    +0.064 C 
ENDROOT
BRANCH   4   9
ATOM      9  C   UNL     1       8.067  -0.319  23.123  0.00  0.00    +0.039 C 
ATOM     10  C   UNL     1       7.760  -1.150  24.129  0.00  0.00    +0.048 C 
ATOM     11  C   UNL     1       7.499  -2.582  23.896  0.00  0.00    +0.010 A 
ATOM     12  C   UNL     1       7.214  -3.143  25.142  0.00  0.00    +0.042 A 
ATOM     13  C   UNL     1       6.916  -4.482  25.296  0.00  0.00    +0.025 A 
ATOM     14  C   UNL     1       6.906  -5.278  24.145  0.00  0.00    +0.022 A 
ATOM     15  C   UNL     1       7.189  -4.719  22.887  0.00  0.00    +0.042 A 
ATOM     16 CL   UNL     1       7.167  -5.720  21.487  0.00  0.00    -0.084 Cl
ATOM     17  N   UNL     1       7.276  -2.171  26.135  0.00  0.00    -0.281 N 
ATOM     18  H   UNL     1       7.112  -2.321  27.119  0.00  0.00    +0.155 HD
ATOM     19  C   UNL     1       7.488  -3.362  22.751  0.00  0.00    +0.030 A 
ATOM     20  C   UNL     1       7.603  -0.926  25.610  0.00  0.00    +0.249 C 
ATOM     21  O   UNL     1       7.729   0.114  26.229  0.00  0.00    -0.270 OA
ENDBRANCH   4   9
BRANCH   1  25
ATOM     22  C   UNL     1      12.374   5.197  23.351  0.00  0.00    +0.128 C 
ATOM     23  N   UNL     1      11.367   4.203  23.113  0.00  0.00    -0.314 N 
ATOM     24  H   UNL     1      11.607   3.357  22.617  0.00  0.00    +0.149 HD
ATOM     25  C   UNL     1      10.136   4.258  23.727  0.00  0.00    +0.246 C 
ATOM     26  O   UNL     1       9.845   5.118  24.552  0.00  0.00    -0.270 OA
ENDBRANCH   1  25
TORSDOF 2
ENDMDL
MODEL 5
REMARK VINA RESULT:      -7.0      1.522      2.202
REMARK  Name = 
REMARK  5 active torsions:
REMARK  status: ('A' for Active; 'I' for Inactive)
REMARK    1  A    between atoms: C_1  and  N_2
REMARK    2  A    between atoms: C_3  and  C_5
REMARK    3  A    between atoms: C_6  and  C_7
REMARK    4  A    between atoms: C_9  and  C_10
REMARK    5  A    between atoms: C_22  and  C_23
REMARK                            x       y       z     vdW  Elec       q    Type
REMARK                         _______ _______ _______ _____ _____    ______ ____
ROOT
ATOM      1  C   UNL     1       7.948  -2.185  24.601  0.00  0.00    +0.060 A 
ATOM      2  C   UNL     1       8.587  -0.968  25.027  0.00  0.00    -0.013 A 
ATOM      3  C   UNL     1       8.774  -0.553  26.449  0.00  0.00    +0.047 C 
ATOM      4  C   UNL     1       8.964  -0.263  23.889  0.00  0.00    +0.044 A 
ATOM      5  N   UNL     1       8.600  -1.020  22.807  0.00  0.00    -0.358 N 
ATOM      6  H   UNL     1       8.764  -0.768  21.836  0.00  0.00    +0.166 HD
ATOM      7  C   UNL     1       7.990  -2.188  23.210  0.00  0.00    +0.026 A 
ATOM      8  C   UNL     1       7.561  -3.179  22.186  0.00  0.00    +0.064 C 
ENDROOT
BRANCH   4   9
ATOM      9  C   UNL     1       9.607   0.996  23.766  0.00  0.00    +0.039 C 
ATOM     10  C   UNL     1       9.147   2.238  23.977  0.00  0.00    +0.048 C 
ATOM     11  C   UNL     1      10.007   3.421  23.798  0.00  0.00    +0.010 A 
ATOM     12  C   UNL     1       9.220   4.534  24.097  0.00  0.00    +0.042 A 
ATOM     13  C   UNL     1       9.712   5.823  24.036  0.00  0.00    +0.025 A 
ATOM     14  C   UNL     1      11.050   5.986  23.659  0.00  0.00    +0.022 A 
ATOM     15  C   UNL     1      11.849   4.868  23.360  0.00  0.00    +0.042 A 
ATOM     16 CL   UNL     1      13.492   5.097  22.902  0.00  0.00    -0.084 Cl
ATOM     17  N   UNL     1       7.934   4.136  24.449  0.00  0.00    -0.281 N 
ATOM     18  H   UNL     1       7.176   4.751  24.708  0.00  0.00    +0.155 HD
ATOM     19  C   UNL     1      11.333   3.573  23.428  0.00  0.00    +0.030 A 
ATOM     20  C   UNL     1       7.798   2.754  24.404  0.00  0.00    +0.249 C 
ATOM     21  O   UNL     1       6.795   2.113  24.659  0.00  0.00    -0.270 OA
ENDBRANCH   4   9
BRANCH   1  25
ATOM     22  C   UNL     1       7.942  -5.263  26.734  0.00  0.00    +0.128 C 
ATOM     23  N   UNL     1       8.306  -4.187  25.857  0.00  0.00    -0.314 N 
ATOM     24  H   UNL     1       9.189  -4.216  25.368  0.00  0.00    +0.149 HD
ATOM     25  C   UNL     1       7.400  -3.219  25.487  0.00  0.00    +0.246 C 
ATOM     26  O   UNL     1       6.223  -3.246  25.830  0.00  0.00    -0.270 OA
ENDBRANCH   1  25
TORSDOF 2
ENDMDL
MODEL 6
REMARK VINA RESULT:      -6.9      3.447      7.858
REMARK  Name = 
REMARK  5 active torsions:
REMARK  status: ('A' for Active; 'I' for Inactive)
REMARK    1  A    between atoms: C_1  and  N_2
REMARK    2  A    between atoms: C_3  and  C_5
REMARK    3  A    between atoms: C_6  and  C_7
REMARK    4  A    between atoms: C_9  and  C_10
REMARK    5  A    between atoms: C_22  and  C_23
REMARK                            x       y       z     vdW  Elec       q    Type
REMARK                         _______ _______ _______ _____ _____    ______ ____
ROOT
ATOM      1  C   UNL     1       8.570   3.457  24.011  0.00  0.00    +0.060 A 
ATOM      2  C   UNL     1       7.773   2.355  24.482  0.00  0.00    -0.013 A 
ATOM      3  C   UNL     1       6.305   2.413  24.750  0.00  0.00    +0.047 C 
ATOM      4  C   UNL     1       8.616   1.263  24.657  0.00  0.00    +0.044 A 
ATOM      5  N   UNL     1       9.874   1.662  24.286  0.00  0.00    -0.358 N 
ATOM      6  H   UNL     1      10.700   1.068  24.290  0.00  0.00    +0.166 HD
ATOM      7  C   UNL     1       9.871   2.979  23.886  0.00  0.00    +0.026 A 
ATOM      8  C   UNL     1      11.133   3.596  23.394  0.00  0.00    +0.064 C 
ENDROOT
BRANCH   4   9
ATOM      9  C   UNL     1       8.330  -0.048  25.119  0.00  0.00    +0.039 C 
ATOM     10  C   UNL     1       8.860  -1.232  24.778  0.00  0.00    +0.048 C 
ATOM     11  C   UNL     1       8.413  -2.488  25.405  0.00  0.00    +0.010 A 
ATOM     12  C   UNL     1       9.163  -3.512  24.825  0.00  0.00    +0.042 A 
ATOM     13  C   UNL     1       9.006  -4.836  25.184  0.00  0.00    +0.025 A 
ATOM     14  C   UNL     1       8.054  -5.129  26.168  0.00  0.00    +0.022 A 
ATOM     15  C   UNL     1       7.298  -4.102  26.759  0.00  0.00    +0.042 A 
ATOM     16 CL   UNL     1       6.137  -4.490  27.968  0.00  0.00    -0.084 Cl
ATOM     17  N   UNL     1      10.044  -2.991  23.883  0.00  0.00    -0.281 N 
ATOM     18  H   UNL     1      10.694  -3.524  23.324  0.00  0.00    +0.155 HD
ATOM     19  C   UNL     1       7.473  -2.769  26.383  0.00  0.00    +0.030 A 
ATOM     20  C   UNL     1       9.929  -1.609  23.787  0.00  0.00    +0.249 C 
ATOM     21  O   UNL     1      10.566  -0.875  23.053  0.00  0.00    -0.270 OA
ENDBRANCH   4   9
BRANCH   1  25
ATOM     22  C   UNL     1       7.370   6.289  21.876  0.00  0.00    +0.128 C 
ATOM     23  N   UNL     1       7.871   5.033  22.356  0.00  0.00    -0.314 N 
ATOM     24  H   UNL     1       8.239   4.358  21.702  0.00  0.00    +0.149 HD
ATOM     25  C   UNL     1       8.071   4.801  23.698  0.00  0.00    +0.246 C 
ATOM     26  O   UNL     1       7.892   5.661  24.554  0.00  0.00    -0.270 OA
ENDBRANCH   1  25
TORSDOF 2
ENDMDL
MODEL 7
REMARK VINA RESULT:      -6.9      3.695      7.951
REMARK  Name = 
REMARK  5 active torsions:
REMARK  status: ('A' for Active; 'I' for Inactive)
REMARK    1  A    between atoms: C_1  and  N_2
REMARK    2  A    between atoms: C_3  and  C_5
REMARK    3  A    between atoms: C_6  and  C_7
REMARK    4  A    between atoms: C_9  and  C_10
REMARK    5  A    between atoms: C_22  and  C_23
REMARK                            x       y       z     vdW  Elec       q    Type
REMARK                         _______ _______ _______ _____ _____    ______ ____
ROOT
ATOM      1  C   UNL     1       8.984   3.712  23.470  0.00  0.00    +0.060 A 
ATOM      2  C   UNL     1       8.892   2.328  23.855  0.00  0.00    -0.013 A 
ATOM      3  C   UNL     1       9.936   1.581  24.618  0.00  0.00    +0.047 C 
ATOM      4  C   UNL     1       7.687   1.830  23.371  0.00  0.00    +0.044 A 
ATOM      5  N   UNL     1       7.049   2.864  22.738  0.00  0.00    -0.358 N 
ATOM      6  H   UNL     1       6.133   2.804  22.299  0.00  0.00    +0.166 HD
ATOM      7  C   UNL     1       7.808   4.012  22.790  0.00  0.00    +0.026 A 
ATOM      8  C   UNL     1       7.271   5.270  22.202  0.00  0.00    +0.064 C 
ENDROOT
BRANCH   4   9
ATOM      9  C   UNL     1       7.134   0.526  23.464  0.00  0.00    +0.039 C 
ATOM     10  C   UNL     1       7.551  -0.640  22.950  0.00  0.00    +0.048 C 
ATOM     11  C   UNL     1       6.818  -1.896  23.187  0.00  0.00    +0.010 A 
ATOM     12  C   UNL     1       7.518  -2.899  22.516  0.00  0.00    +0.042 A 
ATOM     13  C   UNL     1       7.110  -4.218  22.528  0.00  0.00    +0.025 A 
ATOM     14  C   UNL     1       5.950  -4.528  23.249  0.00  0.00    +0.022 A 
ATOM     15  C   UNL     1       5.242  -3.522  23.930  0.00  0.00    +0.042 A 
ATOM     16 CL   UNL     1       3.821  -3.932  24.811  0.00  0.00    -0.084 Cl
ATOM     17  N   UNL     1       8.633  -2.366  21.877  0.00  0.00    -0.281 N 
ATOM     18  H   UNL     1       9.300  -2.883  21.324  0.00  0.00    +0.155 HD
ATOM     19  C   UNL     1       5.672  -2.195  23.906  0.00  0.00    +0.030 A 
ATOM     20  C   UNL     1       8.733  -0.995  22.086  0.00  0.00    +0.249 C 
ATOM     21  O   UNL     1       9.599  -0.255  21.656  0.00  0.00    -0.270 OA
ENDBRANCH   4   9
BRANCH   1  25
ATOM     22  C   UNL     1      12.460   5.095  23.312  0.00  0.00    +0.128 C 
ATOM     23  N   UNL     1      11.274   4.306  23.135  0.00  0.00    -0.314 N 
ATOM     24  H   UNL     1      11.331   3.417  22.659  0.00  0.00    +0.149 HD
ATOM     25  C   UNL     1      10.099   4.613  23.782  0.00  0.00    +0.246 C 
ATOM     26  O   UNL     1      10.006   5.534  24.587  0.00  0.00    -0.270 OA
ENDBRANCH   1  25
TORSDOF 2
ENDMDL
MODEL 8
REMARK VINA RESULT:      -6.9      3.563      7.856
REMARK  Name = 
REMARK  5 active torsions:
REMARK  status: ('A' for Active; 'I' for Inactive)
REMARK    1  A    between atoms: C_1  and  N_2
REMARK    2  A    between atoms: C_3  and  C_5
REMARK    3  A    between atoms: C_6  and  C_7
REMARK    4  A    between atoms: C_9  and  C_10
REMARK    5  A    between atoms: C_22  and  C_23
REMARK                            x       y       z     vdW  Elec       q    Type
REMARK                         _______ _______ _______ _____ _____    ______ ____
ROOT
ATOM      1  C   UNL     1       7.152   3.302  22.930  0.00  0.00    +0.060 A 
ATOM      2  C   UNL     1       7.697   2.034  22.521  0.00  0.00    -0.013 A 
ATOM      3  C   UNL     1       8.958   1.856  21.742  0.00  0.00    +0.047 C 
ATOM      4  C   UNL     1       6.832   1.037  22.961  0.00  0.00    +0.044 A 
ATOM      5  N   UNL     1       5.812   1.656  23.634  0.00  0.00    -0.358 N 
ATOM      6  H   UNL     1       5.035   1.179  24.085  0.00  0.00    +0.166 HD
ATOM      7  C   UNL     1       5.985   3.023  23.635  0.00  0.00    +0.026 A 
ATOM      8  C   UNL     1       5.010   3.882  24.360  0.00  0.00    +0.064 C 
ENDROOT
BRANCH   4   9
ATOM      9  C   UNL     1       6.904  -0.371  22.798  0.00  0.00    +0.039 C 
ATOM     10  C   UNL     1       7.510  -1.308  23.542  0.00  0.00    +0.048 C 
ATOM     11  C   UNL     1       7.444  -2.737  23.189  0.00  0.00    +0.010 A 
ATOM     12  C   UNL     1       8.173  -3.422  24.162  0.00  0.00    +0.042 A 
ATOM     13  C   UNL     1       8.318  -4.795  24.144  0.00  0.00    +0.025 A 
ATOM     14  C   UNL     1       7.700  -5.496  23.102  0.00  0.00    +0.022 A 
ATOM     15  C   UNL     1       6.961  -4.812  22.121  0.00  0.00    +0.042 A 
ATOM     16 CL   UNL     1       6.208  -5.699  20.853  0.00  0.00    -0.084 Cl
ATOM     17  N   UNL     1       8.691  -2.529  25.095  0.00  0.00    -0.281 N 
ATOM     18  H   UNL     1       9.255  -2.774  25.895  0.00  0.00    +0.155 HD
ATOM     19  C   UNL     1       6.825  -3.423  22.157  0.00  0.00    +0.030 A 
ATOM     20  C   UNL     1       8.337  -1.218  24.797  0.00  0.00    +0.249 C 
ATOM     21  O   UNL     1       8.641  -0.222  25.428  0.00  0.00    -0.270 OA
ENDBRANCH   4   9
BRANCH   1  25
ATOM     22  C   UNL     1       9.542   6.155  23.347  0.00  0.00    +0.128 C 
ATOM     23  N   UNL     1       8.825   4.918  23.478  0.00  0.00    -0.314 N 
ATOM     24  H   UNL     1       8.995   4.323  24.276  0.00  0.00    +0.149 HD
ATOM     25  C   UNL     1       7.754   4.615  22.670  0.00  0.00    +0.246 C 
ATOM     26  O   UNL     1       7.310   5.396  21.835  0.00  0.00    -0.270 OA
ENDBRANCH   1  25
TORSDOF 2
ENDMDL
MODEL 9
REMARK VINA RESULT:      -6.9      1.682      2.182
REMARK  Name = 
REMARK  5 active torsions:
REMARK  status: ('A' for Active; 'I' for Inactive)
REMARK    1  A    between atoms: C_1  and  N_2
REMARK    2  A    between atoms: C_3  and  C_5
REMARK    3  A    between atoms: C_6  and  C_7
REMARK    4  A    between atoms: C_9  and  C_10
REMARK    5  A    between atoms: C_22  and  C_23
REMARK                            x       y       z     vdW  Elec       q    Type
REMARK                         _______ _______ _______ _____ _____    ______ ____
ROOT
ATOM      1  C   UNL     1       8.096  -4.038  23.733  0.00  0.00    +0.060 A 
ATOM      2  C   UNL     1       7.995  -2.656  23.343  0.00  0.00    -0.013 A 
ATOM      3  C   UNL     1       6.990  -2.108  22.384  0.00  0.00    +0.047 C 
ATOM      4  C   UNL     1       9.001  -1.953  23.998  0.00  0.00    +0.044 A 
ATOM      5  N   UNL     1       9.678  -2.853  24.778  0.00  0.00    -0.358 N 
ATOM      6  H   UNL     1      10.460  -2.626  25.389  0.00  0.00    +0.166 HD
ATOM      7  C   UNL     1       9.148  -4.117  24.641  0.00  0.00    +0.026 A 
ATOM      8  C   UNL     1       9.709  -5.237  25.444  0.00  0.00    +0.064 C 
ENDROOT
BRANCH   4   9
ATOM      9  C   UNL     1       9.340  -0.576  23.941  0.00  0.00    +0.039 C 
ATOM     10  C   UNL     1       8.691   0.504  24.399  0.00  0.00    +0.048 C 
ATOM     11  C   UNL     1       9.242   1.862  24.239  0.00  0.00    +0.010 A 
ATOM     12  C   UNL     1       8.324   2.736  24.822  0.00  0.00    +0.042 A 
ATOM     13  C   UNL     1       8.525   4.102  24.855  0.00  0.00    +0.025 A 
ATOM     14  C   UNL     1       9.700   4.595  24.277  0.00  0.00    +0.022 A 
ATOM     15  C   UNL     1      10.631   3.720  23.692  0.00  0.00    +0.042 A 
ATOM     16 CL   UNL     1      12.070   4.354  22.992  0.00  0.00    -0.084 Cl
ATOM     17  N   UNL     1       7.241   2.028  25.334  0.00  0.00    -0.281 N 
ATOM     18  H   UNL     1       6.442   2.429  25.802  0.00  0.00    +0.155 HD
ATOM     19  C   UNL     1      10.410   2.342  23.669  0.00  0.00    +0.030 A 
ATOM     20  C   UNL     1       7.379   0.661  25.121  0.00  0.00    +0.249 C 
ATOM     21  O   UNL     1       6.597  -0.209  25.455  0.00  0.00    -0.270 OA
ENDBRANCH   4   9
BRANCH   1  25
ATOM     22  C   UNL     1       5.096  -6.278  23.685  0.00  0.00    +0.128 C 
ATOM     23  N   UNL     1       6.070  -5.275  24.009  0.00  0.00    -0.314 N 
ATOM     24  H   UNL     1       6.002  -4.775  24.883  0.00  0.00    +0.149 HD
ATOM     25  C   UNL     1       7.222  -5.122  23.271  0.00  0.00    +0.246 C 
ATOM     26  O   UNL     1       7.515  -5.861  22.336  0.00  0.00    -0.270 OA
ENDBRANCH   1  25
TORSDOF 2
ENDMDL
