MODEL 1
REMARK VINA RESULT:      -4.1      0.000      0.000
REMARK  Name = 
REMARK  15 active torsions:
REMARK  status: ('A' for Active; 'I' for Inactive)
REMARK    1  A    between atoms: C_1  and  C_2
REMARK    2  A    between atoms: C_2  and  C_3
REMARK    3  A    between atoms: C_3  and  C_4
REMARK    4  A    between atoms: C_4  and  C_5
REMARK    5  A    between atoms: C_5  and  C_6
REMARK    6  A    between atoms: C_6  and  C_7
REMARK    7  A    between atoms: C_7  and  C_8
REMARK    8  A    between atoms: C_8  and  C_9
REMARK    9  A    between atoms: C_9  and  C_10
REMARK   10  A    between atoms: C_10  and  C_11
REMARK   11  A    between atoms: C_11  and  C_12
REMARK   12  A    between atoms: C_12  and  C_13
REMARK   13  A    between atoms: C_13  and  C_14
REMARK   14  A    between atoms: C_14  and  C_15
REMARK   15  A    between atoms: C_15  and  C_16
REMARK                            x       y       z     vdW  Elec       q    Type
REMARK                         _______ _______ _______ _____ _____    ______ ____
ROOT
ATOM      1  C   UNL     1       9.084  -1.370  24.783  0.00  0.00    -0.000 C 
ENDROOT
BRANCH   1   2
ATOM      2  C   UNL     1       9.738  -0.060  25.212  0.00  0.00    -0.000 C 
BRANCH   2   3
ATOM      3  C   UNL     1      10.780   0.386  24.191  0.00  0.00    -0.000 C 
BRANCH   3   4
ATOM      4  C   UNL     1      10.849   1.907  24.116  0.00  0.00    -0.000 C 
BRANCH   4   5
ATOM      5  C   UNL     1      10.068   2.427  22.911  0.00  0.00    -0.000 C 
BRANCH   5   6
ATOM      6  C   UNL     1       9.946   1.353  21.834  0.00  0.00    -0.000 C 
BRANCH   6   7
ATOM      7  C   UNL     1       8.500   1.218  21.361  0.00  0.00    -0.000 C 
BRANCH   7   9
ATOM      8  C   UNL     1       6.736   0.926  23.125  0.00  0.00    +0.004 C 
ATOM      9  C   UNL     1       7.540   1.927  22.313  0.00  0.00    -0.003 C 
ENDBRANCH   7   9
ENDBRANCH   6   7
ENDBRANCH   5   6
ENDBRANCH   4   5
ENDBRANCH   3   4
ENDBRANCH   2   3
ENDBRANCH   1   2
BRANCH   1  10
ATOM     10  C   UNL     1       9.804  -1.966  23.578  0.00  0.00    +0.000 C 
BRANCH  10  11
ATOM     11  C   UNL     1       8.825  -2.227  22.437  0.00  0.00    +0.000 C 
BRANCH  11  12
ATOM     12  C   UNL     1       7.500  -2.765  22.970  0.00  0.00    +0.000 C 
BRANCH  12  13
ATOM     13  C   UNL     1       7.331  -4.242  22.624  0.00  0.00    +0.000 C 
BRANCH  13  14
ATOM     14  C   UNL     1       7.912  -5.127  23.722  0.00  0.00    +0.007 C 
BRANCH  14  15
ATOM     15  C   UNL     1       7.303  -4.797  25.078  0.00  0.00    +0.071 C 
BRANCH  15  16
ATOM     16  C   UNL     1       8.216  -5.166  26.221  0.00  0.00    +0.223 C 
ATOM     17  O   UNL     1       9.135  -4.469  26.637  0.00  0.00    -0.301 OA
ENDBRANCH  15  16
ENDBRANCH  14  15
ENDBRANCH  13  14
ENDBRANCH  12  13
ENDBRANCH  11  12
ENDBRANCH  10  11
ENDBRANCH   1  10
TORSDOF 14
ENDMDL
MODEL 2
REMARK VINA RESULT:      -4.1      2.220      2.877
REMARK  Name = 
REMARK  15 active torsions:
REMARK  status: ('A' for Active; 'I' for Inactive)
REMARK    1  A    between atoms: C_1  and  C_2
REMARK    2  A    between atoms: C_2  and  C_3
REMARK    3  A    between atoms: C_3  and  C_4
REMARK    4  A    between atoms: C_4  and  C_5
REMARK    5  A    between atoms: C_5  and  C_6
REMARK    6  A    between atoms: C_6  and  C_7
REMARK    7  A    between atoms: C_7  and  C_8
REMARK    8  A    between atoms: C_8  and  C_9
REMARK    9  A    between atoms: C_9  and  C_10
REMARK   10  A    between atoms: C_10  and  C_11
REMARK   11  A    between atoms: C_11  and  C_12
REMARK   12  A    between atoms: C_12  and  C_13
REMARK   13  A    between atoms: C_13  and  C_14
REMARK   14  A    between atoms: C_14  and  C_15
REMARK   15  A    between atoms: C_15  and  C_16
REMARK                            x       y       z     vdW  Elec       q    Type
REMARK                         _______ _______ _______ _____ _____    ______ ____
ROOT
ATOM      1  C   UNL     1       8.692  -0.154  25.415  0.00  0.00    -0.000 C 
ENDROOT
BRANCH   1   2
ATOM      2  C   UNL     1       9.706  -1.083  24.754  0.00  0.00    -0.000 C 
BRANCH   2   3
ATOM      3  C   UNL     1      10.474  -0.355  23.656  0.00  0.00    -0.000 C 
BRANCH   3   4
ATOM      4  C   UNL     1      10.205  -0.989  22.295  0.00  0.00    -0.000 C 
BRANCH   4   5
ATOM      5  C   UNL     1       9.405  -0.043  21.405  0.00  0.00    -0.000 C 
BRANCH   5   6
ATOM      6  C   UNL     1       9.621   1.411  21.816  0.00  0.00    -0.000 C 
BRANCH   6   7
ATOM      7  C   UNL     1       8.297   2.171  21.844  0.00  0.00    -0.000 C 
BRANCH   7   9
ATOM      8  C   UNL     1       9.509   3.207  23.785  0.00  0.00    +0.004 C 
ATOM      9  C   UNL     1       8.159   2.994  23.123  0.00  0.00    -0.003 C 
ENDBRANCH   7   9
ENDBRANCH   6   7
ENDBRANCH   5   6
ENDBRANCH   4   5
ENDBRANCH   3   4
ENDBRANCH   2   3
ENDBRANCH   1   2
BRANCH   1  10
ATOM     10  C   UNL     1       7.342  -0.237  24.710  0.00  0.00    +0.000 C 
BRANCH  10  11
ATOM     11  C   UNL     1       6.979  -1.687  24.404  0.00  0.00    +0.000 C 
BRANCH  11  12
ATOM     12  C   UNL     1       6.410  -1.818  22.994  0.00  0.00    +0.000 C 
BRANCH  12  13
ATOM     13  C   UNL     1       7.124  -2.921  22.217  0.00  0.00    +0.000 C 
BRANCH  13  14
ATOM     14  C   UNL     1       7.688  -3.976  23.165  0.00  0.00    +0.007 C 
BRANCH  14  15
ATOM     15  C   UNL     1       7.030  -5.331  22.939  0.00  0.00    +0.071 C 
BRANCH  15  16
ATOM     16  C   UNL     1       6.947  -5.691  21.477  0.00  0.00    +0.223 C 
ATOM     17  O   UNL     1       5.916  -5.697  20.813  0.00  0.00    -0.301 OA
ENDBRANCH  15  16
ENDBRANCH  14  15
ENDBRANCH  13  14
ENDBRANCH  12  13
ENDBRANCH  11  12
ENDBRANCH  10  11
ENDBRANCH   1  10
TORSDOF 14
ENDMDL
MODEL 3
REMARK VINA RESULT:      -4.1      1.072      2.742
REMARK  Name = 
REMARK  15 active torsions:
REMARK  status: ('A' for Active; 'I' for Inactive)
REMARK    1  A    between atoms: C_1  and  C_2
REMARK    2  A    between atoms: C_2  and  C_3
REMARK    3  A    between atoms: C_3  and  C_4
REMARK    4  A    between atoms: C_4  and  C_5
REMARK    5  A    between atoms: C_5  and  C_6
REMARK    6  A    between atoms: C_6  and  C_7
REMARK    7  A    between atoms: C_7  and  C_8
REMARK    8  A    between atoms: C_8  and  C_9
REMARK    9  A    between atoms: C_9  and  C_10
REMARK   10  A    between atoms: C_10  and  C_11
REMARK   11  A    between atoms: C_11  and  C_12
REMARK   12  A    between atoms: C_12  and  C_13
REMARK   13  A    between atoms: C_13  and  C_14
REMARK   14  A    between atoms: C_14  and  C_15
REMARK   15  A    between atoms: C_15  and  C_16
REMARK                            x       y       z     vdW  Elec       q    Type
REMARK                         _______ _______ _______ _____ _____    ______ ____
ROOT
ATOM      1  C   UNL     1       7.559  -1.870  22.630  0.00  0.00    -0.000 C 
ENDROOT
BRANCH   1   2
ATOM      2  C   UNL     1       9.036  -2.055  22.296  0.00  0.00    -0.000 C 
BRANCH   2   3
ATOM      3  C   UNL     1       9.902  -1.849  23.535  0.00  0.00    -0.000 C 
BRANCH   3   4
ATOM      4  C   UNL     1       9.111  -1.157  24.640  0.00  0.00    -0.000 C 
BRANCH   4   5
ATOM      5  C   UNL     1       9.906   0.004  25.231  0.00  0.00    -0.000 C 
BRANCH   5   6
ATOM      6  C   UNL     1      10.843   0.611  24.191  0.00  0.00    -0.000 C 
BRANCH   6   7
ATOM      7  C   UNL     1      10.219   1.850  23.554  0.00  0.00    -0.000 C 
BRANCH   7   9
ATOM      8  C   UNL     1       8.535   1.639  21.702  0.00  0.00    +0.004 C 
ATOM      9  C   UNL     1      10.013   1.655  22.054  0.00  0.00    -0.003 C 
ENDBRANCH   7   9
ENDBRANCH   6   7
ENDBRANCH   5   6
ENDBRANCH   4   5
ENDBRANCH   3   4
ENDBRANCH   2   3
ENDBRANCH   1   2
BRANCH   1  10
ATOM     10  C   UNL     1       6.737  -3.051  22.122  0.00  0.00    +0.000 C 
BRANCH  10  11
ATOM     11  C   UNL     1       7.252  -4.362  22.709  0.00  0.00    +0.000 C 
BRANCH  11  12
ATOM     12  C   UNL     1       6.208  -4.993  23.626  0.00  0.00    +0.000 C 
BRANCH  12  13
ATOM     13  C   UNL     1       6.275  -4.392  25.027  0.00  0.00    +0.000 C 
BRANCH  13  14
ATOM     14  C   UNL     1       7.152  -5.243  25.942  0.00  0.00    +0.007 C 
BRANCH  14  15
ATOM     15  C   UNL     1       8.402  -4.484  26.370  0.00  0.00    +0.071 C 
BRANCH  15  16
ATOM     16  C   UNL     1       9.627  -4.921  25.606  0.00  0.00    +0.223 C 
ATOM     17  O   UNL     1       9.623  -5.710  24.667  0.00  0.00    -0.301 OA
ENDBRANCH  15  16
ENDBRANCH  14  15
ENDBRANCH  13  14
ENDBRANCH  12  13
ENDBRANCH  11  12
ENDBRANCH  10  11
ENDBRANCH   1  10
TORSDOF 14
ENDMDL
MODEL 4
REMARK VINA RESULT:      -4.1      1.934      5.604
REMARK  Name = 
REMARK  15 active torsions:
REMARK  status: ('A' for Active; 'I' for Inactive)
REMARK    1  A    between atoms: C_1  and  C_2
REMARK    2  A    between atoms: C_2  and  C_3
REMARK    3  A    between atoms: C_3  and  C_4
REMARK    4  A    between atoms: C_4  and  C_5
REMARK    5  A    between atoms: C_5  and  C_6
REMARK    6  A    between atoms: C_6  and  C_7
REMARK    7  A    between atoms: C_7  and  C_8
REMARK    8  A    between atoms: C_8  and  C_9
REMARK    9  A    between atoms: C_9  and  C_10
REMARK   10  A    between atoms: C_10  and  C_11
REMARK   11  A    between atoms: C_11  and  C_12
REMARK   12  A    between atoms: C_12  and  C_13
REMARK   13  A    between atoms: C_13  and  C_14
REMARK   14  A    between atoms: C_14  and  C_15
REMARK   15  A    between atoms: C_15  and  C_16
REMARK                            x       y       z     vdW  Elec       q    Type
REMARK                         _______ _______ _______ _____ _____    ______ ____
ROOT
ATOM      1  C   UNL     1       9.804  -0.066  25.153  0.00  0.00    -0.000 C 
ENDROOT
BRANCH   1   2
ATOM      2  C   UNL     1       9.429  -1.460  24.662  0.00  0.00    -0.000 C 
BRANCH   2   3
ATOM      3  C   UNL     1       9.973  -1.707  23.259  0.00  0.00    -0.000 C 
BRANCH   3   4
ATOM      4  C   UNL     1       8.849  -2.087  22.301  0.00  0.00    -0.000 C 
BRANCH   4   5
ATOM      5  C   UNL     1       7.703  -2.762  23.050  0.00  0.00    -0.000 C 
BRANCH   5   6
ATOM      6  C   UNL     1       7.318  -4.081  22.385  0.00  0.00    -0.000 C 
BRANCH   6   7
ATOM      7  C   UNL     1       7.669  -5.266  23.283  0.00  0.00    -0.000 C 
BRANCH   7   9
ATOM      8  C   UNL     1       9.267  -5.326  25.220  0.00  0.00    +0.004 C 
ATOM      9  C   UNL     1       7.928  -4.813  24.718  0.00  0.00    -0.003 C 
ENDBRANCH   7   9
ENDBRANCH   6   7
ENDBRANCH   5   6
ENDBRANCH   4   5
ENDBRANCH   3   4
ENDBRANCH   2   3
ENDBRANCH   1   2
BRANCH   1  10
ATOM     10  C   UNL     1      10.801   0.592  24.204  0.00  0.00    +0.000 C 
BRANCH  10  11
ATOM     11  C   UNL     1      10.253   1.913  23.672  0.00  0.00    +0.000 C 
BRANCH  11  12
ATOM     12  C   UNL     1      10.154   1.885  22.149  0.00  0.00    +0.000 C 
BRANCH  12  13
ATOM     13  C   UNL     1       8.737   1.537  21.700  0.00  0.00    +0.000 C 
BRANCH  13  14
ATOM     14  C   UNL     1       7.716   1.949  22.756  0.00  0.00    +0.007 C 
BRANCH  14  15
ATOM     15  C   UNL     1       6.757   0.807  23.071  0.00  0.00    +0.071 C 
BRANCH  15  16
ATOM     16  C   UNL     1       6.089   0.975  24.413  0.00  0.00    +0.223 C 
ATOM     17  O   UNL     1       4.969   1.445  24.585  0.00  0.00    -0.301 OA
ENDBRANCH  15  16
ENDBRANCH  14  15
ENDBRANCH  13  14
ENDBRANCH  12  13
ENDBRANCH  11  12
ENDBRANCH  10  11
ENDBRANCH   1  10
TORSDOF 14
ENDMDL
MODEL 5
REMARK VINA RESULT:      -4.0      1.372      3.279
REMARK  Name = 
REMARK  15 active torsions:
REMARK  status: ('A' for Active; 'I' for Inactive)
REMARK    1  A    between atoms: C_1  and  C_2
REMARK    2  A    between atoms: C_2  and  C_3
REMARK    3  A    between atoms: C_3  and  C_4
REMARK    4  A    between atoms: C_4  and  C_5
REMARK    5  A    between atoms: C_5  and  C_6
REMARK    6  A    between atoms: C_6  and  C_7
REMARK    7  A    between atoms: C_7  and  C_8
REMARK    8  A    between atoms: C_8  and  C_9
REMARK    9  A    between atoms: C_9  and  C_10
REMARK   10  A    between atoms: C_10  and  C_11
REMARK   11  A    between atoms: C_11  and  C_12
REMARK   12  A    between atoms: C_12  and  C_13
REMARK   13  A    between atoms: C_13  and  C_14
REMARK   14  A    between atoms: C_14  and  C_15
REMARK   15  A    between atoms: C_15  and  C_16
REMARK                            x       y       z     vdW  Elec       q    Type
REMARK                         _______ _______ _______ _____ _____    ______ ____
ROOT
ATOM      1  C   UNL     1      10.399   2.031  24.144  0.00  0.00    -0.000 C 
ENDROOT
BRANCH   1   2
ATOM      2  C   UNL     1      10.317   2.377  22.661  0.00  0.00    -0.000 C 
BRANCH   2   3
ATOM      3  C   UNL     1       9.861   1.170  21.847  0.00  0.00    -0.000 C 
BRANCH   3   4
ATOM      4  C   UNL     1       8.444   1.375  21.322  0.00  0.00    -0.000 C 
BRANCH   4   5
ATOM      5  C   UNL     1       7.413   1.034  22.394  0.00  0.00    -0.000 C 
BRANCH   5   6
ATOM      6  C   UNL     1       6.453   2.198  22.619  0.00  0.00    -0.000 C 
BRANCH   6   7
ATOM      7  C   UNL     1       6.715   2.867  23.967  0.00  0.00    -0.000 C 
BRANCH   7   9
ATOM      8  C   UNL     1       7.176   4.740  22.357  0.00  0.00    +0.004 C 
ATOM      9  C   UNL     1       7.340   4.247  23.785  0.00  0.00    -0.003 C 
ENDBRANCH   7   9
ENDBRANCH   6   7
ENDBRANCH   5   6
ENDBRANCH   4   5
ENDBRANCH   3   4
ENDBRANCH   2   3
ENDBRANCH   1   2
BRANCH   1  10
ATOM     10  C   UNL     1      10.697   0.548  24.340  0.00  0.00    +0.000 C 
BRANCH  10  11
ATOM     11  C   UNL     1       9.805  -0.045  25.427  0.00  0.00    +0.000 C 
BRANCH  11  12
ATOM     12  C   UNL     1       9.102  -1.303  24.926  0.00  0.00    +0.000 C 
BRANCH  12  13
ATOM     13  C   UNL     1       9.824  -1.886  23.713  0.00  0.00    +0.000 C 
BRANCH  13  14
ATOM     14  C   UNL     1       8.824  -2.386  22.674  0.00  0.00    +0.007 C 
BRANCH  14  15
ATOM     15  C   UNL     1       7.628  -3.059  23.337  0.00  0.00    +0.071 C 
BRANCH  15  16
ATOM     16  C   UNL     1       7.719  -4.564  23.288  0.00  0.00    +0.223 C 
ATOM     17  O   UNL     1       8.546  -5.236  23.894  0.00  0.00    -0.301 OA
ENDBRANCH  15  16
ENDBRANCH  14  15
ENDBRANCH  13  14
ENDBRANCH  12  13
ENDBRANCH  11  12
ENDBRANCH  10  11
ENDBRANCH   1  10
TORSDOF 14
ENDMDL
MODEL 6
REMARK VINA RESULT:      -3.9      2.176      3.261
REMARK  Name = 
REMARK  15 active torsions:
REMARK  status: ('A' for Active; 'I' for Inactive)
REMARK    1  A    between atoms: C_1  and  C_2
REMARK    2  A    between atoms: C_2  and  C_3
REMARK    3  A    between atoms: C_3  and  C_4
REMARK    4  A    between atoms: C_4  and  C_5
REMARK    5  A    between atoms: C_5  and  C_6
REMARK    6  A    between atoms: C_6  and  C_7
REMARK    7  A    between atoms: C_7  and  C_8
REMARK    8  A    between atoms: C_8  and  C_9
REMARK    9  A    between atoms: C_9  and  C_10
REMARK   10  A    between atoms: C_10  and  C_11
REMARK   11  A    between atoms: C_11  and  C_12
REMARK   12  A    between atoms: C_12  and  C_13
REMARK   13  A    between atoms: C_13  and  C_14
REMARK   14  A    between atoms: C_14  and  C_15
REMARK   15  A    between atoms: C_15  and  C_16
REMARK                            x       y       z     vdW  Elec       q    Type
REMARK                         _______ _______ _______ _____ _____    ______ ____
ROOT
ATOM      1  C   UNL     1      10.080  -1.240  22.239  0.00  0.00    -0.000 C 
ENDROOT
BRANCH   1   2
ATOM      2  C   UNL     1       9.386  -0.138  21.445  0.00  0.00    -0.000 C 
BRANCH   2   3
ATOM      3  C   UNL     1       9.867   1.238  21.893  0.00  0.00    -0.000 C 
BRANCH   3   4
ATOM      4  C   UNL     1       8.691   2.196  22.060  0.00  0.00    -0.000 C 
BRANCH   4   5
ATOM      5  C   UNL     1       8.826   3.001  23.349  0.00  0.00    -0.000 C 
BRANCH   5   6
ATOM      6  C   UNL     1       9.135   2.090  24.534  0.00  0.00    -0.000 C 
BRANCH   6   7
ATOM      7  C   UNL     1       7.850   1.537  25.145  0.00  0.00    -0.000 C 
BRANCH   7   9
ATOM      8  C   UNL     1       9.543  -0.235  25.696  0.00  0.00    +0.004 C 
ATOM      9  C   UNL     1       8.074   0.149  25.741  0.00  0.00    -0.003 C 
ENDBRANCH   7   9
ENDBRANCH   6   7
ENDBRANCH   5   6
ENDBRANCH   4   5
ENDBRANCH   3   4
ENDBRANCH   2   3
ENDBRANCH   1   2
BRANCH   1  10
ATOM     10  C   UNL     1       9.068  -2.262  22.747  0.00  0.00    +0.000 C 
BRANCH  10  11
ATOM     11  C   UNL     1       7.641  -1.771  22.519  0.00  0.00    +0.000 C 
BRANCH  11  12
ATOM     12  C   UNL     1       6.676  -2.434  23.498  0.00  0.00    +0.000 C 
BRANCH  12  13
ATOM     13  C   UNL     1       7.304  -3.672  24.131  0.00  0.00    +0.000 C 
BRANCH  13  14
ATOM     14  C   UNL     1       6.596  -4.941  23.663  0.00  0.00    +0.007 C 
BRANCH  14  15
ATOM     15  C   UNL     1       7.388  -5.643  22.567  0.00  0.00    +0.071 C 
BRANCH  15  16
ATOM     16  C   UNL     1       6.657  -5.651  21.247  0.00  0.00    +0.223 C 
ATOM     17  O   UNL     1       5.837  -4.810  20.896  0.00  0.00    -0.301 OA
ENDBRANCH  15  16
ENDBRANCH  14  15
ENDBRANCH  13  14
ENDBRANCH  12  13
ENDBRANCH  11  12
ENDBRANCH  10  11
ENDBRANCH   1  10
TORSDOF 14
ENDMDL
MODEL 7
REMARK VINA RESULT:      -3.9      2.035      2.814
REMARK  Name = 
REMARK  15 active torsions:
REMARK  status: ('A' for Active; 'I' for Inactive)
REMARK    1  A    between atoms: C_1  and  C_2
REMARK    2  A    between atoms: C_2  and  C_3
REMARK    3  A    between atoms: C_3  and  C_4
REMARK    4  A    between atoms: C_4  and  C_5
REMARK    5  A    between atoms: C_5  and  C_6
REMARK    6  A    between atoms: C_6  and  C_7
REMARK    7  A    between atoms: C_7  and  C_8
REMARK    8  A    between atoms: C_8  and  C_9
REMARK    9  A    between atoms: C_9  and  C_10
REMARK   10  A    between atoms: C_10  and  C_11
REMARK   11  A    between atoms: C_11  and  C_12
REMARK   12  A    between atoms: C_12  and  C_13
REMARK   13  A    between atoms: C_13  and  C_14
REMARK   14  A    between atoms: C_14  and  C_15
REMARK   15  A    between atoms: C_15  and  C_16
REMARK                            x       y       z     vdW  Elec       q    Type
REMARK                         _______ _______ _______ _____ _____    ______ ____
ROOT
ATOM      1  C   UNL     1       9.887   0.051  25.263  0.00  0.00    -0.000 C 
ENDROOT
BRANCH   1   2
ATOM      2  C   UNL     1      10.864   0.632  24.247  0.00  0.00    -0.000 C 
BRANCH   2   3
ATOM      3  C   UNL     1      10.341   1.950  23.684  0.00  0.00    -0.000 C 
BRANCH   3   4
ATOM      4  C   UNL     1      10.330   1.922  22.159  0.00  0.00    -0.000 C 
BRANCH   4   5
ATOM      5  C   UNL     1       8.960   1.501  21.635  0.00  0.00    -0.000 C 
BRANCH   5   6
ATOM      6  C   UNL     1       7.841   2.114  22.473  0.00  0.00    -0.000 C 
BRANCH   6   7
ATOM      7  C   UNL     1       6.718   1.106  22.702  0.00  0.00    -0.000 C 
BRANCH   7   9
ATOM      8  C   UNL     1       6.806   2.143  24.988  0.00  0.00    +0.004 C 
ATOM      9  C   UNL     1       6.458   0.897  24.192  0.00  0.00    -0.003 C 
ENDBRANCH   7   9
ENDBRANCH   6   7
ENDBRANCH   5   6
ENDBRANCH   4   5
ENDBRANCH   3   4
ENDBRANCH   2   3
ENDBRANCH   1   2
BRANCH   1  10
ATOM     10  C   UNL     1       9.379  -1.313  24.808  0.00  0.00    +0.000 C 
BRANCH  10  11
ATOM     11  C   UNL     1       9.913  -1.655  23.421  0.00  0.00    +0.000 C 
BRANCH  11  12
ATOM     12  C   UNL     1       8.783  -2.107  22.500  0.00  0.00    +0.000 C 
BRANCH  12  13
ATOM     13  C   UNL     1       7.779  -2.975  23.252  0.00  0.00    +0.000 C 
BRANCH  13  14
ATOM     14  C   UNL     1       6.348  -2.593  22.885  0.00  0.00    +0.007 C 
BRANCH  14  15
ATOM     15  C   UNL     1       5.836  -3.427  21.717  0.00  0.00    +0.071 C 
BRANCH  15  16
ATOM     16  C   UNL     1       5.658  -4.879  22.085  0.00  0.00    +0.223 C 
ATOM     17  O   UNL     1       4.591  -5.397  22.399  0.00  0.00    -0.301 OA
ENDBRANCH  15  16
ENDBRANCH  14  15
ENDBRANCH  13  14
ENDBRANCH  12  13
ENDBRANCH  11  12
ENDBRANCH  10  11
ENDBRANCH   1  10
TORSDOF 14
ENDMDL
MODEL 8
REMARK VINA RESULT:      -3.9      1.398      2.413
REMARK  Name = 
REMARK  15 active torsions:
REMARK  status: ('A' for Active; 'I' for Inactive)
REMARK    1  A    between atoms: C_1  and  C_2
REMARK    2  A    between atoms: C_2  and  C_3
REMARK    3  A    between atoms: C_3  and  C_4
REMARK    4  A    between atoms: C_4  and  C_5
REMARK    5  A    between atoms: C_5  and  C_6
REMARK    6  A    between atoms: C_6  and  C_7
REMARK    7  A    between atoms: C_7  and  C_8
REMARK    8  A    between atoms: C_8  and  C_9
REMARK    9  A    between atoms: C_9  and  C_10
REMARK   10  A    between atoms: C_10  and  C_11
REMARK   11  A    between atoms: C_11  and  C_12
REMARK   12  A    between atoms: C_12  and  C_13
REMARK   13  A    between atoms: C_13  and  C_14
REMARK   14  A    between atoms: C_14  and  C_15
REMARK   15  A    between atoms: C_15  and  C_16
REMARK                            x       y       z     vdW  Elec       q    Type
REMARK                         _______ _______ _______ _____ _____    ______ ____
ROOT
ATOM      1  C   UNL     1       6.613  -1.184  23.496  0.00  0.00    -0.000 C 
ENDROOT
BRANCH   1   2
ATOM      2  C   UNL     1       7.425  -1.501  24.748  0.00  0.00    -0.000 C 
BRANCH   2   3
ATOM      3  C   UNL     1       8.801  -0.846  24.684  0.00  0.00    -0.000 C 
BRANCH   3   4
ATOM      4  C   UNL     1       9.838  -1.818  24.130  0.00  0.00    -0.000 C 
BRANCH   4   5
ATOM      5  C   UNL     1      10.212  -1.452  22.696  0.00  0.00    -0.000 C 
BRANCH   5   6
ATOM      6  C   UNL     1      10.121   0.055  22.474  0.00  0.00    -0.000 C 
BRANCH   6   7
ATOM      7  C   UNL     1       9.198   0.377  21.301  0.00  0.00    -0.000 C 
BRANCH   7   9
ATOM      8  C   UNL     1       8.893   2.382  22.783  0.00  0.00    +0.004 C 
ATOM      9  C   UNL     1       8.355   1.617  21.586  0.00  0.00    -0.003 C 
ENDBRANCH   7   9
ENDBRANCH   6   7
ENDBRANCH   5   6
ENDBRANCH   4   5
ENDBRANCH   3   4
ENDBRANCH   2   3
ENDBRANCH   1   2
BRANCH   1  10
ATOM     10  C   UNL     1       5.993  -2.451  22.916  0.00  0.00    +0.000 C 
BRANCH  10  11
ATOM     11  C   UNL     1       7.045  -3.288  22.194  0.00  0.00    +0.000 C 
BRANCH  11  12
ATOM     12  C   UNL     1       6.832  -4.775  22.461  0.00  0.00    +0.000 C 
BRANCH  12  13
ATOM     13  C   UNL     1       7.013  -5.096  23.942  0.00  0.00    +0.000 C 
BRANCH  13  14
ATOM     14  C   UNL     1       8.491  -5.091  24.323  0.00  0.00    +0.007 C 
BRANCH  14  15
ATOM     15  C   UNL     1       8.678  -5.325  25.817  0.00  0.00    +0.071 C 
BRANCH  15  16
ATOM     16  C   UNL     1       7.508  -4.822  26.625  0.00  0.00    +0.223 C 
ATOM     17  O   UNL     1       7.252  -5.164  27.775  0.00  0.00    -0.301 OA
ENDBRANCH  15  16
ENDBRANCH  14  15
ENDBRANCH  13  14
ENDBRANCH  12  13
ENDBRANCH  11  12
ENDBRANCH  10  11
ENDBRANCH   1  10
TORSDOF 14
ENDMDL
MODEL 9
REMARK VINA RESULT:      -3.9      1.626      3.077
REMARK  Name = 
REMARK  15 active torsions:
REMARK  status: ('A' for Active; 'I' for Inactive)
REMARK    1  A    between atoms: C_1  and  C_2
REMARK    2  A    between atoms: C_2  and  C_3
REMARK    3  A    between atoms: C_3  and  C_4
REMARK    4  A    between atoms: C_4  and  C_5
REMARK    5  A    between atoms: C_5  and  C_6
REMARK    6  A    between atoms: C_6  and  C_7
REMARK    7  A    between atoms: C_7  and  C_8
REMARK    8  A    between atoms: C_8  and  C_9
REMARK    9  A    between atoms: C_9  and  C_10
REMARK   10  A    between atoms: C_10  and  C_11
REMARK   11  A    between atoms: C_11  and  C_12
REMARK   12  A    between atoms: C_12  and  C_13
REMARK   13  A    between atoms: C_13  and  C_14
REMARK   14  A    between atoms: C_14  and  C_15
REMARK   15  A    between atoms: C_15  and  C_16
REMARK                            x       y       z     vdW  Elec       q    Type
REMARK                         _______ _______ _______ _____ _____    ______ ____
ROOT
ATOM      1  C   UNL     1       8.625   1.005  25.135  0.00  0.00    -0.000 C 
ENDROOT
BRANCH   1   2
ATOM      2  C   UNL     1       9.463   1.978  24.312  0.00  0.00    -0.000 C 
BRANCH   2   3
ATOM      3  C   UNL     1       8.966   2.039  22.872  0.00  0.00    -0.000 C 
BRANCH   3   4
ATOM      4  C   UNL     1       9.925   1.311  21.936  0.00  0.00    -0.000 C 
BRANCH   4   5
ATOM      5  C   UNL     1       9.309   0.009  21.432  0.00  0.00    -0.000 C 
BRANCH   5   6
ATOM      6  C   UNL     1       9.996  -1.200  22.062  0.00  0.00    -0.000 C 
BRANCH   6   7
ATOM      7  C   UNL     1       8.980  -2.098  22.764  0.00  0.00    -0.000 C 
BRANCH   7   9
ATOM      8  C   UNL     1       6.522  -2.615  22.838  0.00  0.00    +0.004 C 
ATOM      9  C   UNL     1       7.568  -1.529  22.650  0.00  0.00    -0.003 C 
ENDBRANCH   7   9
ENDBRANCH   6   7
ENDBRANCH   5   6
ENDBRANCH   4   5
ENDBRANCH   3   4
ENDBRANCH   2   3
ENDBRANCH   1   2
BRANCH   1  10
ATOM     10  C   UNL     1       9.488  -0.129  25.678  0.00  0.00    +0.000 C 
BRANCH  10  11
ATOM     11  C   UNL     1       8.762  -0.877  26.792  0.00  0.00    +0.000 C 
BRANCH  11  12
ATOM     12  C   UNL     1       7.412  -1.398  26.305  0.00  0.00    +0.000 C 
BRANCH  12  13
ATOM     13  C   UNL     1       7.263  -2.888  26.600  0.00  0.00    +0.000 C 
BRANCH  13  14
ATOM     14  C   UNL     1       8.464  -3.669  26.076  0.00  0.00    +0.007 C 
BRANCH  14  15
ATOM     15  C   UNL     1       8.066  -5.077  25.652  0.00  0.00    +0.071 C 
BRANCH  15  16
ATOM     16  C   UNL     1       6.605  -5.359  25.902  0.00  0.00    +0.223 C 
ATOM     17  O   UNL     1       6.176  -6.301  26.560  0.00  0.00    -0.301 OA
ENDBRANCH  15  16
ENDBRANCH  14  15
ENDBRANCH  13  14
ENDBRANCH  12  13
ENDBRANCH  11  12
ENDBRANCH  10  11
ENDBRANCH   1  10
TORSDOF 14
ENDMDL
