MODEL 1
REMARK VINA RESULT:      -7.6      0.000      0.000
REMARK  Name = 
REMARK  5 active torsions:
REMARK  status: ('A' for Active; 'I' for Inactive)
REMARK    1  A    between atoms: C_1  and  C_2
REMARK    2  A    between atoms: C_2  and  N_3
REMARK    3  A    between atoms: C_5  and  C_6
REMARK    4  A    between atoms: C_6  and  O_7
REMARK    5  A    between atoms: C_15  and  N_18
REMARK                            x       y       z     vdW  Elec       q    Type
REMARK                         _______ _______ _______ _____ _____    ______ ____
ROOT
ATOM      1  N   UNL     1       7.021  -4.481  23.461  0.00  0.00    -0.331 N 
ATOM      2  C   UNL     1       7.743  -3.418  24.057  0.00  0.00    +0.147 A 
ATOM      3  C   UNL     1       7.705  -3.284  25.451  0.00  0.00    +0.068 A 
ATOM      4  C   UNL     1       8.388  -2.247  26.069  0.00  0.00    +0.057 A 
ATOM      5  C   UNL     1       9.081  -1.352  25.275  0.00  0.00    +0.164 A 
ATOM      6  C   UNL     1       9.097  -1.493  23.879  0.00  0.00    +0.159 A 
ATOM      7  F   UNL     1       9.768  -0.375  25.887  0.00  0.00    -0.202 F 
ATOM      8  C   UNL     1       6.936  -4.242  26.269  0.00  0.00    +0.205 A 
ATOM      9  O   UNL     1       6.893  -4.146  27.494  0.00  0.00    -0.286 OA
ATOM     10  C   UNL     1       6.208  -5.331  25.587  0.00  0.00    +0.122 A 
ATOM     11  N   UNL     1       8.447  -2.538  23.294  0.00  0.00    -0.211 NA
ATOM     12  C   UNL     1       6.307  -5.370  24.251  0.00  0.00    +0.106 A 
ENDROOT
BRANCH   6  13
ATOM     13  N   UNL     1       9.775  -0.601  23.076  0.00  0.00    -0.310 N 
ATOM     14  C   UNL     1      10.649   0.437  23.641  0.00  0.00    +0.121 C 
ATOM     15  C   UNL     1      10.159   1.851  23.242  0.00  0.00    +0.100 C 
ATOM     16  N   UNL     1       9.924   2.019  21.797  0.00  0.00    -0.313 NA
ATOM     17  H   UNL     1       9.517   2.937  21.630  0.00  0.00    +0.122 HD
ATOM     18  C   UNL     1       8.982   0.981  21.335  0.00  0.00    +0.100 C 
ATOM     19  C   UNL     1       9.450  -0.453  21.657  0.00  0.00    +0.121 C 
ENDBRANCH   6  13
BRANCH   1  21
ATOM     20  C   UNL     1       6.636  -5.993  21.558  0.00  0.00    +0.027 C 
ATOM     21  C   UNL     1       7.130  -4.625  22.004  0.00  0.00    +0.120 C 
ENDBRANCH   1  21
BRANCH  10  22
ATOM     22  C   UNL     1       5.399  -6.344  26.295  0.00  0.00    +0.342 C 
ATOM     23  O   UNL     1       4.361  -6.806  25.846  0.00  0.00    -0.245 OA
BRANCH  22  24
ATOM     24  O   UNL     1       5.899  -6.725  27.490  0.00  0.00    -0.477 OA
ATOM     25  H   UNL     1       5.399  -7.461  27.924  0.00  0.00    +0.295 HD
ENDBRANCH  22  24
ENDBRANCH  10  22
TORSDOF 4
ENDMDL
MODEL 2
REMARK VINA RESULT:      -7.5      2.492      3.810
REMARK  Name = 
REMARK  5 active torsions:
REMARK  status: ('A' for Active; 'I' for Inactive)
REMARK    1  A    between atoms: C_1  and  C_2
REMARK    2  A    between atoms: C_2  and  N_3
REMARK    3  A    between atoms: C_5  and  C_6
REMARK    4  A    between atoms: C_6  and  O_7
REMARK    5  A    between atoms: C_15  and  N_18
REMARK                            x       y       z     vdW  Elec       q    Type
REMARK                         _______ _______ _______ _____ _____    ______ ____
ROOT
ATOM      1  N   UNL     1       8.297  -1.331  26.169  0.00  0.00    -0.331 N 
ATOM      2  C   UNL     1       8.573  -1.107  24.798  0.00  0.00    +0.147 A 
ATOM      3  C   UNL     1       8.743  -2.218  23.962  0.00  0.00    +0.068 A 
ATOM      4  C   UNL     1       9.029  -2.038  22.616  0.00  0.00    +0.057 A 
ATOM      5  C   UNL     1       9.158  -0.746  22.140  0.00  0.00    +0.164 A 
ATOM      6  C   UNL     1       8.998   0.354  22.995  0.00  0.00    +0.159 A 
ATOM      7  F   UNL     1       9.398  -0.584  20.829  0.00  0.00    -0.202 F 
ATOM      8  C   UNL     1       8.623  -3.584  24.507  0.00  0.00    +0.205 A 
ATOM      9  O   UNL     1       8.764  -4.573  23.790  0.00  0.00    -0.286 OA
ATOM     10  C   UNL     1       8.330  -3.750  25.944  0.00  0.00    +0.122 A 
ATOM     11  N   UNL     1       8.685   0.157  24.306  0.00  0.00    -0.211 NA
ATOM     12  C   UNL     1       8.187  -2.624  26.658  0.00  0.00    +0.106 A 
ENDROOT
BRANCH   6  13
ATOM     13  N   UNL     1       9.136   1.647  22.534  0.00  0.00    -0.310 N 
ATOM     14  C   UNL     1      10.250   2.505  22.963  0.00  0.00    +0.121 C 
ATOM     15  C   UNL     1       9.726   3.780  23.669  0.00  0.00    +0.100 C 
ATOM     16  N   UNL     1       8.697   4.509  22.906  0.00  0.00    -0.313 NA
ATOM     17  H   UNL     1       8.339   5.274  23.475  0.00  0.00    +0.122 HD
ATOM     18  C   UNL     1       7.588   3.588  22.584  0.00  0.00    +0.100 C 
ATOM     19  C   UNL     1       8.048   2.324  21.827  0.00  0.00    +0.121 C 
ENDBRANCH   6  13
BRANCH   1  21
ATOM     20  C   UNL     1       6.589   0.017  27.319  0.00  0.00    +0.027 C 
ATOM     21  C   UNL     1       8.069  -0.146  27.005  0.00  0.00    +0.120 C 
ENDBRANCH   1  21
BRANCH  10  22
ATOM     22  C   UNL     1       8.194  -5.064  26.606  0.00  0.00    +0.342 C 
ATOM     23  O   UNL     1       7.464  -5.258  27.566  0.00  0.00    -0.245 OA
BRANCH  22  24
ATOM     24  O   UNL     1       8.946  -6.045  26.064  0.00  0.00    -0.477 OA
ATOM     25  H   UNL     1       9.055  -6.841  26.641  0.00  0.00    +0.295 HD
ENDBRANCH  22  24
ENDBRANCH  10  22
TORSDOF 4
ENDMDL
MODEL 3
REMARK VINA RESULT:      -7.3      2.111      3.002
REMARK  Name = 
REMARK  5 active torsions:
REMARK  status: ('A' for Active; 'I' for Inactive)
REMARK    1  A    between atoms: C_1  and  C_2
REMARK    2  A    between atoms: C_2  and  N_3
REMARK    3  A    between atoms: C_5  and  C_6
REMARK    4  A    between atoms: C_6  and  O_7
REMARK    5  A    between atoms: C_15  and  N_18
REMARK                            x       y       z     vdW  Elec       q    Type
REMARK                         _______ _______ _______ _____ _____    ______ ____
ROOT
ATOM      1  N   UNL     1       6.700  -2.000  25.417  0.00  0.00    -0.331 N 
ATOM      2  C   UNL     1       7.822  -1.740  24.591  0.00  0.00    +0.147 A 
ATOM      3  C   UNL     1       8.760  -2.763  24.400  0.00  0.00    +0.068 A 
ATOM      4  C   UNL     1       9.879  -2.543  23.610  0.00  0.00    +0.057 A 
ATOM      5  C   UNL     1      10.044  -1.293  23.042  0.00  0.00    +0.164 A 
ATOM      6  C   UNL     1       9.102  -0.276  23.255  0.00  0.00    +0.159 A 
ATOM      7  F   UNL     1      11.111  -1.102  22.250  0.00  0.00    -0.202 F 
ATOM      8  C   UNL     1       8.566  -4.079  25.040  0.00  0.00    +0.205 A 
ATOM      9  O   UNL     1       9.374  -4.992  24.882  0.00  0.00    -0.286 OA
ATOM     10  C   UNL     1       7.374  -4.286  25.885  0.00  0.00    +0.122 A 
ATOM     11  N   UNL     1       7.994  -0.524  24.007  0.00  0.00    -0.211 NA
ATOM     12  C   UNL     1       6.538  -3.245  26.006  0.00  0.00    +0.106 A 
ENDROOT
BRANCH   6  13
ATOM     13  N   UNL     1       9.262   0.978  22.704  0.00  0.00    -0.310 N 
ATOM     14  C   UNL     1      10.125   1.991  23.327  0.00  0.00    +0.121 C 
ATOM     15  C   UNL     1       9.313   3.256  23.700  0.00  0.00    +0.100 C 
ATOM     16  N   UNL     1       8.499   3.793  22.596  0.00  0.00    -0.313 NA
ATOM     17  H   UNL     1       7.927   4.561  22.945  0.00  0.00    +0.122 HD
ATOM     18  C   UNL     1       7.614   2.728  22.082  0.00  0.00    +0.100 C 
ATOM     19  C   UNL     1       8.379   1.462  21.642  0.00  0.00    +0.121 C 
ENDBRANCH   6  13
BRANCH   1  21
ATOM     20  C   UNL     1       5.751  -0.319  26.943  0.00  0.00    +0.027 C 
ATOM     21  C   UNL     1       5.709  -0.925  25.548  0.00  0.00    +0.120 C 
ENDBRANCH   1  21
BRANCH  10  22
ATOM     22  C   UNL     1       7.075  -5.554  26.584  0.00  0.00    +0.342 C 
ATOM     23  O   UNL     1       6.085  -6.231  26.349  0.00  0.00    -0.245 OA
BRANCH  22  24
ATOM     24  O   UNL     1       7.988  -5.911  27.512  0.00  0.00    -0.477 OA
ATOM     25  H   UNL     1       8.674  -6.544  27.185  0.00  0.00    +0.295 HD
ENDBRANCH  22  24
ENDBRANCH  10  22
TORSDOF 4
ENDMDL
MODEL 4
REMARK VINA RESULT:      -7.3      3.839      7.276
REMARK  Name = 
REMARK  5 active torsions:
REMARK  status: ('A' for Active; 'I' for Inactive)
REMARK    1  A    between atoms: C_1  and  C_2
REMARK    2  A    between atoms: C_2  and  N_3
REMARK    3  A    between atoms: C_5  and  C_6
REMARK    4  A    between atoms: C_6  and  O_7
REMARK    5  A    between atoms: C_15  and  N_18
REMARK                            x       y       z     vdW  Elec       q    Type
REMARK                         _______ _______ _______ _____ _____    ______ ____
ROOT
ATOM      1  N   UNL     1       8.968  -0.476  25.303  0.00  0.00    -0.331 N 
ATOM      2  C   UNL     1       8.605  -1.603  24.525  0.00  0.00    +0.147 A 
ATOM      3  C   UNL     1       8.705  -1.509  23.131  0.00  0.00    +0.068 A 
ATOM      4  C   UNL     1       8.345  -2.587  22.334  0.00  0.00    +0.057 A 
ATOM      5  C   UNL     1       7.873  -3.731  22.952  0.00  0.00    +0.164 A 
ATOM      6  C   UNL     1       7.767  -3.801  24.349  0.00  0.00    +0.159 A 
ATOM      7  F   UNL     1       7.562  -4.779  22.174  0.00  0.00    -0.202 F 
ATOM      8  C   UNL     1       9.189  -0.266  22.501  0.00  0.00    +0.205 A 
ATOM      9  O   UNL     1       9.289  -0.164  21.280  0.00  0.00    -0.286 OA
ATOM     10  C   UNL     1       9.555   0.871  23.369  0.00  0.00    +0.122 A 
ATOM     11  N   UNL     1       8.157  -2.744  25.114  0.00  0.00    -0.211 NA
ATOM     12  C   UNL     1       9.422   0.681  24.689  0.00  0.00    +0.106 A 
ENDROOT
BRANCH   6  13
ATOM     13  N   UNL     1       7.287  -4.932  24.976  0.00  0.00    -0.310 N 
ATOM     14  C   UNL     1       5.931  -5.440  24.720  0.00  0.00    +0.121 C 
ATOM     15  C   UNL     1       5.096  -5.469  26.024  0.00  0.00    +0.100 C 
ATOM     16  N   UNL     1       5.764  -6.147  27.149  0.00  0.00    -0.313 NA
ATOM     17  H   UNL     1       5.196  -6.040  27.988  0.00  0.00    +0.122 HD
ATOM     18  C   UNL     1       7.083  -5.524  27.378  0.00  0.00    +0.100 C 
ATOM     19  C   UNL     1       7.980  -5.520  26.123  0.00  0.00    +0.121 C 
ENDBRANCH   6  13
BRANCH   1  21
ATOM     20  C   UNL     1       7.660   0.042  27.322  0.00  0.00    +0.027 C 
ATOM     21  C   UNL     1       8.906  -0.628  26.762  0.00  0.00    +0.120 C 
ENDBRANCH   1  21
BRANCH  10  22
ATOM     22  C   UNL     1      10.045   2.168  22.857  0.00  0.00    +0.342 C 
ATOM     23  O   UNL     1      10.811   2.888  23.479  0.00  0.00    -0.245 OA
BRANCH  22  24
ATOM     24  O   UNL     1       9.575   2.501  21.636  0.00  0.00    -0.477 OA
ATOM     25  H   UNL     1       9.029   3.326  21.621  0.00  0.00    +0.295 HD
ENDBRANCH  22  24
ENDBRANCH  10  22
TORSDOF 4
ENDMDL
MODEL 5
REMARK VINA RESULT:      -6.9      1.813      2.378
REMARK  Name = 
REMARK  5 active torsions:
REMARK  status: ('A' for Active; 'I' for Inactive)
REMARK    1  A    between atoms: C_1  and  C_2
REMARK    2  A    between atoms: C_2  and  N_3
REMARK    3  A    between atoms: C_5  and  C_6
REMARK    4  A    between atoms: C_6  and  O_7
REMARK    5  A    between atoms: C_15  and  N_18
REMARK                            x       y       z     vdW  Elec       q    Type
REMARK                         _______ _______ _______ _____ _____    ______ ____
ROOT
ATOM      1  N   UNL     1       4.720  -4.594  25.087  0.00  0.00    -0.331 N 
ATOM      2  C   UNL     1       6.014  -4.026  24.994  0.00  0.00    +0.147 A 
ATOM      3  C   UNL     1       6.974  -4.397  25.943  0.00  0.00    +0.068 A 
ATOM      4  C   UNL     1       8.249  -3.851  25.893  0.00  0.00    +0.057 A 
ATOM      5  C   UNL     1       8.528  -2.926  24.902  0.00  0.00    +0.164 A 
ATOM      6  C   UNL     1       7.549  -2.556  23.969  0.00  0.00    +0.159 A 
ATOM      7  F   UNL     1       9.774  -2.432  24.842  0.00  0.00    -0.202 F 
ATOM      8  C   UNL     1       6.638  -5.368  27.002  0.00  0.00    +0.205 A 
ATOM      9  O   UNL     1       7.468  -5.711  27.842  0.00  0.00    -0.286 OA
ATOM     10  C   UNL     1       5.272  -5.927  27.042  0.00  0.00    +0.122 A 
ATOM     11  N   UNL     1       6.314  -3.129  24.016  0.00  0.00    -0.211 NA
ATOM     12  C   UNL     1       4.427  -5.506  26.090  0.00  0.00    +0.106 A 
ENDROOT
BRANCH   6  13
ATOM     13  N   UNL     1       7.812  -1.627  22.984  0.00  0.00    -0.310 N 
ATOM     14  C   UNL     1       8.770  -1.899  21.903  0.00  0.00    +0.121 C 
ATOM     15  C   UNL     1       9.925  -0.867  21.915  0.00  0.00    +0.100 C 
ATOM     16  N   UNL     1       9.475   0.536  21.948  0.00  0.00    -0.313 NA
ATOM     17  H   UNL     1      10.286   1.145  22.050  0.00  0.00    +0.122 HD
ATOM     18  C   UNL     1       8.578   0.731  23.105  0.00  0.00    +0.100 C 
ATOM     19  C   UNL     1       7.376  -0.236  23.112  0.00  0.00    +0.121 C 
ENDBRANCH   6  13
BRANCH   1  21
ATOM     20  C   UNL     1       3.374  -5.440  23.208  0.00  0.00    +0.027 C 
ATOM     21  C   UNL     1       3.755  -4.227  24.044  0.00  0.00    +0.120 C 
ENDBRANCH   1  21
BRANCH  10  22
ATOM     22  C   UNL     1       4.814  -6.899  28.056  0.00  0.00    +0.342 C 
ATOM     23  O   UNL     1       3.663  -6.951  28.462  0.00  0.00    -0.245 OA
BRANCH  22  24
ATOM     24  O   UNL     1       5.775  -7.734  28.507  0.00  0.00    -0.477 OA
ATOM     25  H   UNL     1       5.514  -8.688  28.515  0.00  0.00    +0.295 HD
ENDBRANCH  22  24
ENDBRANCH  10  22
TORSDOF 4
ENDMDL
MODEL 6
REMARK VINA RESULT:      -6.9      4.691      7.890
REMARK  Name = 
REMARK  5 active torsions:
REMARK  status: ('A' for Active; 'I' for Inactive)
REMARK    1  A    between atoms: C_1  and  C_2
REMARK    2  A    between atoms: C_2  and  N_3
REMARK    3  A    between atoms: C_5  and  C_6
REMARK    4  A    between atoms: C_6  and  O_7
REMARK    5  A    between atoms: C_15  and  N_18
REMARK                            x       y       z     vdW  Elec       q    Type
REMARK                         _______ _______ _______ _____ _____    ______ ____
ROOT
ATOM      1  N   UNL     1       7.853   2.597  25.319  0.00  0.00    -0.331 N 
ATOM      2  C   UNL     1       8.527   1.489  24.749  0.00  0.00    +0.147 A 
ATOM      3  C   UNL     1       9.664   1.732  23.967  0.00  0.00    +0.068 A 
ATOM      4  C   UNL     1      10.344   0.674  23.381  0.00  0.00    +0.057 A 
ATOM      5  C   UNL     1       9.858  -0.607  23.574  0.00  0.00    +0.164 A 
ATOM      6  C   UNL     1       8.709  -0.829  24.349  0.00  0.00    +0.159 A 
ATOM      7  F   UNL     1      10.544  -1.625  23.032  0.00  0.00    -0.202 F 
ATOM      8  C   UNL     1      10.144   3.112  23.760  0.00  0.00    +0.205 A 
ATOM      9  O   UNL     1      11.142   3.347  23.082  0.00  0.00    -0.286 OA
ATOM     10  C   UNL     1       9.398   4.222  24.385  0.00  0.00    +0.122 A 
ATOM     11  N   UNL     1       8.076   0.220  24.943  0.00  0.00    -0.211 NA
ATOM     12  C   UNL     1       8.323   3.884  25.112  0.00  0.00    +0.106 A 
ENDROOT
BRANCH   6  13
ATOM     13  N   UNL     1       8.208  -2.100  24.539  0.00  0.00    -0.310 N 
ATOM     14  C   UNL     1       8.770  -3.008  25.550  0.00  0.00    +0.121 C 
ATOM     15  C   UNL     1       9.308  -4.302  24.892  0.00  0.00    +0.100 C 
ATOM     16  N   UNL     1       8.345  -4.964  23.994  0.00  0.00    -0.313 NA
ATOM     17  H   UNL     1       8.804  -5.748  23.532  0.00  0.00    +0.122 HD
ATOM     18  C   UNL     1       7.893  -3.999  22.972  0.00  0.00    +0.100 C 
ATOM     19  C   UNL     1       7.293  -2.711  23.575  0.00  0.00    +0.121 C 
ENDBRANCH   6  13
BRANCH   1  21
ATOM     20  C   UNL     1       6.913   2.857  27.579  0.00  0.00    +0.027 C 
ATOM     21  C   UNL     1       6.699   2.302  26.178  0.00  0.00    +0.120 C 
ENDBRANCH   1  21
BRANCH  10  22
ATOM     22  C   UNL     1       9.774   5.644  24.244  0.00  0.00    +0.342 C 
ATOM     23  O   UNL     1       9.870   6.408  25.192  0.00  0.00    -0.245 OA
BRANCH  22  24
ATOM     24  O   UNL     1      10.006   6.039  22.974  0.00  0.00    -0.477 OA
ATOM     25  H   UNL     1       9.290   5.798  22.336  0.00  0.00    +0.295 HD
ENDBRANCH  22  24
ENDBRANCH  10  22
TORSDOF 4
ENDMDL
MODEL 7
REMARK VINA RESULT:      -6.9      3.013      4.505
REMARK  Name = 
REMARK  5 active torsions:
REMARK  status: ('A' for Active; 'I' for Inactive)
REMARK    1  A    between atoms: C_1  and  C_2
REMARK    2  A    between atoms: C_2  and  N_3
REMARK    3  A    between atoms: C_5  and  C_6
REMARK    4  A    between atoms: C_6  and  O_7
REMARK    5  A    between atoms: C_15  and  N_18
REMARK                            x       y       z     vdW  Elec       q    Type
REMARK                         _______ _______ _______ _____ _____    ______ ____
ROOT
ATOM      1  N   UNL     1       7.622  -1.241  25.753  0.00  0.00    -0.331 N 
ATOM      2  C   UNL     1       8.218  -0.344  24.834  0.00  0.00    +0.147 A 
ATOM      3  C   UNL     1       9.179  -0.842  23.945  0.00  0.00    +0.068 A 
ATOM      4  C   UNL     1       9.795   0.010  23.039  0.00  0.00    +0.057 A 
ATOM      5  C   UNL     1       9.449   1.349  23.056  0.00  0.00    +0.164 A 
ATOM      6  C   UNL     1       8.494   1.832  23.963  0.00  0.00    +0.159 A 
ATOM      7  F   UNL     1      10.025   2.155  22.151  0.00  0.00    -0.202 F 
ATOM      8  C   UNL     1       9.544  -2.271  23.968  0.00  0.00    +0.205 A 
ATOM      9  O   UNL     1      10.382  -2.730  23.194  0.00  0.00    -0.286 OA
ATOM     10  C   UNL     1       8.883  -3.155  24.948  0.00  0.00    +0.122 A 
ATOM     11  N   UNL     1       7.877   0.973  24.822  0.00  0.00    -0.211 NA
ATOM     12  C   UNL     1       7.979  -2.581  25.755  0.00  0.00    +0.106 A 
ENDROOT
BRANCH   6  13
ATOM     13  N   UNL     1       8.149   3.166  23.998  0.00  0.00    -0.310 N 
ATOM     14  C   UNL     1       7.028   3.695  23.206  0.00  0.00    +0.121 C 
ATOM     15  C   UNL     1       7.514   4.782  22.217  0.00  0.00    +0.100 C 
ATOM     16  N   UNL     1       8.328   5.841  22.841  0.00  0.00    -0.313 NA
ATOM     17  H   UNL     1       8.685   6.459  22.115  0.00  0.00    +0.122 HD
ATOM     18  C   UNL     1       9.467   5.222  23.550  0.00  0.00    +0.100 C 
ATOM     19  C   UNL     1       9.035   4.168  24.591  0.00  0.00    +0.121 C 
ENDBRANCH   6  13
BRANCH   1  21
ATOM     20  C   UNL     1       5.200  -1.168  26.188  0.00  0.00    +0.027 C 
ATOM     21  C   UNL     1       6.578  -0.698  26.631  0.00  0.00    +0.120 C 
ENDBRANCH   1  21
BRANCH  10  22
ATOM     22  C   UNL     1       9.170  -4.599  25.073  0.00  0.00    +0.342 C 
ATOM     23  O   UNL     1       8.306  -5.438  25.284  0.00  0.00    -0.245 OA
BRANCH  22  24
ATOM     24  O   UNL     1      10.472  -4.926  24.936  0.00  0.00    -0.477 OA
ATOM     25  H   UNL     1      10.691  -5.375  24.082  0.00  0.00    +0.295 HD
ENDBRANCH  22  24
ENDBRANCH  10  22
TORSDOF 4
ENDMDL
MODEL 8
REMARK VINA RESULT:      -6.8      2.885      4.022
REMARK  Name = 
REMARK  5 active torsions:
REMARK  status: ('A' for Active; 'I' for Inactive)
REMARK    1  A    between atoms: C_1  and  C_2
REMARK    2  A    between atoms: C_2  and  N_3
REMARK    3  A    between atoms: C_5  and  C_6
REMARK    4  A    between atoms: C_6  and  O_7
REMARK    5  A    between atoms: C_15  and  N_18
REMARK                            x       y       z     vdW  Elec       q    Type
REMARK                         _______ _______ _______ _____ _____    ______ ____
ROOT
ATOM      1  N   UNL     1       9.551  -1.365  23.675  0.00  0.00    -0.331 N 
ATOM      2  C   UNL     1       8.721  -0.533  24.465  0.00  0.00    +0.147 A 
ATOM      3  C   UNL     1       8.044  -1.104  25.550  0.00  0.00    +0.068 A 
ATOM      4  C   UNL     1       7.210  -0.324  26.339  0.00  0.00    +0.057 A 
ATOM      5  C   UNL     1       7.056   1.011  26.011  0.00  0.00    +0.164 A 
ATOM      6  C   UNL     1       7.731   1.562  24.912  0.00  0.00    +0.159 A 
ATOM      7  F   UNL     1       6.276   1.763  26.801  0.00  0.00    -0.202 F 
ATOM      8  C   UNL     1       8.210  -2.538  25.860  0.00  0.00    +0.205 A 
ATOM      9  O   UNL     1       7.629  -3.058  26.810  0.00  0.00    -0.286 OA
ATOM     10  C   UNL     1       9.094  -3.349  25.000  0.00  0.00    +0.122 A 
ATOM     11  N   UNL     1       8.571   0.787  24.171  0.00  0.00    -0.211 NA
ATOM     12  C   UNL     1       9.694  -2.709  23.986  0.00  0.00    +0.106 A 
ENDROOT
BRANCH   6  13
ATOM     13  N   UNL     1       7.577   2.889  24.568  0.00  0.00    -0.310 N 
ATOM     14  C   UNL     1       6.623   3.312  23.532  0.00  0.00    +0.121 C 
ATOM     15  C   UNL     1       7.350   4.038  22.374  0.00  0.00    +0.100 C 
ATOM     16  N   UNL     1       8.244   5.125  22.814  0.00  0.00    -0.313 NA
ATOM     17  H   UNL     1       8.752   5.486  22.008  0.00  0.00    +0.122 HD
ATOM     18  C   UNL     1       9.210   4.591  23.794  0.00  0.00    +0.100 C 
ATOM     19  C   UNL     1       8.536   3.905  25.001  0.00  0.00    +0.121 C 
ENDBRANCH   6  13
BRANCH   1  21
ATOM     20  C   UNL     1       9.483  -0.754  21.292  0.00  0.00    +0.027 C 
ATOM     21  C   UNL     1      10.290  -0.722  22.582  0.00  0.00    +0.120 C 
ENDBRANCH   1  21
BRANCH  10  22
ATOM     22  C   UNL     1       9.334  -4.793  25.204  0.00  0.00    +0.342 C 
ATOM     23  O   UNL     1       9.167  -5.630  24.329  0.00  0.00    -0.245 OA
BRANCH  22  24
ATOM     24  O   UNL     1       9.756  -5.122  26.443  0.00  0.00    -0.477 OA
ATOM     25  H   UNL     1      10.393  -5.879  26.469  0.00  0.00    +0.295 HD
ENDBRANCH  22  24
ENDBRANCH  10  22
TORSDOF 4
ENDMDL
MODEL 9
REMARK VINA RESULT:      -6.8      3.959      7.280
REMARK  Name = 
REMARK  5 active torsions:
REMARK  status: ('A' for Active; 'I' for Inactive)
REMARK    1  A    between atoms: C_1  and  C_2
REMARK    2  A    between atoms: C_2  and  N_3
REMARK    3  A    between atoms: C_5  and  C_6
REMARK    4  A    between atoms: C_6  and  O_7
REMARK    5  A    between atoms: C_15  and  N_18
REMARK                            x       y       z     vdW  Elec       q    Type
REMARK                         _______ _______ _______ _____ _____    ______ ____
ROOT
ATOM      1  N   UNL     1       7.057   0.309  24.315  0.00  0.00    -0.331 N 
ATOM      2  C   UNL     1       7.137  -1.047  23.911  0.00  0.00    +0.147 A 
ATOM      3  C   UNL     1       8.211  -1.438  23.102  0.00  0.00    +0.068 A 
ATOM      4  C   UNL     1       8.316  -2.754  22.674  0.00  0.00    +0.057 A 
ATOM      5  C   UNL     1       7.330  -3.648  23.051  0.00  0.00    +0.164 A 
ATOM      6  C   UNL     1       6.254  -3.234  23.850  0.00  0.00    +0.159 A 
ATOM      7  F   UNL     1       7.462  -4.925  22.662  0.00  0.00    -0.202 F 
ATOM      8  C   UNL     1       9.234  -0.455  22.697  0.00  0.00    +0.205 A 
ATOM      9  O   UNL     1      10.188  -0.779  21.991  0.00  0.00    -0.286 OA
ATOM     10  C   UNL     1       9.095   0.941  23.155  0.00  0.00    +0.122 A 
ATOM     11  N   UNL     1       6.187  -1.946  24.287  0.00  0.00    -0.211 NA
ATOM     12  C   UNL     1       8.031   1.214  23.924  0.00  0.00    +0.106 A 
ENDROOT
BRANCH   6  13
ATOM     13  N   UNL     1       5.259  -4.113  24.223  0.00  0.00    -0.310 N 
ATOM     14  C   UNL     1       5.348  -4.900  25.462  0.00  0.00    +0.121 C 
ATOM     15  C   UNL     1       5.317  -6.418  25.156  0.00  0.00    +0.100 C 
ATOM     16  N   UNL     1       4.200  -6.833  24.288  0.00  0.00    -0.313 NA
ATOM     17  H   UNL     1       4.305  -7.820  24.058  0.00  0.00    +0.122 HD
ATOM     18  C   UNL     1       4.235  -6.041  23.041  0.00  0.00    +0.100 C 
ATOM     19  C   UNL     1       4.209  -4.518  23.287  0.00  0.00    +0.121 C 
ENDBRANCH   6  13
BRANCH   1  21
ATOM     20  C   UNL     1       5.310   1.981  24.772  0.00  0.00    +0.027 C 
ATOM     21  C   UNL     1       5.950   0.671  25.209  0.00  0.00    +0.120 C 
ENDBRANCH   1  21
BRANCH  10  22
ATOM     22  C   UNL     1      10.049   2.016  22.810  0.00  0.00    +0.342 C 
ATOM     23  O   UNL     1      10.661   2.662  23.646  0.00  0.00    -0.245 OA
BRANCH  22  24
ATOM     24  O   UNL     1      10.193   2.233  21.485  0.00  0.00    -0.477 OA
ATOM     25  H   UNL     1      10.100   3.180  21.215  0.00  0.00    +0.295 HD
ENDBRANCH  22  24
ENDBRANCH  10  22
TORSDOF 4
ENDMDL
