MODEL 1
REMARK VINA RESULT:      -7.7      0.000      0.000
REMARK  Name = 
REMARK  6 active torsions:
REMARK  status: ('A' for Active; 'I' for Inactive)
REMARK    1  A    between atoms: O_1  and  C_2
REMARK    2  A    between atoms: C_2  and  C_4
REMARK    3  A    between atoms: C_7  and  N_8
REMARK    4  A    between atoms: C_12  and  C_14
REMARK    5  A    between atoms: C_23  and  O_24
REMARK    6  A    between atoms: O_24  and  C_25
REMARK                            x       y       z     vdW  Elec       q    Type
REMARK                         _______ _______ _______ _____ _____    ______ ____
ROOT
ATOM      1  N   UNL     1       6.440  -3.772  24.338  0.00  0.00    -0.266 N 
ATOM      2  H   UNL     1       7.346  -3.937  24.755  0.00  0.00    +0.156 HD
ATOM      3  C   UNL     1       6.023  -2.443  24.359  0.00  0.00    +0.310 C 
ATOM      4  N   UNL     1       7.073  -1.558  24.158  0.00  0.00    -0.236 N 
ATOM      5  H   UNL     1       7.913  -1.933  23.748  0.00  0.00    +0.159 HD
ATOM      6  C   UNL     1       6.931  -0.182  24.264  0.00  0.00    +0.253 C 
ATOM      7  O   UNL     1       5.923   0.379  24.679  0.00  0.00    -0.270 OA
ATOM      8  O   UNL     1       4.863  -2.114  24.563  0.00  0.00    -0.252 OA
ENDROOT
BRANCH   6   9
ATOM      9  C   UNL     1       8.091   0.705  23.940  0.00  0.00    +0.058 A 
ATOM     10  C   UNL     1       8.064   1.857  23.138  0.00  0.00    +0.056 A 
ATOM     11 CL   UNL     1       6.637   2.427  22.351  0.00  0.00    -0.083 Cl
ATOM     12  C   UNL     1       9.226   2.629  22.966  0.00  0.00    +0.062 A 
ATOM     13  C   UNL     1      10.414   2.255  23.586  0.00  0.00    +0.160 A 
ATOM     14  F   UNL     1      11.511   3.004  23.416  0.00  0.00    -0.202 F 
ATOM     15  C   UNL     1      10.459   1.119  24.375  0.00  0.00    +0.159 A 
ATOM     16  F   UNL     1      11.600   0.756  24.976  0.00  0.00    -0.202 F 
ATOM     17  C   UNL     1       9.313   0.350  24.555  0.00  0.00    +0.055 A 
ENDBRANCH   6   9
BRANCH   1  21
ATOM     18  C   UNL     1       3.668  -6.928  24.881  0.00  0.00    +0.062 A 
ATOM     19  C   UNL     1       4.069  -6.550  23.590  0.00  0.00    +0.062 A 
ATOM     20  C   UNL     1       4.923  -5.453  23.404  0.00  0.00    +0.152 A 
ATOM     21  C   UNL     1       5.504  -4.830  24.527  0.00  0.00    +0.077 A 
ATOM     22  C   UNL     1       5.153  -5.259  25.817  0.00  0.00    +0.028 A 
ATOM     23  C   UNL     1       4.219  -6.283  25.993  0.00  0.00    +0.017 A 
BRANCH  18  24
ATOM     24  C   UNL     1       2.675  -8.007  25.112  0.00  0.00    +0.337 C 
ATOM     25  O   UNL     1       2.294  -8.761  24.232  0.00  0.00    -0.245 OA
BRANCH  24  26
ATOM     26  O   UNL     1       2.284  -8.121  26.400  0.00  0.00    -0.477 OA
ATOM     27  H   UNL     1       2.273  -9.024  26.767  0.00  0.00    +0.295 HD
ENDBRANCH  24  26
ENDBRANCH  18  24
BRANCH  20  28
ATOM     28  O   UNL     1       5.314  -4.956  22.191  0.00  0.00    -0.404 OA
BRANCH  28  29
ATOM     29  C   UNL     1       6.370  -5.586  21.479  0.00  0.00    +0.575 C 
ATOM     30  F   UNL     1       7.476  -4.818  21.527  0.00  0.00    -0.133 F 
ATOM     31  F   UNL     1       5.987  -5.706  20.190  0.00  0.00    -0.133 F 
ATOM     32  F   UNL     1       6.666  -6.823  21.933  0.00  0.00    -0.133 F 
ENDBRANCH  28  29
ENDBRANCH  20  28
ENDBRANCH   1  21
TORSDOF 6
ENDMDL
MODEL 2
REMARK VINA RESULT:      -7.5      3.284      9.368
REMARK  Name = 
REMARK  6 active torsions:
REMARK  status: ('A' for Active; 'I' for Inactive)
REMARK    1  A    between atoms: O_1  and  C_2
REMARK    2  A    between atoms: C_2  and  C_4
REMARK    3  A    between atoms: C_7  and  N_8
REMARK    4  A    between atoms: C_12  and  C_14
REMARK    5  A    between atoms: C_23  and  O_24
REMARK    6  A    between atoms: O_24  and  C_25
REMARK                            x       y       z     vdW  Elec       q    Type
REMARK                         _______ _______ _______ _____ _____    ______ ____
ROOT
ATOM      1  N   UNL     1       7.025   0.567  24.312  0.00  0.00    -0.266 N 
ATOM      2  H   UNL     1       7.177   0.292  25.272  0.00  0.00    +0.156 HD
ATOM      3  C   UNL     1       7.157  -0.463  23.383  0.00  0.00    +0.310 C 
ATOM      4  N   UNL     1       6.672  -1.671  23.864  0.00  0.00    -0.236 N 
ATOM      5  H   UNL     1       6.048  -1.630  24.653  0.00  0.00    +0.159 HD
ATOM      6  C   UNL     1       6.809  -2.867  23.176  0.00  0.00    +0.253 C 
ATOM      7  O   UNL     1       7.484  -3.008  22.161  0.00  0.00    -0.270 OA
ATOM      8  O   UNL     1       7.672  -0.306  22.284  0.00  0.00    -0.252 OA
ENDROOT
BRANCH   6   9
ATOM      9  C   UNL     1       6.175  -4.109  23.721  0.00  0.00    +0.058 A 
ATOM     10  C   UNL     1       6.513  -4.762  24.916  0.00  0.00    +0.056 A 
ATOM     11 CL   UNL     1       7.778  -4.228  25.962  0.00  0.00    -0.083 Cl
ATOM     12  C   UNL     1       5.790  -5.893  25.334  0.00  0.00    +0.062 A 
ATOM     13  C   UNL     1       4.737  -6.376  24.563  0.00  0.00    +0.160 A 
ATOM     14  F   UNL     1       4.055  -7.452  24.978  0.00  0.00    -0.202 F 
ATOM     15  C   UNL     1       4.395  -5.746  23.379  0.00  0.00    +0.159 A 
ATOM     16  F   UNL     1       3.382  -6.205  22.634  0.00  0.00    -0.202 F 
ATOM     17  C   UNL     1       5.102  -4.623  22.959  0.00  0.00    +0.055 A 
ENDBRANCH   6   9
BRANCH   1  21
ATOM     18  C   UNL     1       8.365   4.476  23.380  0.00  0.00    +0.062 A 
ATOM     19  C   UNL     1       9.244   3.541  23.947  0.00  0.00    +0.062 A 
ATOM     20  C   UNL     1       8.782   2.273  24.332  0.00  0.00    +0.152 A 
ATOM     21  C   UNL     1       7.468   1.886  24.000  0.00  0.00    +0.077 A 
ATOM     22  C   UNL     1       6.613   2.802  23.368  0.00  0.00    +0.028 A 
ATOM     23  C   UNL     1       7.050   4.099  23.085  0.00  0.00    +0.017 A 
BRANCH  18  24
ATOM     24  C   UNL     1       8.787   5.864  23.067  0.00  0.00    +0.337 C 
ATOM     25  O   UNL     1       9.665   6.447  23.680  0.00  0.00    -0.245 OA
BRANCH  24  26
ATOM     26  O   UNL     1       8.154   6.398  21.999  0.00  0.00    -0.477 OA
ATOM     27  H   UNL     1       8.073   7.370  21.991  0.00  0.00    +0.295 HD
ENDBRANCH  24  26
ENDBRANCH  18  24
BRANCH  20  28
ATOM     28  O   UNL     1       9.534   1.318  24.959  0.00  0.00    -0.404 OA
BRANCH  28  29
ATOM     29  C   UNL     1      10.516   0.599  24.225  0.00  0.00    +0.575 C 
ATOM     30  F   UNL     1      10.372  -0.723  24.443  0.00  0.00    -0.133 F 
ATOM     31  F   UNL     1      11.730   0.979  24.675  0.00  0.00    -0.133 F 
ATOM     32  F   UNL     1      10.481   0.839  22.896  0.00  0.00    -0.133 F 
ENDBRANCH  28  29
ENDBRANCH  20  28
ENDBRANCH   1  21
TORSDOF 6
ENDMDL
MODEL 3
REMARK VINA RESULT:      -7.4      3.053      3.809
REMARK  Name = 
REMARK  6 active torsions:
REMARK  status: ('A' for Active; 'I' for Inactive)
REMARK    1  A    between atoms: O_1  and  C_2
REMARK    2  A    between atoms: C_2  and  C_4
REMARK    3  A    between atoms: C_7  and  N_8
REMARK    4  A    between atoms: C_12  and  C_14
REMARK    5  A    between atoms: C_23  and  O_24
REMARK    6  A    between atoms: O_24  and  C_25
REMARK                            x       y       z     vdW  Elec       q    Type
REMARK                         _______ _______ _______ _____ _____    ______ ____
ROOT
ATOM      1  N   UNL     1       7.337  -1.635  26.425  0.00  0.00    -0.266 N 
ATOM      2  H   UNL     1       7.153  -0.930  27.125  0.00  0.00    +0.156 HD
ATOM      3  C   UNL     1       7.320  -1.170  25.111  0.00  0.00    +0.310 C 
ATOM      4  N   UNL     1       7.855   0.105  24.997  0.00  0.00    -0.236 N 
ATOM      5  H   UNL     1       8.433   0.427  25.757  0.00  0.00    +0.159 HD
ATOM      6  C   UNL     1       7.831   0.831  23.816  0.00  0.00    +0.253 C 
ATOM      7  O   UNL     1       7.220   0.492  22.808  0.00  0.00    -0.270 OA
ATOM      8  O   UNL     1       6.854  -1.816  24.183  0.00  0.00    -0.252 OA
ENDROOT
BRANCH   6   9
ATOM      9  C   UNL     1       8.513   2.162  23.754  0.00  0.00    +0.058 A 
ATOM     10  C   UNL     1       9.891   2.400  23.870  0.00  0.00    +0.056 A 
ATOM     11 CL   UNL     1      11.048   1.147  24.141  0.00  0.00    -0.083 Cl
ATOM     12  C   UNL     1      10.399   3.704  23.735  0.00  0.00    +0.062 A 
ATOM     13  C   UNL     1       9.538   4.769  23.489  0.00  0.00    +0.160 A 
ATOM     14  F   UNL     1      10.039   6.005  23.357  0.00  0.00    -0.202 F 
ATOM     15  C   UNL     1       8.176   4.551  23.377  0.00  0.00    +0.159 A 
ATOM     16  F   UNL     1       7.344   5.573  23.139  0.00  0.00    -0.202 F 
ATOM     17  C   UNL     1       7.664   3.264  23.505  0.00  0.00    +0.055 A 
ENDBRANCH   6   9
BRANCH   1  21
ATOM     18  C   UNL     1       5.846  -5.482  27.384  0.00  0.00    +0.062 A 
ATOM     19  C   UNL     1       7.205  -5.302  27.086  0.00  0.00    +0.062 A 
ATOM     20  C   UNL     1       7.685  -4.045  26.689  0.00  0.00    +0.152 A 
ATOM     21  C   UNL     1       6.828  -2.928  26.743  0.00  0.00    +0.077 A 
ATOM     22  C   UNL     1       5.484  -3.102  27.110  0.00  0.00    +0.028 A 
ATOM     23  C   UNL     1       4.989  -4.376  27.401  0.00  0.00    +0.017 A 
BRANCH  18  24
ATOM     24  C   UNL     1       5.278  -6.818  27.694  0.00  0.00    +0.337 C 
ATOM     25  O   UNL     1       5.682  -7.517  28.609  0.00  0.00    -0.245 OA
BRANCH  24  26
ATOM     26  O   UNL     1       4.231  -7.160  26.912  0.00  0.00    -0.477 OA
ATOM     27  H   UNL     1       4.379  -7.903  26.298  0.00  0.00    +0.295 HD
ENDBRANCH  24  26
ENDBRANCH  18  24
BRANCH  20  28
ATOM     28  O   UNL     1       8.972  -3.778  26.307  0.00  0.00    -0.404 OA
BRANCH  28  29
ATOM     29  C   UNL     1       9.444  -4.245  25.050  0.00  0.00    +0.575 C 
ATOM     30  F   UNL     1      10.281  -5.285  25.235  0.00  0.00    -0.133 F 
ATOM     31  F   UNL     1      10.129  -3.240  24.466  0.00  0.00    -0.133 F 
ATOM     32  F   UNL     1       8.457  -4.612  24.204  0.00  0.00    -0.133 F 
ENDBRANCH  28  29
ENDBRANCH  20  28
ENDBRANCH   1  21
TORSDOF 6
ENDMDL
MODEL 4
REMARK VINA RESULT:      -7.3      3.515      9.246
REMARK  Name = 
REMARK  6 active torsions:
REMARK  status: ('A' for Active; 'I' for Inactive)
REMARK    1  A    between atoms: O_1  and  C_2
REMARK    2  A    between atoms: C_2  and  C_4
REMARK    3  A    between atoms: C_7  and  N_8
REMARK    4  A    between atoms: C_12  and  C_14
REMARK    5  A    between atoms: C_23  and  O_24
REMARK    6  A    between atoms: O_24  and  C_25
REMARK                            x       y       z     vdW  Elec       q    Type
REMARK                         _______ _______ _______ _____ _____    ______ ____
ROOT
ATOM      1  N   UNL     1       6.924   0.508  24.066  0.00  0.00    -0.266 N 
ATOM      2  H   UNL     1       6.903   0.284  25.051  0.00  0.00    +0.156 HD
ATOM      3  C   UNL     1       7.234  -0.565  23.232  0.00  0.00    +0.310 C 
ATOM      4  N   UNL     1       6.687  -1.757  23.681  0.00  0.00    -0.236 N 
ATOM      5  H   UNL     1       5.929  -1.691  24.342  0.00  0.00    +0.159 HD
ATOM      6  C   UNL     1       6.961  -2.983  23.093  0.00  0.00    +0.253 C 
ATOM      7  O   UNL     1       7.810  -3.159  22.225  0.00  0.00    -0.270 OA
ATOM      8  O   UNL     1       7.937  -0.451  22.237  0.00  0.00    -0.252 OA
ENDROOT
BRANCH   6   9
ATOM      9  C   UNL     1       6.256  -4.210  23.581  0.00  0.00    +0.058 A 
ATOM     10  C   UNL     1       5.842  -5.301  22.801  0.00  0.00    +0.056 A 
ATOM     11 CL   UNL     1       6.068  -5.381  21.091  0.00  0.00    -0.083 Cl
ATOM     12  C   UNL     1       5.238  -6.416  23.407  0.00  0.00    +0.062 A 
ATOM     13  C   UNL     1       5.041  -6.445  24.784  0.00  0.00    +0.160 A 
ATOM     14  F   UNL     1       4.468  -7.517  25.347  0.00  0.00    -0.202 F 
ATOM     15  C   UNL     1       5.439  -5.374  25.566  0.00  0.00    +0.159 A 
ATOM     16  F   UNL     1       5.253  -5.397  26.892  0.00  0.00    -0.202 F 
ATOM     17  C   UNL     1       6.042  -4.267  24.977  0.00  0.00    +0.055 A 
ENDBRANCH   6   9
BRANCH   1  21
ATOM     18  C   UNL     1       8.357   4.394  23.181  0.00  0.00    +0.062 A 
ATOM     19  C   UNL     1       9.184   3.464  23.830  0.00  0.00    +0.062 A 
ATOM     20  C   UNL     1       8.685   2.205  24.197  0.00  0.00    +0.152 A 
ATOM     21  C   UNL     1       7.398   1.819  23.770  0.00  0.00    +0.077 A 
ATOM     22  C   UNL     1       6.602   2.730  23.058  0.00  0.00    +0.028 A 
ATOM     23  C   UNL     1       7.068   4.019  22.789  0.00  0.00    +0.017 A 
BRANCH  18  24
ATOM     24  C   UNL     1       8.812   5.775  22.881  0.00  0.00    +0.337 C 
ATOM     25  O   UNL     1       9.741   6.311  23.461  0.00  0.00    -0.245 OA
BRANCH  24  26
ATOM     26  O   UNL     1       8.145   6.358  21.860  0.00  0.00    -0.477 OA
ATOM     27  H   UNL     1       7.260   6.706  22.071  0.00  0.00    +0.295 HD
ENDBRANCH  24  26
ENDBRANCH  18  24
BRANCH  20  28
ATOM     28  O   UNL     1       9.379   1.256  24.897  0.00  0.00    -0.404 OA
BRANCH  28  29
ATOM     29  C   UNL     1      10.509   0.630  24.304  0.00  0.00    +0.575 C 
ATOM     30  F   UNL     1      10.538   0.896  22.983  0.00  0.00    -0.133 F 
ATOM     31  F   UNL     1      10.377  -0.704  24.471  0.00  0.00    -0.133 F 
ATOM     32  F   UNL     1      11.684   0.996  24.860  0.00  0.00    -0.133 F 
ENDBRANCH  28  29
ENDBRANCH  20  28
ENDBRANCH   1  21
TORSDOF 6
ENDMDL
MODEL 5
REMARK VINA RESULT:      -7.2      2.822      3.396
REMARK  Name = 
REMARK  6 active torsions:
REMARK  status: ('A' for Active; 'I' for Inactive)
REMARK    1  A    between atoms: O_1  and  C_2
REMARK    2  A    between atoms: C_2  and  C_4
REMARK    3  A    between atoms: C_7  and  N_8
REMARK    4  A    between atoms: C_12  and  C_14
REMARK    5  A    between atoms: C_23  and  O_24
REMARK    6  A    between atoms: O_24  and  C_25
REMARK                            x       y       z     vdW  Elec       q    Type
REMARK                         _______ _______ _______ _____ _____    ______ ____
ROOT
ATOM      1  N   UNL     1       7.015  -2.446  23.620  0.00  0.00    -0.266 N 
ATOM      2  H   UNL     1       7.972  -2.652  23.367  0.00  0.00    +0.156 HD
ATOM      3  C   UNL     1       6.861  -1.355  24.474  0.00  0.00    +0.310 C 
ATOM      4  N   UNL     1       7.760  -0.336  24.194  0.00  0.00    -0.236 N 
ATOM      5  H   UNL     1       8.199  -0.351  23.287  0.00  0.00    +0.159 HD
ATOM      6  C   UNL     1       7.889   0.796  24.985  0.00  0.00    +0.253 C 
ATOM      7  O   UNL     1       7.338   0.947  26.070  0.00  0.00    -0.270 OA
ATOM      8  O   UNL     1       6.040  -1.331  25.380  0.00  0.00    -0.252 OA
ENDROOT
BRANCH   6   9
ATOM      9  C   UNL     1       8.817   1.890  24.560  0.00  0.00    +0.058 A 
ATOM     10  C   UNL     1      10.139   1.739  24.114  0.00  0.00    +0.056 A 
ATOM     11 CL   UNL     1      10.933   0.209  24.014  0.00  0.00    -0.083 Cl
ATOM     12  C   UNL     1      10.877   2.858  23.692  0.00  0.00    +0.062 A 
ATOM     13  C   UNL     1      10.304   4.125  23.717  0.00  0.00    +0.160 A 
ATOM     14  F   UNL     1      11.020   5.181  23.306  0.00  0.00    -0.202 F 
ATOM     15  C   UNL     1       9.003   4.292  24.158  0.00  0.00    +0.159 A 
ATOM     16  F   UNL     1       8.447   5.510  24.183  0.00  0.00    -0.202 F 
ATOM     17  C   UNL     1       8.262   3.191  24.575  0.00  0.00    +0.055 A 
ENDBRANCH   6   9
BRANCH   1  21
ATOM     18  C   UNL     1       4.542  -5.859  24.038  0.00  0.00    +0.062 A 
ATOM     19  C   UNL     1       5.744  -5.762  24.755  0.00  0.00    +0.062 A 
ATOM     20  C   UNL     1       6.604  -4.671  24.557  0.00  0.00    +0.152 A 
ATOM     21  C   UNL     1       6.181  -3.594  23.752  0.00  0.00    +0.077 A 
ATOM     22  C   UNL     1       4.944  -3.666  23.092  0.00  0.00    +0.028 A 
ATOM     23  C   UNL     1       4.142  -4.804  23.212  0.00  0.00    +0.017 A 
BRANCH  18  24
ATOM     24  C   UNL     1       3.663  -7.052  24.133  0.00  0.00    +0.337 C 
ATOM     25  O   UNL     1       3.701  -7.834  25.068  0.00  0.00    -0.245 OA
BRANCH  24  26
ATOM     26  O   UNL     1       2.772  -7.154  23.122  0.00  0.00    -0.477 OA
ATOM     27  H   UNL     1       2.327  -8.016  23.029  0.00  0.00    +0.295 HD
ENDBRANCH  24  26
ENDBRANCH  18  24
BRANCH  20  28
ATOM     28  O   UNL     1       7.829  -4.517  25.146  0.00  0.00    -0.404 OA
BRANCH  28  29
ATOM     29  C   UNL     1       7.922  -4.405  26.560  0.00  0.00    +0.575 C 
ATOM     30  F   UNL     1       6.847  -3.747  27.038  0.00  0.00    -0.133 F 
ATOM     31  F   UNL     1       9.028  -3.686  26.847  0.00  0.00    -0.133 F 
ATOM     32  F   UNL     1       8.034  -5.595  27.191  0.00  0.00    -0.133 F 
ENDBRANCH  28  29
ENDBRANCH  20  28
ENDBRANCH   1  21
TORSDOF 6
ENDMDL
MODEL 6
REMARK VINA RESULT:      -7.2      3.454      9.179
REMARK  Name = 
REMARK  6 active torsions:
REMARK  status: ('A' for Active; 'I' for Inactive)
REMARK    1  A    between atoms: O_1  and  C_2
REMARK    2  A    between atoms: C_2  and  C_4
REMARK    3  A    between atoms: C_7  and  N_8
REMARK    4  A    between atoms: C_12  and  C_14
REMARK    5  A    between atoms: C_23  and  O_24
REMARK    6  A    between atoms: O_24  and  C_25
REMARK                            x       y       z     vdW  Elec       q    Type
REMARK                         _______ _______ _______ _____ _____    ______ ____
ROOT
ATOM      1  N   UNL     1       7.061   0.514  24.480  0.00  0.00    -0.266 N 
ATOM      2  H   UNL     1       6.061   0.519  24.625  0.00  0.00    +0.156 HD
ATOM      3  C   UNL     1       7.726  -0.574  25.042  0.00  0.00    +0.310 C 
ATOM      4  N   UNL     1       6.987  -1.745  24.955  0.00  0.00    -0.236 N 
ATOM      5  H   UNL     1       6.237  -1.762  24.282  0.00  0.00    +0.159 HD
ATOM      6  C   UNL     1       7.379  -2.932  25.555  0.00  0.00    +0.253 C 
ATOM      7  O   UNL     1       8.324  -3.036  26.331  0.00  0.00    -0.270 OA
ATOM      8  O   UNL     1       8.823  -0.480  25.575  0.00  0.00    -0.252 OA
ENDROOT
BRANCH   6   9
ATOM      9  C   UNL     1       6.572  -4.172  25.334  0.00  0.00    +0.058 A 
ATOM     10  C   UNL     1       5.892  -4.913  26.314  0.00  0.00    +0.056 A 
ATOM     11 CL   UNL     1       5.911  -4.504  27.991  0.00  0.00    -0.083 Cl
ATOM     12  C   UNL     1       5.123  -6.031  25.950  0.00  0.00    +0.062 A 
ATOM     13  C   UNL     1       5.032  -6.416  24.616  0.00  0.00    +0.160 A 
ATOM     14  F   UNL     1       4.290  -7.481  24.285  0.00  0.00    -0.202 F 
ATOM     15  C   UNL     1       5.700  -5.699  23.638  0.00  0.00    +0.159 A 
ATOM     16  F   UNL     1       5.615  -6.064  22.353  0.00  0.00    -0.202 F 
ATOM     17  C   UNL     1       6.461  -4.588  23.987  0.00  0.00    +0.055 A 
ENDBRANCH   6   9
BRANCH   1  21
ATOM     18  C   UNL     1       8.838   4.359  24.440  0.00  0.00    +0.062 A 
ATOM     19  C   UNL     1       8.893   3.540  23.301  0.00  0.00    +0.062 A 
ATOM     20  C   UNL     1       8.377   2.236  23.339  0.00  0.00    +0.152 A 
ATOM     21  C   UNL     1       7.661   1.807  24.475  0.00  0.00    +0.077 A 
ATOM     22  C   UNL     1       7.548   2.658  25.585  0.00  0.00    +0.028 A 
ATOM     23  C   UNL     1       8.157   3.916  25.579  0.00  0.00    +0.017 A 
BRANCH  18  24
ATOM     24  C   UNL     1       9.474   5.700  24.476  0.00  0.00    +0.337 C 
ATOM     25  O   UNL     1       9.744   6.282  25.513  0.00  0.00    -0.245 OA
BRANCH  24  26
ATOM     26  O   UNL     1       9.788   6.186  23.254  0.00  0.00    -0.477 OA
ATOM     27  H   UNL     1       9.046   6.546  22.733  0.00  0.00    +0.295 HD
ENDBRANCH  24  26
ENDBRANCH  18  24
BRANCH  20  28
ATOM     28  O   UNL     1       8.447   1.332  22.314  0.00  0.00    -0.404 OA
BRANCH  28  29
ATOM     29  C   UNL     1       9.707   0.801  21.927  0.00  0.00    +0.575 C 
ATOM     30  F   UNL     1      10.478   1.781  21.416  0.00  0.00    -0.133 F 
ATOM     31  F   UNL     1       9.490  -0.120  20.965  0.00  0.00    -0.133 F 
ATOM     32  F   UNL     1      10.369   0.191  22.934  0.00  0.00    -0.133 F 
ENDBRANCH  28  29
ENDBRANCH  20  28
ENDBRANCH   1  21
TORSDOF 6
ENDMDL
MODEL 7
REMARK VINA RESULT:      -7.1      3.671      9.495
REMARK  Name = 
REMARK  6 active torsions:
REMARK  status: ('A' for Active; 'I' for Inactive)
REMARK    1  A    between atoms: O_1  and  C_2
REMARK    2  A    between atoms: C_2  and  C_4
REMARK    3  A    between atoms: C_7  and  N_8
REMARK    4  A    between atoms: C_12  and  C_14
REMARK    5  A    between atoms: C_23  and  O_24
REMARK    6  A    between atoms: O_24  and  C_25
REMARK                            x       y       z     vdW  Elec       q    Type
REMARK                         _______ _______ _______ _____ _____    ______ ____
ROOT
ATOM      1  N   UNL     1       8.337  -0.024  24.429  0.00  0.00    -0.266 N 
ATOM      2  H   UNL     1       8.492  -0.427  25.342  0.00  0.00    +0.156 HD
ATOM      3  C   UNL     1       8.043  -0.947  23.427  0.00  0.00    +0.310 C 
ATOM      4  N   UNL     1       7.255  -1.992  23.889  0.00  0.00    -0.236 N 
ATOM      5  H   UNL     1       6.760  -1.842  24.753  0.00  0.00    +0.159 HD
ATOM      6  C   UNL     1       6.939  -3.098  23.115  0.00  0.00    +0.253 C 
ATOM      7  O   UNL     1       7.428  -3.335  22.015  0.00  0.00    -0.270 OA
ATOM      8  O   UNL     1       8.466  -0.845  22.284  0.00  0.00    -0.252 OA
ENDROOT
BRANCH   6   9
ATOM      9  C   UNL     1       6.007  -4.136  23.657  0.00  0.00    +0.058 A 
ATOM     10  C   UNL     1       6.291  -5.067  24.668  0.00  0.00    +0.056 A 
ATOM     11 CL   UNL     1       7.828  -5.177  25.447  0.00  0.00    -0.083 Cl
ATOM     12  C   UNL     1       5.295  -5.950  25.119  0.00  0.00    +0.062 A 
ATOM     13  C   UNL     1       4.020  -5.911  24.563  0.00  0.00    +0.160 A 
ATOM     14  F   UNL     1       3.081  -6.756  25.007  0.00  0.00    -0.202 F 
ATOM     15  C   UNL     1       3.726  -5.003  23.561  0.00  0.00    +0.159 A 
ATOM     16  F   UNL     1       2.500  -4.960  23.024  0.00  0.00    -0.202 F 
ATOM     17  C   UNL     1       4.704  -4.121  23.111  0.00  0.00    +0.055 A 
ENDBRANCH   6   9
BRANCH   1  21
ATOM     18  C   UNL     1      10.699   3.395  23.608  0.00  0.00    +0.062 A 
ATOM     19  C   UNL     1       9.310   3.515  23.772  0.00  0.00    +0.062 A 
ATOM     20  C   UNL     1       8.516   2.374  23.963  0.00  0.00    +0.152 A 
ATOM     21  C   UNL     1       9.137   1.122  24.147  0.00  0.00    +0.077 A 
ATOM     22  C   UNL     1      10.534   1.020  24.051  0.00  0.00    +0.028 A 
ATOM     23  C   UNL     1      11.308   2.144  23.755  0.00  0.00    +0.017 A 
BRANCH  18  24
ATOM     24  C   UNL     1      11.557   4.564  23.288  0.00  0.00    +0.337 C 
ATOM     25  O   UNL     1      12.775   4.522  23.312  0.00  0.00    -0.245 OA
BRANCH  24  26
ATOM     26  O   UNL     1      10.864   5.659  22.906  0.00  0.00    -0.477 OA
ATOM     27  H   UNL     1      11.084   6.488  23.369  0.00  0.00    +0.295 HD
ENDBRANCH  24  26
ENDBRANCH  18  24
BRANCH  20  28
ATOM     28  O   UNL     1       7.152   2.372  24.059  0.00  0.00    -0.404 OA
BRANCH  28  29
ATOM     29  C   UNL     1       6.363   2.579  22.895  0.00  0.00    +0.575 C 
ATOM     30  F   UNL     1       6.867   1.867  21.869  0.00  0.00    -0.133 F 
ATOM     31  F   UNL     1       6.427   3.891  22.581  0.00  0.00    -0.133 F 
ATOM     32  F   UNL     1       5.060   2.263  23.061  0.00  0.00    -0.133 F 
ENDBRANCH  28  29
ENDBRANCH  20  28
ENDBRANCH   1  21
TORSDOF 6
ENDMDL
MODEL 8
REMARK VINA RESULT:      -7.1      3.784      9.690
REMARK  Name = 
REMARK  6 active torsions:
REMARK  status: ('A' for Active; 'I' for Inactive)
REMARK    1  A    between atoms: O_1  and  C_2
REMARK    2  A    between atoms: C_2  and  C_4
REMARK    3  A    between atoms: C_7  and  N_8
REMARK    4  A    between atoms: C_12  and  C_14
REMARK    5  A    between atoms: C_23  and  O_24
REMARK    6  A    between atoms: O_24  and  C_25
REMARK                            x       y       z     vdW  Elec       q    Type
REMARK                         _______ _______ _______ _____ _____    ______ ____
ROOT
ATOM      1  N   UNL     1       8.451   0.577  23.893  0.00  0.00    -0.266 N 
ATOM      2  H   UNL     1       7.691   0.611  24.558  0.00  0.00    +0.156 HD
ATOM      3  C   UNL     1       9.092  -0.657  23.804  0.00  0.00    +0.310 C 
ATOM      4  N   UNL     1       8.209  -1.719  23.934  0.00  0.00    -0.236 N 
ATOM      5  H   UNL     1       7.232  -1.521  23.787  0.00  0.00    +0.159 HD
ATOM      6  C   UNL     1       8.624  -3.041  24.008  0.00  0.00    +0.253 C 
ATOM      7  O   UNL     1       9.794  -3.394  24.111  0.00  0.00    -0.270 OA
ATOM      8  O   UNL     1      10.302  -0.769  23.659  0.00  0.00    -0.252 OA
ENDROOT
BRANCH   6   9
ATOM      9  C   UNL     1       7.602  -4.133  24.052  0.00  0.00    +0.058 A 
ATOM     10  C   UNL     1       6.875  -4.551  25.178  0.00  0.00    +0.056 A 
ATOM     11 CL   UNL     1       7.081  -3.861  26.747  0.00  0.00    -0.083 Cl
ATOM     12  C   UNL     1       5.901  -5.558  25.058  0.00  0.00    +0.062 A 
ATOM     13  C   UNL     1       5.653  -6.150  23.824  0.00  0.00    +0.160 A 
ATOM     14  F   UNL     1       4.718  -7.104  23.726  0.00  0.00    -0.202 F 
ATOM     15  C   UNL     1       6.365  -5.752  22.706  0.00  0.00    +0.159 A 
ATOM     16  F   UNL     1       6.128  -6.318  21.515  0.00  0.00    -0.202 F 
ATOM     17  C   UNL     1       7.328  -4.754  22.812  0.00  0.00    +0.055 A 
ENDBRANCH   6   9
BRANCH   1  21
ATOM     18  C   UNL     1      10.639   4.191  23.586  0.00  0.00    +0.062 A 
ATOM     19  C   UNL     1       9.239   4.215  23.680  0.00  0.00    +0.062 A 
ATOM     20  C   UNL     1       8.507   3.018  23.699  0.00  0.00    +0.152 A 
ATOM     21  C   UNL     1       9.193   1.790  23.785  0.00  0.00    +0.077 A 
ATOM     22  C   UNL     1      10.597   1.776  23.762  0.00  0.00    +0.028 A 
ATOM     23  C   UNL     1      11.315   2.968  23.635  0.00  0.00    +0.017 A 
BRANCH  18  24
ATOM     24  C   UNL     1      11.439   5.434  23.447  0.00  0.00    +0.337 C 
ATOM     25  O   UNL     1      11.378   6.359  24.239  0.00  0.00    -0.245 OA
BRANCH  24  26
ATOM     26  O   UNL     1      12.290   5.418  22.397  0.00  0.00    -0.477 OA
ATOM     27  H   UNL     1      12.237   6.180  21.791  0.00  0.00    +0.295 HD
ENDBRANCH  24  26
ENDBRANCH  18  24
BRANCH  20  28
ATOM     28  O   UNL     1       7.142   2.929  23.713  0.00  0.00    -0.404 OA
BRANCH  28  29
ATOM     29  C   UNL     1       6.405   3.228  22.535  0.00  0.00    +0.575 C 
ATOM     30  F   UNL     1       5.204   2.618  22.580  0.00  0.00    -0.133 F 
ATOM     31  F   UNL     1       7.095   2.742  21.481  0.00  0.00    -0.133 F 
ATOM     32  F   UNL     1       6.226   4.551  22.330  0.00  0.00    -0.133 F 
ENDBRANCH  28  29
ENDBRANCH  20  28
ENDBRANCH   1  21
TORSDOF 6
ENDMDL
MODEL 9
REMARK VINA RESULT:      -7.0      3.809      9.454
REMARK  Name = 
REMARK  6 active torsions:
REMARK  status: ('A' for Active; 'I' for Inactive)
REMARK    1  A    between atoms: O_1  and  C_2
REMARK    2  A    between atoms: C_2  and  C_4
REMARK    3  A    between atoms: C_7  and  N_8
REMARK    4  A    between atoms: C_12  and  C_14
REMARK    5  A    between atoms: C_23  and  O_24
REMARK    6  A    between atoms: O_24  and  C_25
REMARK                            x       y       z     vdW  Elec       q    Type
REMARK                         _______ _______ _______ _____ _____    ______ ____
ROOT
ATOM      1  N   UNL     1       8.255   0.057  24.080  0.00  0.00    -0.266 N 
ATOM      2  H   UNL     1       7.586   0.149  24.832  0.00  0.00    +0.156 HD
ATOM      3  C   UNL     1       8.760  -1.230  23.904  0.00  0.00    +0.310 C 
ATOM      4  N   UNL     1       7.801  -2.207  24.129  0.00  0.00    -0.236 N 
ATOM      5  H   UNL     1       6.837  -1.915  24.102  0.00  0.00    +0.159 HD
ATOM      6  C   UNL     1       8.094  -3.563  24.141  0.00  0.00    +0.253 C 
ATOM      7  O   UNL     1       9.229  -4.026  24.101  0.00  0.00    -0.270 OA
ATOM      8  O   UNL     1       9.928  -1.452  23.615  0.00  0.00    -0.252 OA
ENDROOT
BRANCH   6   9
ATOM      9  C   UNL     1       6.984  -4.555  24.298  0.00  0.00    +0.058 A 
ATOM     10  C   UNL     1       6.201  -5.101  23.270  0.00  0.00    +0.056 A 
ATOM     11 CL   UNL     1       6.388  -4.670  21.608  0.00  0.00    -0.083 Cl
ATOM     12  C   UNL     1       5.226  -6.070  23.560  0.00  0.00    +0.062 A 
ATOM     13  C   UNL     1       5.027  -6.494  24.871  0.00  0.00    +0.160 A 
ATOM     14  F   UNL     1       4.097  -7.423  25.130  0.00  0.00    -0.202 F 
ATOM     15  C   UNL     1       5.788  -5.961  25.897  0.00  0.00    +0.159 A 
ATOM     16  F   UNL     1       5.602  -6.366  27.159  0.00  0.00    -0.202 F 
ATOM     17  C   UNL     1       6.758  -5.004  25.619  0.00  0.00    +0.055 A 
ENDBRANCH   6   9
BRANCH   1  21
ATOM     18  C   UNL     1      10.723   3.457  23.542  0.00  0.00    +0.062 A 
ATOM     19  C   UNL     1       9.327   3.591  23.565  0.00  0.00    +0.062 A 
ATOM     20  C   UNL     1       8.506   2.457  23.661  0.00  0.00    +0.152 A 
ATOM     21  C   UNL     1       9.091   1.197  23.895  0.00  0.00    +0.077 A 
ATOM     22  C   UNL     1      10.490   1.079  23.942  0.00  0.00    +0.028 A 
ATOM     23  C   UNL     1      11.301   2.198  23.739  0.00  0.00    +0.017 A 
BRANCH  18  24
ATOM     24  C   UNL     1      11.622   4.619  23.325  0.00  0.00    +0.337 C 
ATOM     25  O   UNL     1      12.838   4.538  23.368  0.00  0.00    -0.245 OA
BRANCH  24  26
ATOM     26  O   UNL     1      10.969   5.760  23.012  0.00  0.00    -0.477 OA
ATOM     27  H   UNL     1      10.006   5.758  23.161  0.00  0.00    +0.295 HD
ENDBRANCH  24  26
ENDBRANCH  18  24
BRANCH  20  28
ATOM     28  O   UNL     1       7.138   2.469  23.616  0.00  0.00    -0.404 OA
BRANCH  28  29
ATOM     29  C   UNL     1       6.476   2.770  22.395  0.00  0.00    +0.575 C 
ATOM     30  F   UNL     1       7.154   2.231  21.363  0.00  0.00    -0.133 F 
ATOM     31  F   UNL     1       6.468   4.112  22.249  0.00  0.00    -0.133 F 
ATOM     32  F   UNL     1       5.194   2.348  22.357  0.00  0.00    -0.133 F 
ENDBRANCH  28  29
ENDBRANCH  20  28
ENDBRANCH   1  21
TORSDOF 6
ENDMDL
