MODEL 1
REMARK VINA RESULT:      -7.2      0.000      0.000
REMARK  Name = 
REMARK  11 active torsions:
REMARK  status: ('A' for Active; 'I' for Inactive)
REMARK    1  A    between atoms: C_1  and  C_2
REMARK    2  A    between atoms: C_2  and  N_3
REMARK    3  A    between atoms: N_3  and  C_4
REMARK    4  A    between atoms: N_3  and  S_10
REMARK    5  A    between atoms: S_10  and  C_13
REMARK    6  A    between atoms: C_15  and  C_16
REMARK    7  A    between atoms: C_17  and  N_18
REMARK    8  A    between atoms: C_19  and  C_21
REMARK    9  A    between atoms: C_21  and  C_22
REMARK   10  A    between atoms: C_21  and  O_23
REMARK   11  A    between atoms: C_21  and  C_24
REMARK                            x       y       z     vdW  Elec       q    Type
REMARK                         _______ _______ _______ _____ _____    ______ ____
ROOT
ATOM      1  C   UNL     1       8.136  -3.489  25.726  0.00  0.00    +0.109 A 
ATOM      2  C   UNL     1       9.077  -3.493  24.688  0.00  0.00    +0.030 A 
ATOM      3  C   UNL     1       9.516  -2.281  24.142  0.00  0.00    +0.025 A 
ATOM      4  C   UNL     1       9.022  -1.071  24.636  0.00  0.00    +0.037 A 
ATOM      5  C   UNL     1       8.074  -1.071  25.674  0.00  0.00    -0.027 A 
ATOM      6  C   UNL     1       7.352   0.174  26.101  0.00  0.00    +0.046 C 
ATOM      7  C   UNL     1       7.691  -2.283  26.263  0.00  0.00    +0.034 A 
ENDROOT
BRANCH   4   8
ATOM      8  N   UNL     1       9.515   0.154  24.144  0.00  0.00    -0.283 N 
ATOM      9  H   UNL     1       9.801   0.845  24.835  0.00  0.00    +0.155 HD
ATOM     10  C   UNL     1       8.999   0.732  22.988  0.00  0.00    +0.258 C 
ATOM     11  O   UNL     1       8.180   0.200  22.242  0.00  0.00    -0.272 OA
BRANCH  10  12
ATOM     12  C   UNL     1       9.532   2.154  22.758  0.00  0.00    +0.234 C 
ATOM     13  C   UNL     1      10.647   2.490  23.754  0.00  0.00    +0.061 C 
BRANCH  12  14
ATOM     14  C   UNL     1       8.326   3.106  22.927  0.00  0.00    +0.427 C 
ATOM     15  F   UNL     1       8.729   4.361  23.245  0.00  0.00    -0.167 F 
ATOM     16  F   UNL     1       7.502   2.702  23.926  0.00  0.00    -0.167 F 
ATOM     17  F   UNL     1       7.564   3.216  21.815  0.00  0.00    -0.167 F 
ENDBRANCH  12  14
BRANCH  12  18
ATOM     18  O   UNL     1      10.114   2.206  21.424  0.00  0.00    -0.373 OA
ATOM     19  H   UNL     1      10.397   3.121  21.250  0.00  0.00    +0.211 HD
ENDBRANCH  12  18
ENDBRANCH  10  12
ENDBRANCH   4   8
BRANCH   1  20
ATOM     20  S   UNL     1       7.488  -5.022  26.371  0.00  0.00    +0.075 S 
ATOM     21  O   UNL     1       8.390  -6.069  25.919  0.00  0.00    -0.150 OA
ATOM     22  O   UNL     1       7.238  -4.830  27.784  0.00  0.00    -0.150 OA
BRANCH  20  23
ATOM     23  N   UNL     1       6.000  -5.213  25.547  0.00  0.00    -0.203 N 
BRANCH  23  24
ATOM     24  C   UNL     1       5.894  -4.753  24.190  0.00  0.00    +0.051 A 
ATOM     25  C   UNL     1       6.523  -5.519  23.201  0.00  0.00    +0.025 A 
ATOM     26  C   UNL     1       6.742  -4.985  21.930  0.00  0.00    +0.002 A 
ATOM     27  C   UNL     1       6.317  -3.690  21.637  0.00  0.00    +0.000 A 
ATOM     28  C   UNL     1       5.624  -2.951  22.599  0.00  0.00    +0.002 A 
ATOM     29  C   UNL     1       5.403  -3.483  23.873  0.00  0.00    +0.025 A 
ENDBRANCH  23  24
BRANCH  23  31
ATOM     30  C   UNL     1       3.670  -6.159  25.821  0.00  0.00    +0.026 C 
ATOM     31  C   UNL     1       5.172  -6.384  25.951  0.00  0.00    +0.128 C 
ENDBRANCH  23  31
ENDBRANCH  20  23
ENDBRANCH   1  20
TORSDOF 8
ENDMDL
MODEL 2
REMARK VINA RESULT:      -7.0      2.408      3.520
REMARK  Name = 
REMARK  11 active torsions:
REMARK  status: ('A' for Active; 'I' for Inactive)
REMARK    1  A    between atoms: C_1  and  C_2
REMARK    2  A    between atoms: C_2  and  N_3
REMARK    3  A    between atoms: N_3  and  C_4
REMARK    4  A    between atoms: N_3  and  S_10
REMARK    5  A    between atoms: S_10  and  C_13
REMARK    6  A    between atoms: C_15  and  C_16
REMARK    7  A    between atoms: C_17  and  N_18
REMARK    8  A    between atoms: C_19  and  C_21
REMARK    9  A    between atoms: C_21  and  C_22
REMARK   10  A    between atoms: C_21  and  O_23
REMARK   11  A    between atoms: C_21  and  C_24
REMARK                            x       y       z     vdW  Elec       q    Type
REMARK                         _______ _______ _______ _____ _____    ______ ____
ROOT
ATOM      1  C   UNL     1       6.648  -3.090  22.934  0.00  0.00    +0.109 A 
ATOM      2  C   UNL     1       5.998  -2.119  23.707  0.00  0.00    +0.030 A 
ATOM      3  C   UNL     1       6.666  -0.935  24.043  0.00  0.00    +0.025 A 
ATOM      4  C   UNL     1       7.975  -0.721  23.604  0.00  0.00    +0.037 A 
ATOM      5  C   UNL     1       8.625  -1.699  22.834  0.00  0.00    -0.027 A 
ATOM      6  C   UNL     1      10.090  -1.623  22.512  0.00  0.00    +0.046 C 
ATOM      7  C   UNL     1       7.929  -2.850  22.442  0.00  0.00    +0.034 A 
ENDROOT
BRANCH   4   8
ATOM      8  N   UNL     1       8.626   0.500  23.875  0.00  0.00    -0.283 N 
ATOM      9  H   UNL     1       8.827   0.705  24.852  0.00  0.00    +0.155 HD
ATOM     10  C   UNL     1       8.363   1.644  23.128  0.00  0.00    +0.258 C 
ATOM     11  O   UNL     1       7.659   1.679  22.122  0.00  0.00    -0.272 OA
BRANCH  10  12
ATOM     12  C   UNL     1       9.019   2.896  23.728  0.00  0.00    +0.234 C 
ATOM     13  C   UNL     1       8.314   4.169  23.250  0.00  0.00    +0.061 C 
BRANCH  12  14
ATOM     14  C   UNL     1      10.498   2.873  23.278  0.00  0.00    +0.427 C 
ATOM     15  F   UNL     1      11.255   2.114  24.110  0.00  0.00    -0.167 F 
ATOM     16  F   UNL     1      11.046   4.114  23.286  0.00  0.00    -0.167 F 
ATOM     17  F   UNL     1      10.677   2.375  22.034  0.00  0.00    -0.167 F 
ENDBRANCH  12  14
BRANCH  12  18
ATOM     18  O   UNL     1       8.865   2.834  25.175  0.00  0.00    -0.373 OA
ATOM     19  H   UNL     1       9.357   3.579  25.566  0.00  0.00    +0.211 HD
ENDBRANCH  12  18
ENDBRANCH  10  12
ENDBRANCH   4   8
BRANCH   1  20
ATOM     20  S   UNL     1       5.854  -4.648  22.575  0.00  0.00    +0.075 S 
ATOM     21  O   UNL     1       4.461  -4.340  22.295  0.00  0.00    -0.150 OA
ATOM     22  O   UNL     1       6.665  -5.335  21.593  0.00  0.00    -0.150 OA
BRANCH  20  23
ATOM     23  N   UNL     1       5.922  -5.490  24.064  0.00  0.00    -0.203 N 
BRANCH  23  24
ATOM     24  C   UNL     1       7.061  -5.299  24.918  0.00  0.00    +0.051 A 
ATOM     25  C   UNL     1       6.850  -4.627  26.128  0.00  0.00    +0.025 A 
ATOM     26  C   UNL     1       7.934  -4.123  26.851  0.00  0.00    +0.002 A 
ATOM     27  C   UNL     1       9.231  -4.307  26.376  0.00  0.00    +0.000 A 
ATOM     28  C   UNL     1       9.447  -5.041  25.208  0.00  0.00    +0.002 A 
ATOM     29  C   UNL     1       8.365  -5.547  24.482  0.00  0.00    +0.025 A 
ENDBRANCH  23  24
BRANCH  23  31
ATOM     30  C   UNL     1       4.153  -7.234  24.544  0.00  0.00    +0.026 C 
ATOM     31  C   UNL     1       4.612  -5.790  24.708  0.00  0.00    +0.128 C 
ENDBRANCH  23  31
ENDBRANCH  20  23
ENDBRANCH   1  20
TORSDOF 8
ENDMDL
MODEL 3
REMARK VINA RESULT:      -6.9      1.325      1.965
REMARK  Name = 
REMARK  11 active torsions:
REMARK  status: ('A' for Active; 'I' for Inactive)
REMARK    1  A    between atoms: C_1  and  C_2
REMARK    2  A    between atoms: C_2  and  N_3
REMARK    3  A    between atoms: N_3  and  C_4
REMARK    4  A    between atoms: N_3  and  S_10
REMARK    5  A    between atoms: S_10  and  C_13
REMARK    6  A    between atoms: C_15  and  C_16
REMARK    7  A    between atoms: C_17  and  N_18
REMARK    8  A    between atoms: C_19  and  C_21
REMARK    9  A    between atoms: C_21  and  C_22
REMARK   10  A    between atoms: C_21  and  O_23
REMARK   11  A    between atoms: C_21  and  C_24
REMARK                            x       y       z     vdW  Elec       q    Type
REMARK                         _______ _______ _______ _____ _____    ______ ____
ROOT
ATOM      1  C   UNL     1       8.758  -3.058  25.211  0.00  0.00    +0.109 A 
ATOM      2  C   UNL     1       8.590  -2.032  26.151  0.00  0.00    +0.030 A 
ATOM      3  C   UNL     1       8.913  -0.714  25.807  0.00  0.00    +0.025 A 
ATOM      4  C   UNL     1       9.396  -0.422  24.529  0.00  0.00    +0.037 A 
ATOM      5  C   UNL     1       9.567  -1.453  23.591  0.00  0.00    -0.027 A 
ATOM      6  C   UNL     1      10.274  -1.240  22.284  0.00  0.00    +0.046 C 
ATOM      7  C   UNL     1       9.177  -2.759  23.917  0.00  0.00    +0.034 A 
ENDROOT
BRANCH   4   8
ATOM      8  N   UNL     1       9.651   0.912  24.152  0.00  0.00    -0.283 N 
ATOM      9  H   UNL     1      10.347   1.417  24.697  0.00  0.00    +0.155 HD
ATOM     10  C   UNL     1       8.639   1.739  23.674  0.00  0.00    +0.258 C 
ATOM     11  O   UNL     1       7.492   1.373  23.428  0.00  0.00    -0.272 OA
BRANCH  10  12
ATOM     12  C   UNL     1       9.096   3.197  23.528  0.00  0.00    +0.234 C 
ATOM     13  C   UNL     1      10.625   3.294  23.511  0.00  0.00    +0.061 C 
BRANCH  12  14
ATOM     14  C   UNL     1       8.501   3.964  24.731  0.00  0.00    +0.427 C 
ATOM     15  F   UNL     1       7.319   4.547  24.408  0.00  0.00    -0.167 F 
ATOM     16  F   UNL     1       9.320   4.962  25.148  0.00  0.00    -0.167 F 
ATOM     17  F   UNL     1       8.262   3.181  25.807  0.00  0.00    -0.167 F 
ENDBRANCH  12  14
BRANCH  12  18
ATOM     18  O   UNL     1       8.617   3.692  22.246  0.00  0.00    -0.373 OA
ATOM     19  H   UNL     1       9.386   3.826  21.664  0.00  0.00    +0.211 HD
ENDBRANCH  12  18
ENDBRANCH  10  12
ENDBRANCH   4   8
BRANCH   1  20
ATOM     20  S   UNL     1       8.446  -4.758  25.656  0.00  0.00    +0.075 S 
ATOM     21  O   UNL     1       9.211  -5.570  24.724  0.00  0.00    -0.150 OA
ATOM     22  O   UNL     1       8.660  -4.882  27.082  0.00  0.00    -0.150 OA
BRANCH  20  23
ATOM     23  N   UNL     1       6.784  -4.972  25.305  0.00  0.00    -0.203 N 
BRANCH  23  24
ATOM     24  C   UNL     1       6.318  -4.717  23.970  0.00  0.00    +0.051 A 
ATOM     25  C   UNL     1       6.719  -5.610  22.969  0.00  0.00    +0.025 A 
ATOM     26  C   UNL     1       6.585  -5.264  21.623  0.00  0.00    +0.002 A 
ATOM     27  C   UNL     1       6.032  -4.033  21.273  0.00  0.00    +0.000 A 
ATOM     28  C   UNL     1       5.565  -3.173  22.269  0.00  0.00    +0.002 A 
ATOM     29  C   UNL     1       5.697  -3.516  23.618  0.00  0.00    +0.025 A 
ENDBRANCH  23  24
BRANCH  23  31
ATOM     30  C   UNL     1       5.160  -5.446  27.185  0.00  0.00    +0.026 C 
ATOM     31  C   UNL     1       6.074  -6.010  26.103  0.00  0.00    +0.128 C 
ENDBRANCH  23  31
ENDBRANCH  20  23
ENDBRANCH   1  20
TORSDOF 8
ENDMDL
MODEL 4
REMARK VINA RESULT:      -6.9      2.052      3.207
REMARK  Name = 
REMARK  11 active torsions:
REMARK  status: ('A' for Active; 'I' for Inactive)
REMARK    1  A    between atoms: C_1  and  C_2
REMARK    2  A    between atoms: C_2  and  N_3
REMARK    3  A    between atoms: N_3  and  C_4
REMARK    4  A    between atoms: N_3  and  S_10
REMARK    5  A    between atoms: S_10  and  C_13
REMARK    6  A    between atoms: C_15  and  C_16
REMARK    7  A    between atoms: C_17  and  N_18
REMARK    8  A    between atoms: C_19  and  C_21
REMARK    9  A    between atoms: C_21  and  C_22
REMARK   10  A    between atoms: C_21  and  O_23
REMARK   11  A    between atoms: C_21  and  C_24
REMARK                            x       y       z     vdW  Elec       q    Type
REMARK                         _______ _______ _______ _____ _____    ______ ____
ROOT
ATOM      1  C   UNL     1       6.803  -4.038  22.653  0.00  0.00    +0.109 A 
ATOM      2  C   UNL     1       5.986  -2.918  22.456  0.00  0.00    +0.030 A 
ATOM      3  C   UNL     1       6.495  -1.635  22.693  0.00  0.00    +0.025 A 
ATOM      4  C   UNL     1       7.816  -1.473  23.120  0.00  0.00    +0.037 A 
ATOM      5  C   UNL     1       8.630  -2.600  23.322  0.00  0.00    -0.027 A 
ATOM      6  C   UNL     1       9.978  -2.508  23.976  0.00  0.00    +0.046 C 
ATOM      7  C   UNL     1       8.138  -3.876  23.016  0.00  0.00    +0.034 A 
ENDROOT
BRANCH   4   8
ATOM      8  N   UNL     1       8.357  -0.183  23.288  0.00  0.00    -0.283 N 
ATOM      9  H   UNL     1       7.860   0.444  23.918  0.00  0.00    +0.155 HD
ATOM     10  C   UNL     1       8.974   0.488  22.237  0.00  0.00    +0.258 C 
ATOM     11  O   UNL     1       9.209   0.000  21.134  0.00  0.00    -0.272 OA
BRANCH  10  12
ATOM     12  C   UNL     1       9.296   1.949  22.587  0.00  0.00    +0.234 C 
ATOM     13  C   UNL     1       9.927   2.054  23.979  0.00  0.00    +0.061 C 
BRANCH  12  14
ATOM     14  C   UNL     1       7.958   2.719  22.519  0.00  0.00    +0.427 C 
ATOM     15  F   UNL     1       7.180   2.267  21.504  0.00  0.00    -0.167 F 
ATOM     16  F   UNL     1       8.150   4.044  22.294  0.00  0.00    -0.167 F 
ATOM     17  F   UNL     1       7.218   2.619  23.645  0.00  0.00    -0.167 F 
ENDBRANCH  12  14
BRANCH  12  18
ATOM     18  O   UNL     1      10.280   2.433  21.629  0.00  0.00    -0.373 OA
ATOM     19  H   UNL     1      10.897   3.023  22.098  0.00  0.00    +0.211 HD
ENDBRANCH  12  18
ENDBRANCH  10  12
ENDBRANCH   4   8
BRANCH   1  20
ATOM     20  S   UNL     1       6.149  -5.687  22.451  0.00  0.00    +0.075 S 
ATOM     21  O   UNL     1       5.154  -5.604  21.395  0.00  0.00    -0.150 OA
ATOM     22  O   UNL     1       7.273  -6.590  22.330  0.00  0.00    -0.150 OA
BRANCH  20  23
ATOM     23  N   UNL     1       5.333  -5.983  23.927  0.00  0.00    -0.203 N 
BRANCH  23  24
ATOM     24  C   UNL     1       5.761  -5.287  25.109  0.00  0.00    +0.051 A 
ATOM     25  C   UNL     1       5.049  -4.138  25.472  0.00  0.00    +0.025 A 
ATOM     26  C   UNL     1       5.585  -3.240  26.397  0.00  0.00    +0.002 A 
ATOM     27  C   UNL     1       6.826  -3.498  26.976  0.00  0.00    +0.000 A 
ATOM     28  C   UNL     1       7.505  -4.680  26.671  0.00  0.00    +0.002 A 
ATOM     29  C   UNL     1       6.970  -5.582  25.745  0.00  0.00    +0.025 A 
ENDBRANCH  23  24
BRANCH  23  31
ATOM     30  C   UNL     1       3.446  -7.424  24.798  0.00  0.00    +0.026 C 
ATOM     31  C   UNL     1       3.892  -6.346  23.818  0.00  0.00    +0.128 C 
ENDBRANCH  23  31
ENDBRANCH  20  23
ENDBRANCH   1  20
TORSDOF 8
ENDMDL
MODEL 5
REMARK VINA RESULT:      -6.6      4.128      8.173
REMARK  Name = 
REMARK  11 active torsions:
REMARK  status: ('A' for Active; 'I' for Inactive)
REMARK    1  A    between atoms: C_1  and  C_2
REMARK    2  A    between atoms: C_2  and  N_3
REMARK    3  A    between atoms: N_3  and  C_4
REMARK    4  A    between atoms: N_3  and  S_10
REMARK    5  A    between atoms: S_10  and  C_13
REMARK    6  A    between atoms: C_15  and  C_16
REMARK    7  A    between atoms: C_17  and  N_18
REMARK    8  A    between atoms: C_19  and  C_21
REMARK    9  A    between atoms: C_21  and  C_22
REMARK   10  A    between atoms: C_21  and  O_23
REMARK   11  A    between atoms: C_21  and  C_24
REMARK                            x       y       z     vdW  Elec       q    Type
REMARK                         _______ _______ _______ _____ _____    ______ ____
ROOT
ATOM      1  C   UNL     1       8.976   0.441  23.203  0.00  0.00    +0.109 A 
ATOM      2  C   UNL     1       9.139  -0.485  22.165  0.00  0.00    +0.030 A 
ATOM      3  C   UNL     1       8.555  -1.754  22.265  0.00  0.00    +0.025 A 
ATOM      4  C   UNL     1       7.806  -2.092  23.396  0.00  0.00    +0.037 A 
ATOM      5  C   UNL     1       7.649  -1.163  24.437  0.00  0.00    -0.027 A 
ATOM      6  C   UNL     1       7.042  -1.534  25.759  0.00  0.00    +0.046 C 
ATOM      7  C   UNL     1       8.177   0.128  24.300  0.00  0.00    +0.034 A 
ENDROOT
BRANCH   4   8
ATOM      8  N   UNL     1       7.154  -3.339  23.471  0.00  0.00    -0.283 N 
ATOM      9  H   UNL     1       7.737  -4.151  23.661  0.00  0.00    +0.155 HD
ATOM     10  C   UNL     1       6.064  -3.638  22.658  0.00  0.00    +0.258 C 
ATOM     11  O   UNL     1       5.507  -2.839  21.909  0.00  0.00    -0.272 OA
BRANCH  10  12
ATOM     12  C   UNL     1       5.650  -5.114  22.757  0.00  0.00    +0.234 C 
ATOM     13  C   UNL     1       5.916  -5.665  24.162  0.00  0.00    +0.061 C 
BRANCH  12  14
ATOM     14  C   UNL     1       6.475  -5.871  21.693  0.00  0.00    +0.427 C 
ATOM     15  F   UNL     1       5.873  -5.826  20.478  0.00  0.00    -0.167 F 
ATOM     16  F   UNL     1       6.613  -7.185  22.003  0.00  0.00    -0.167 F 
ATOM     17  F   UNL     1       7.722  -5.378  21.522  0.00  0.00    -0.167 F 
ENDBRANCH  12  14
BRANCH  12  18
ATOM     18  O   UNL     1       4.214  -5.193  22.527  0.00  0.00    -0.373 OA
ATOM     19  H   UNL     1       3.780  -4.511  23.070  0.00  0.00    +0.211 HD
ENDBRANCH  12  18
ENDBRANCH  10  12
ENDBRANCH   4   8
BRANCH   1  20
ATOM     20  S   UNL     1       9.791   2.028  23.142  0.00  0.00    +0.075 S 
ATOM     21  O   UNL     1      10.570   2.133  24.365  0.00  0.00    -0.150 OA
ATOM     22  O   UNL     1      10.435   2.138  21.850  0.00  0.00    -0.150 OA
BRANCH  20  23
ATOM     23  N   UNL     1       8.502   3.150  23.237  0.00  0.00    -0.203 N 
BRANCH  23  24
ATOM     24  C   UNL     1       8.699   4.374  23.964  0.00  0.00    +0.051 A 
ATOM     25  C   UNL     1       9.712   5.231  23.517  0.00  0.00    +0.025 A 
ATOM     26  C   UNL     1      10.177   6.260  24.338  0.00  0.00    +0.002 A 
ATOM     27  C   UNL     1       9.618   6.447  25.601  0.00  0.00    +0.000 A 
ATOM     28  C   UNL     1       8.558   5.640  26.019  0.00  0.00    +0.002 A 
ATOM     29  C   UNL     1       8.089   4.609  25.199  0.00  0.00    +0.025 A 
ENDBRANCH  23  24
BRANCH  23  31
ATOM     30  C   UNL     1       6.135   2.783  22.426  0.00  0.00    +0.026 C 
ATOM     31  C   UNL     1       7.566   3.173  22.078  0.00  0.00    +0.128 C 
ENDBRANCH  23  31
ENDBRANCH  20  23
ENDBRANCH   1  20
TORSDOF 8
ENDMDL
MODEL 6
REMARK VINA RESULT:      -6.6      1.361      2.543
REMARK  Name = 
REMARK  11 active torsions:
REMARK  status: ('A' for Active; 'I' for Inactive)
REMARK    1  A    between atoms: C_1  and  C_2
REMARK    2  A    between atoms: C_2  and  N_3
REMARK    3  A    between atoms: N_3  and  C_4
REMARK    4  A    between atoms: N_3  and  S_10
REMARK    5  A    between atoms: S_10  and  C_13
REMARK    6  A    between atoms: C_15  and  C_16
REMARK    7  A    between atoms: C_17  and  N_18
REMARK    8  A    between atoms: C_19  and  C_21
REMARK    9  A    between atoms: C_21  and  C_22
REMARK   10  A    between atoms: C_21  and  O_23
REMARK   11  A    between atoms: C_21  and  C_24
REMARK                            x       y       z     vdW  Elec       q    Type
REMARK                         _______ _______ _______ _____ _____    ______ ____
ROOT
ATOM      1  C   UNL     1       8.699  -3.221  25.025  0.00  0.00    +0.109 A 
ATOM      2  C   UNL     1       9.384  -2.970  23.829  0.00  0.00    +0.030 A 
ATOM      3  C   UNL     1       9.480  -1.660  23.345  0.00  0.00    +0.025 A 
ATOM      4  C   UNL     1       8.900  -0.606  24.056  0.00  0.00    +0.037 A 
ATOM      5  C   UNL     1       8.210  -0.862  25.252  0.00  0.00    -0.027 A 
ATOM      6  C   UNL     1       7.390   0.187  25.946  0.00  0.00    +0.046 C 
ATOM      7  C   UNL     1       8.176  -2.165  25.767  0.00  0.00    +0.034 A 
ENDROOT
BRANCH   4   8
ATOM      8  N   UNL     1       9.058   0.723  23.613  0.00  0.00    -0.283 N 
ATOM      9  H   UNL     1       8.672   0.951  22.699  0.00  0.00    +0.155 HD
ATOM     10  C   UNL     1      10.201   1.458  23.913  0.00  0.00    +0.258 C 
ATOM     11  O   UNL     1      11.099   1.083  24.663  0.00  0.00    -0.272 OA
BRANCH  10  12
ATOM     12  C   UNL     1      10.251   2.794  23.158  0.00  0.00    +0.234 C 
ATOM     13  C   UNL     1      11.600   3.490  23.363  0.00  0.00    +0.061 C 
BRANCH  12  14
ATOM     14  C   UNL     1       9.090   3.651  23.710  0.00  0.00    +0.427 C 
ATOM     15  F   UNL     1       9.394   4.973  23.679  0.00  0.00    -0.167 F 
ATOM     16  F   UNL     1       8.814   3.352  25.005  0.00  0.00    -0.167 F 
ATOM     17  F   UNL     1       7.935   3.506  23.022  0.00  0.00    -0.167 F 
ENDBRANCH  12  14
BRANCH  12  18
ATOM     18  O   UNL     1      10.122   2.511  21.736  0.00  0.00    -0.373 OA
ATOM     19  H   UNL     1       9.702   1.638  21.636  0.00  0.00    +0.211 HD
ENDBRANCH  12  18
ENDBRANCH  10  12
ENDBRANCH   4   8
BRANCH   1  20
ATOM     20  S   UNL     1       8.479  -4.892  25.612  0.00  0.00    +0.075 S 
ATOM     21  O   UNL     1       9.451  -5.706  24.901  0.00  0.00    -0.150 OA
ATOM     22  O   UNL     1       8.477  -4.850  27.059  0.00  0.00    -0.150 OA
BRANCH  20  23
ATOM     23  N   UNL     1       6.919  -5.318  25.050  0.00  0.00    -0.203 N 
BRANCH  23  24
ATOM     24  C   UNL     1       5.813  -5.270  25.967  0.00  0.00    +0.051 A 
ATOM     25  C   UNL     1       5.355  -6.487  26.483  0.00  0.00    +0.025 A 
ATOM     26  C   UNL     1       4.109  -6.562  27.110  0.00  0.00    +0.002 A 
ATOM     27  C   UNL     1       3.327  -5.415  27.239  0.00  0.00    +0.000 A 
ATOM     28  C   UNL     1       3.815  -4.186  26.790  0.00  0.00    +0.002 A 
ATOM     29  C   UNL     1       5.062  -4.108  26.162  0.00  0.00    +0.025 A 
ENDBRANCH  23  24
BRANCH  23  31
ATOM     30  C   UNL     1       5.803  -6.110  22.923  0.00  0.00    +0.026 C 
ATOM     31  C   UNL     1       6.642  -5.041  23.612  0.00  0.00    +0.128 C 
ENDBRANCH  23  31
ENDBRANCH  20  23
ENDBRANCH   1  20
TORSDOF 8
ENDMDL
MODEL 7
REMARK VINA RESULT:      -6.5      1.680      2.469
REMARK  Name = 
REMARK  11 active torsions:
REMARK  status: ('A' for Active; 'I' for Inactive)
REMARK    1  A    between atoms: C_1  and  C_2
REMARK    2  A    between atoms: C_2  and  N_3
REMARK    3  A    between atoms: N_3  and  C_4
REMARK    4  A    between atoms: N_3  and  S_10
REMARK    5  A    between atoms: S_10  and  C_13
REMARK    6  A    between atoms: C_15  and  C_16
REMARK    7  A    between atoms: C_17  and  N_18
REMARK    8  A    between atoms: C_19  and  C_21
REMARK    9  A    between atoms: C_21  and  C_22
REMARK   10  A    between atoms: C_21  and  O_23
REMARK   11  A    between atoms: C_21  and  C_24
REMARK                            x       y       z     vdW  Elec       q    Type
REMARK                         _______ _______ _______ _____ _____    ______ ____
ROOT
ATOM      1  C   UNL     1       8.804  -2.986  24.979  0.00  0.00    +0.109 A 
ATOM      2  C   UNL     1       8.668  -2.011  25.976  0.00  0.00    +0.030 A 
ATOM      3  C   UNL     1       8.935  -0.669  25.677  0.00  0.00    +0.025 A 
ATOM      4  C   UNL     1       9.331  -0.305  24.387  0.00  0.00    +0.037 A 
ATOM      5  C   UNL     1       9.472  -1.286  23.393  0.00  0.00    -0.027 A 
ATOM      6  C   UNL     1      10.092  -0.993  22.057  0.00  0.00    +0.046 C 
ATOM      7  C   UNL     1       9.135  -2.617  23.679  0.00  0.00    +0.034 A 
ENDROOT
BRANCH   4   8
ATOM      8  N   UNL     1       9.529   1.052  24.060  0.00  0.00    -0.283 N 
ATOM      9  H   UNL     1      10.253   1.547  24.577  0.00  0.00    +0.155 HD
ATOM     10  C   UNL     1       8.466   1.875  23.700  0.00  0.00    +0.258 C 
ATOM     11  O   UNL     1       7.312   1.493  23.521  0.00  0.00    -0.272 OA
BRANCH  10  12
ATOM     12  C   UNL     1       8.880   3.350  23.594  0.00  0.00    +0.234 C 
ATOM     13  C   UNL     1      10.404   3.489  23.530  0.00  0.00    +0.061 C 
BRANCH  12  14
ATOM     14  C   UNL     1       8.306   4.055  24.844  0.00  0.00    +0.427 C 
ATOM     15  F   UNL     1       9.139   5.030  25.287  0.00  0.00    -0.167 F 
ATOM     16  F   UNL     1       8.141   3.192  25.878  0.00  0.00    -0.167 F 
ATOM     17  F   UNL     1       7.107   4.642  24.632  0.00  0.00    -0.167 F 
ENDBRANCH  12  14
BRANCH  12  18
ATOM     18  O   UNL     1       8.344   3.878  22.348  0.00  0.00    -0.373 OA
ATOM     19  H   UNL     1       8.307   3.152  21.700  0.00  0.00    +0.211 HD
ENDBRANCH  12  18
ENDBRANCH  10  12
ENDBRANCH   4   8
BRANCH   1  20
ATOM     20  S   UNL     1       8.563  -4.714  25.360  0.00  0.00    +0.075 S 
ATOM     21  O   UNL     1       8.725  -5.434  24.108  0.00  0.00    -0.150 OA
ATOM     22  O   UNL     1       9.397  -5.029  26.501  0.00  0.00    -0.150 OA
BRANCH  20  23
ATOM     23  N   UNL     1       6.915  -4.804  25.814  0.00  0.00    -0.203 N 
BRANCH  23  24
ATOM     24  C   UNL     1       5.944  -5.195  24.830  0.00  0.00    +0.051 A 
ATOM     25  C   UNL     1       5.516  -4.216  23.926  0.00  0.00    +0.025 A 
ATOM     26  C   UNL     1       4.364  -4.417  23.164  0.00  0.00    +0.002 A 
ATOM     27  C   UNL     1       3.646  -5.606  23.289  0.00  0.00    +0.000 A 
ATOM     28  C   UNL     1       4.112  -6.613  24.137  0.00  0.00    +0.002 A 
ATOM     29  C   UNL     1       5.267  -6.415  24.901  0.00  0.00    +0.025 A 
ENDBRANCH  23  24
BRANCH  23  31
ATOM     30  C   UNL     1       5.568  -4.304  27.896  0.00  0.00    +0.026 C 
ATOM     31  C   UNL     1       6.645  -5.157  27.236  0.00  0.00    +0.128 C 
ENDBRANCH  23  31
ENDBRANCH  20  23
ENDBRANCH   1  20
TORSDOF 8
ENDMDL
MODEL 8
REMARK VINA RESULT:      -6.4      3.936      8.119
REMARK  Name = 
REMARK  11 active torsions:
REMARK  status: ('A' for Active; 'I' for Inactive)
REMARK    1  A    between atoms: C_1  and  C_2
REMARK    2  A    between atoms: C_2  and  N_3
REMARK    3  A    between atoms: N_3  and  C_4
REMARK    4  A    between atoms: N_3  and  S_10
REMARK    5  A    between atoms: S_10  and  C_13
REMARK    6  A    between atoms: C_15  and  C_16
REMARK    7  A    between atoms: C_17  and  N_18
REMARK    8  A    between atoms: C_19  and  C_21
REMARK    9  A    between atoms: C_21  and  C_22
REMARK   10  A    between atoms: C_21  and  O_23
REMARK   11  A    between atoms: C_21  and  C_24
REMARK                            x       y       z     vdW  Elec       q    Type
REMARK                         _______ _______ _______ _____ _____    ______ ____
ROOT
ATOM      1  C   UNL     1       9.514   0.452  23.027  0.00  0.00    +0.109 A 
ATOM      2  C   UNL     1       9.613  -0.364  21.892  0.00  0.00    +0.030 A 
ATOM      3  C   UNL     1       9.174  -1.692  21.950  0.00  0.00    +0.025 A 
ATOM      4  C   UNL     1       8.634  -2.200  23.134  0.00  0.00    +0.037 A 
ATOM      5  C   UNL     1       8.541  -1.381  24.271  0.00  0.00    -0.027 A 
ATOM      6  C   UNL     1       8.170  -1.922  25.622  0.00  0.00    +0.046 C 
ATOM      7  C   UNL     1       8.917  -0.033  24.188  0.00  0.00    +0.034 A 
ENDROOT
BRANCH   4   8
ATOM      8  N   UNL     1       8.121  -3.513  23.178  0.00  0.00    -0.283 N 
ATOM      9  H   UNL     1       8.801  -4.269  23.219  0.00  0.00    +0.155 HD
ATOM     10  C   UNL     1       6.966  -3.864  22.485  0.00  0.00    +0.258 C 
ATOM     11  O   UNL     1       6.238  -3.075  21.889  0.00  0.00    -0.272 OA
BRANCH  10  12
ATOM     12  C   UNL     1       6.714  -5.379  22.502  0.00  0.00    +0.234 C 
ATOM     13  C   UNL     1       6.067  -5.843  21.193  0.00  0.00    +0.061 C 
BRANCH  12  14
ATOM     14  C   UNL     1       5.792  -5.655  23.711  0.00  0.00    +0.427 C 
ATOM     15  F   UNL     1       6.497  -5.703  24.869  0.00  0.00    -0.167 F 
ATOM     16  F   UNL     1       5.157  -6.849  23.599  0.00  0.00    -0.167 F 
ATOM     17  F   UNL     1       4.833  -4.718  23.885  0.00  0.00    -0.167 F 
ENDBRANCH  12  14
BRANCH  12  18
ATOM     18  O   UNL     1       8.004  -6.048  22.607  0.00  0.00    -0.373 OA
ATOM     19  H   UNL     1       8.043  -6.742  21.925  0.00  0.00    +0.211 HD
ENDBRANCH  12  18
ENDBRANCH  10  12
ENDBRANCH   4   8
BRANCH   1  20
ATOM     20  S   UNL     1      10.156   2.118  23.008  0.00  0.00    +0.075 S 
ATOM     21  O   UNL     1      11.071   2.215  24.133  0.00  0.00    -0.150 OA
ATOM     22  O   UNL     1      10.615   2.392  21.663  0.00  0.00    -0.150 OA
BRANCH  20  23
ATOM     23  N   UNL     1       8.786   3.085  23.354  0.00  0.00    -0.203 N 
BRANCH  23  24
ATOM     24  C   UNL     1       8.938   4.217  24.225  0.00  0.00    +0.051 A 
ATOM     25  C   UNL     1       8.201   4.214  25.416  0.00  0.00    +0.025 A 
ATOM     26  C   UNL     1       8.042   5.392  26.148  0.00  0.00    +0.002 A 
ATOM     27  C   UNL     1       8.634   6.572  25.702  0.00  0.00    +0.000 A 
ATOM     28  C   UNL     1       9.429   6.561  24.554  0.00  0.00    +0.002 A 
ATOM     29  C   UNL     1       9.592   5.383  23.819  0.00  0.00    +0.025 A 
ENDBRANCH  23  24
BRANCH  23  31
ATOM     30  C   UNL     1       6.459   2.430  22.611  0.00  0.00    +0.026 C 
ATOM     31  C   UNL     1       7.753   3.165  22.283  0.00  0.00    +0.128 C 
ENDBRANCH  23  31
ENDBRANCH  20  23
ENDBRANCH   1  20
TORSDOF 8
ENDMDL
MODEL 9
REMARK VINA RESULT:      -6.4      3.871      7.602
REMARK  Name = 
REMARK  11 active torsions:
REMARK  status: ('A' for Active; 'I' for Inactive)
REMARK    1  A    between atoms: C_1  and  C_2
REMARK    2  A    between atoms: C_2  and  N_3
REMARK    3  A    between atoms: N_3  and  C_4
REMARK    4  A    between atoms: N_3  and  S_10
REMARK    5  A    between atoms: S_10  and  C_13
REMARK    6  A    between atoms: C_15  and  C_16
REMARK    7  A    between atoms: C_17  and  N_18
REMARK    8  A    between atoms: C_19  and  C_21
REMARK    9  A    between atoms: C_21  and  C_22
REMARK   10  A    between atoms: C_21  and  O_23
REMARK   11  A    between atoms: C_21  and  C_24
REMARK                            x       y       z     vdW  Elec       q    Type
REMARK                         _______ _______ _______ _____ _____    ______ ____
ROOT
ATOM      1  C   UNL     1       7.212   1.780  25.052  0.00  0.00    +0.109 A 
ATOM      2  C   UNL     1       6.449   1.166  24.050  0.00  0.00    +0.030 A 
ATOM      3  C   UNL     1       6.350  -0.231  24.009  0.00  0.00    +0.025 A 
ATOM      4  C   UNL     1       7.004  -1.008  24.968  0.00  0.00    +0.037 A 
ATOM      5  C   UNL     1       7.773  -0.388  25.968  0.00  0.00    -0.027 A 
ATOM      6  C   UNL     1       8.665  -1.166  26.892  0.00  0.00    +0.046 C 
ATOM      7  C   UNL     1       7.812   1.011  26.046  0.00  0.00    +0.034 A 
ENDROOT
BRANCH   4   8
ATOM      8  N   UNL     1       6.848  -2.408  24.978  0.00  0.00    -0.283 N 
ATOM      9  H   UNL     1       6.612  -2.837  25.870  0.00  0.00    +0.155 HD
ATOM     10  C   UNL     1       7.632  -3.232  24.176  0.00  0.00    +0.258 C 
ATOM     11  O   UNL     1       8.425  -2.835  23.325  0.00  0.00    -0.272 OA
BRANCH  10  12
ATOM     12  C   UNL     1       7.439  -4.720  24.503  0.00  0.00    +0.234 C 
ATOM     13  C   UNL     1       6.071  -4.967  25.149  0.00  0.00    +0.061 C 
BRANCH  12  14
ATOM     14  C   UNL     1       8.588  -5.110  25.460  0.00  0.00    +0.427 C 
ATOM     15  F   UNL     1       9.337  -4.031  25.797  0.00  0.00    -0.167 F 
ATOM     16  F   UNL     1       9.436  -6.003  24.890  0.00  0.00    -0.167 F 
ATOM     17  F   UNL     1       8.164  -5.661  26.619  0.00  0.00    -0.167 F 
ENDBRANCH  12  14
BRANCH  12  18
ATOM     18  O   UNL     1       7.465  -5.462  23.250  0.00  0.00    -0.373 OA
ATOM     19  H   UNL     1       7.688  -6.389  23.450  0.00  0.00    +0.211 HD
ENDBRANCH  12  18
ENDBRANCH  10  12
ENDBRANCH   4   8
BRANCH   1  20
ATOM     20  S   UNL     1       7.434   3.551  25.067  0.00  0.00    +0.075 S 
ATOM     21  O   UNL     1       6.382   4.101  24.228  0.00  0.00    -0.150 OA
ATOM     22  O   UNL     1       7.560   3.963  26.449  0.00  0.00    -0.150 OA
BRANCH  20  23
ATOM     23  N   UNL     1       8.927   3.780  24.263  0.00  0.00    -0.203 N 
BRANCH  23  24
ATOM     24  C   UNL     1       9.495   2.684  23.528  0.00  0.00    +0.051 A 
ATOM     25  C   UNL     1       8.988   2.439  22.247  0.00  0.00    +0.025 A 
ATOM     26  C   UNL     1       9.246   1.225  21.607  0.00  0.00    +0.002 A 
ATOM     27  C   UNL     1      10.029   0.260  22.239  0.00  0.00    +0.000 A 
ATOM     28  C   UNL     1      10.597   0.532  23.485  0.00  0.00    +0.002 A 
ATOM     29  C   UNL     1      10.340   1.747  24.128  0.00  0.00    +0.025 A 
ENDBRANCH  23  24
BRANCH  23  31
ATOM     30  C   UNL     1      10.681   5.544  23.804  0.00  0.00    +0.026 C 
ATOM     31  C   UNL     1       9.206   5.161  23.779  0.00  0.00    +0.128 C 
ENDBRANCH  23  31
ENDBRANCH  20  23
ENDBRANCH   1  20
TORSDOF 8
ENDMDL
