MODEL 1
REMARK VINA RESULT:      -7.0      0.000      0.000
REMARK  Name = 
REMARK  7 active torsions:
REMARK  status: ('A' for Active; 'I' for Inactive)
REMARK    1  A    between atoms: O_1  and  C_2
REMARK    2  A    between atoms: C_6  and  C_19
REMARK    3  A    between atoms: N_8  and  C_13
REMARK    4  A    between atoms: C_22  and  O_23
REMARK    5  A    between atoms: O_23  and  C_24
REMARK    6  A    between atoms: C_24  and  C_25
REMARK    7  A    between atoms: C_25  and  N_26
REMARK                            x       y       z     vdW  Elec       q    Type
REMARK                         _______ _______ _______ _____ _____    ______ ____
ROOT
ATOM      1  C   UNL     1       6.185  -5.433  21.363  0.00  0.00    +0.117 A 
ATOM      2  C   UNL     1       5.365  -6.102  22.264  0.00  0.00    +0.049 A 
ATOM      3  C   UNL     1       5.470  -5.850  23.642  0.00  0.00    -0.037 A 
ATOM      4  C   UNL     1       6.395  -4.896  24.117  0.00  0.00    -0.019 A 
ATOM      5  C   UNL     1       6.456  -4.480  25.619  0.00  0.00    +0.134 C 
ATOM      6  N   UNL     1       5.320  -5.086  26.395  0.00  0.00    -0.318 N 
ATOM      7  C   UNL     1       5.064  -6.486  26.029  0.00  0.00    +0.111 C 
ATOM      8  C   UNL     1       7.247  -4.271  23.177  0.00  0.00    +0.009 A 
ATOM      9  C   UNL     1       4.540  -6.557  24.596  0.00  0.00    +0.054 C 
ATOM     10  C   UNL     1       7.131  -4.522  21.808  0.00  0.00    +0.046 A 
ENDROOT
BRANCH   5  11
ATOM     11  C   UNL     1       6.554  -2.964  25.709  0.00  0.00    -0.022 A 
ATOM     12  C   UNL     1       5.701  -2.103  24.990  0.00  0.00    +0.009 A 
ATOM     13  C   UNL     1       5.843  -0.708  25.082  0.00  0.00    +0.046 A 
ATOM     14  C   UNL     1       6.827  -0.165  25.915  0.00  0.00    +0.121 A 
ATOM     15  C   UNL     1       7.645  -1.030  26.656  0.00  0.00    +0.046 A 
ATOM     16  C   UNL     1       7.524  -2.403  26.547  0.00  0.00    +0.009 A 
BRANCH  14  17
ATOM     17  O   UNL     1       6.930   1.216  25.954  0.00  0.00    -0.491 OA
BRANCH  17  18
ATOM     18  C   UNL     1       8.172   1.662  25.400  0.00  0.00    +0.244 C 
BRANCH  18  19
ATOM     19  C   UNL     1       8.305   1.556  23.880  0.00  0.00    +0.125 C 
BRANCH  19  20
ATOM     20  N   UNL     1       9.719   1.281  23.529  0.00  0.00    -0.299 NA
ATOM     21  C   UNL     1       9.935   1.174  22.084  0.00  0.00    +0.084 C 
ATOM     22  C   UNL     1       9.404  -0.129  21.489  0.00  0.00    +0.015 C 
ATOM     23  C   UNL     1       9.963  -1.351  22.211  0.00  0.00    +0.002 C 
ATOM     24  C   UNL     1       9.833  -1.226  23.726  0.00  0.00    +0.015 C 
ATOM     25  C   UNL     1      10.326   0.132  24.221  0.00  0.00    +0.084 C 
ENDBRANCH  19  20
ENDBRANCH  18  19
ENDBRANCH  17  18
ENDBRANCH  14  17
ENDBRANCH   5  11
BRANCH   6  26
ATOM     26  C   UNL     1       4.485  -4.455  27.312  0.00  0.00    +0.030 A 
ATOM     27  C   UNL     1       4.835  -4.257  28.657  0.00  0.00    +0.023 A 
ATOM     28  C   UNL     1       4.056  -3.504  29.548  0.00  0.00    +0.002 A 
ATOM     29  C   UNL     1       2.837  -2.988  29.142  0.00  0.00    +0.000 A 
ATOM     30  C   UNL     1       2.404  -3.240  27.847  0.00  0.00    +0.002 A 
ATOM     31  C   UNL     1       3.220  -3.952  26.952  0.00  0.00    +0.023 A 
ENDBRANCH   6  26
BRANCH   1  32
ATOM     32  O   UNL     1       6.024  -5.690  20.034  0.00  0.00    -0.507 OA
ATOM     33  H   UNL     1       6.852  -5.472  19.575  0.00  0.00    +0.292 HD
ENDBRANCH   1  32
TORSDOF 7
ENDMDL
MODEL 2
REMARK VINA RESULT:      -6.9      3.327      8.420
REMARK  Name = 
REMARK  7 active torsions:
REMARK  status: ('A' for Active; 'I' for Inactive)
REMARK    1  A    between atoms: O_1  and  C_2
REMARK    2  A    between atoms: C_6  and  C_19
REMARK    3  A    between atoms: N_8  and  C_13
REMARK    4  A    between atoms: C_22  and  O_23
REMARK    5  A    between atoms: O_23  and  C_24
REMARK    6  A    between atoms: C_24  and  C_25
REMARK    7  A    between atoms: C_25  and  N_26
REMARK                            x       y       z     vdW  Elec       q    Type
REMARK                         _______ _______ _______ _____ _____    ______ ____
ROOT
ATOM      1  C   UNL     1      11.764   6.367  24.811  0.00  0.00    +0.117 A 
ATOM      2  C   UNL     1      10.583   6.452  25.537  0.00  0.00    +0.049 A 
ATOM      3  C   UNL     1       9.464   5.687  25.166  0.00  0.00    -0.037 A 
ATOM      4  C   UNL     1       9.545   4.808  24.064  0.00  0.00    -0.019 A 
ATOM      5  C   UNL     1       8.381   3.838  23.694  0.00  0.00    +0.134 C 
ATOM      6  N   UNL     1       7.305   3.858  24.744  0.00  0.00    -0.318 N 
ATOM      7  C   UNL     1       7.007   5.215  25.225  0.00  0.00    +0.111 C 
ATOM      8  C   UNL     1      10.747   4.784  23.319  0.00  0.00    +0.009 A 
ATOM      9  C   UNL     1       8.207   5.764  25.994  0.00  0.00    +0.054 C 
ATOM     10  C   UNL     1      11.856   5.543  23.699  0.00  0.00    +0.046 A 
ENDROOT
BRANCH   5  11
ATOM     11  C   UNL     1       8.960   2.460  23.401  0.00  0.00    -0.022 A 
ATOM     12  C   UNL     1       8.834   1.834  22.145  0.00  0.00    +0.009 A 
ATOM     13  C   UNL     1       9.361   0.549  21.927  0.00  0.00    +0.046 A 
ATOM     14  C   UNL     1      10.039  -0.107  22.959  0.00  0.00    +0.121 A 
ATOM     15  C   UNL     1      10.193   0.541  24.193  0.00  0.00    +0.046 A 
ATOM     16  C   UNL     1       9.654   1.794  24.419  0.00  0.00    +0.009 A 
BRANCH  14  17
ATOM     17  O   UNL     1      10.524  -1.377  22.689  0.00  0.00    -0.491 OA
BRANCH  17  18
ATOM     18  C   UNL     1      10.193  -2.293  23.737  0.00  0.00    +0.244 C 
BRANCH  18  19
ATOM     19  C   UNL     1       8.782  -2.881  23.692  0.00  0.00    +0.125 C 
BRANCH  19  20
ATOM     20  N   UNL     1       8.856  -4.351  23.870  0.00  0.00    -0.299 NA
ATOM     21  C   UNL     1       7.634  -5.037  23.444  0.00  0.00    +0.084 C 
ATOM     22  C   UNL     1       6.469  -4.855  24.414  0.00  0.00    +0.015 C 
ATOM     23  C   UNL     1       6.847  -5.257  25.836  0.00  0.00    +0.002 C 
ATOM     24  C   UNL     1       8.165  -4.626  26.275  0.00  0.00    +0.015 C 
ATOM     25  C   UNL     1       9.251  -4.802  25.215  0.00  0.00    +0.084 C 
ENDBRANCH  19  20
ENDBRANCH  18  19
ENDBRANCH  17  18
ENDBRANCH  14  17
ENDBRANCH   5  11
BRANCH   6  26
ATOM     26  C   UNL     1       6.663   2.769  25.325  0.00  0.00    +0.030 A 
ATOM     27  C   UNL     1       5.838   1.892  24.604  0.00  0.00    +0.023 A 
ATOM     28  C   UNL     1       5.299   0.720  25.155  0.00  0.00    +0.002 A 
ATOM     29  C   UNL     1       5.500   0.425  26.493  0.00  0.00    +0.000 A 
ATOM     30  C   UNL     1       6.231   1.312  27.271  0.00  0.00    +0.002 A 
ATOM     31  C   UNL     1       6.806   2.456  26.691  0.00  0.00    +0.023 A 
ENDBRANCH   6  26
BRANCH   1  32
ATOM     32  O   UNL     1      12.830   7.108  25.230  0.00  0.00    -0.507 OA
ATOM     33  H   UNL     1      13.544   7.016  24.577  0.00  0.00    +0.292 HD
ENDBRANCH   1  32
TORSDOF 7
ENDMDL
MODEL 3
REMARK VINA RESULT:      -6.7      2.196      7.153
REMARK  Name = 
REMARK  7 active torsions:
REMARK  status: ('A' for Active; 'I' for Inactive)
REMARK    1  A    between atoms: O_1  and  C_2
REMARK    2  A    between atoms: C_6  and  C_19
REMARK    3  A    between atoms: N_8  and  C_13
REMARK    4  A    between atoms: C_22  and  O_23
REMARK    5  A    between atoms: O_23  and  C_24
REMARK    6  A    between atoms: C_24  and  C_25
REMARK    7  A    between atoms: C_25  and  N_26
REMARK                            x       y       z     vdW  Elec       q    Type
REMARK                         _______ _______ _______ _____ _____    ______ ____
ROOT
ATOM      1  C   UNL     1       9.025   2.983  23.346  0.00  0.00    +0.117 A 
ATOM      2  C   UNL     1       9.305   2.016  22.388  0.00  0.00    +0.049 A 
ATOM      3  C   UNL     1       9.261   0.652  22.722  0.00  0.00    -0.037 A 
ATOM      4  C   UNL     1       8.907   0.257  24.029  0.00  0.00    -0.019 A 
ATOM      5  C   UNL     1       8.709  -1.242  24.415  0.00  0.00    +0.134 C 
ATOM      6  N   UNL     1       8.773  -2.126  23.200  0.00  0.00    -0.318 N 
ATOM      7  C   UNL     1       9.845  -1.740  22.272  0.00  0.00    +0.111 C 
ATOM      8  C   UNL     1       8.676   1.268  24.990  0.00  0.00    +0.009 A 
ATOM      9  C   UNL     1       9.528  -0.380  21.654  0.00  0.00    +0.054 C 
ATOM     10  C   UNL     1       8.715   2.621  24.649  0.00  0.00    +0.046 A 
ENDROOT
BRANCH   5  11
ATOM     11  C   UNL     1       7.435  -1.377  25.236  0.00  0.00    -0.022 A 
ATOM     12  C   UNL     1       6.217  -0.779  24.856  0.00  0.00    +0.009 A 
ATOM     13  C   UNL     1       5.071  -0.908  25.658  0.00  0.00    +0.046 A 
ATOM     14  C   UNL     1       5.131  -1.658  26.837  0.00  0.00    +0.121 A 
ATOM     15  C   UNL     1       6.337  -2.282  27.187  0.00  0.00    +0.046 A 
ATOM     16  C   UNL     1       7.472  -2.136  26.412  0.00  0.00    +0.009 A 
BRANCH  14  17
ATOM     17  O   UNL     1       3.973  -1.738  27.595  0.00  0.00    -0.491 OA
BRANCH  17  18
ATOM     18  C   UNL     1       3.778  -3.058  28.110  0.00  0.00    +0.244 C 
BRANCH  18  19
ATOM     19  C   UNL     1       3.037  -4.033  27.194  0.00  0.00    +0.125 C 
BRANCH  19  20
ATOM     20  N   UNL     1       3.411  -5.423  27.551  0.00  0.00    -0.299 NA
ATOM     21  C   UNL     1       4.855  -5.656  27.491  0.00  0.00    +0.084 C 
ATOM     22  C   UNL     1       5.393  -5.748  26.064  0.00  0.00    +0.015 C 
ATOM     23  C   UNL     1       4.641  -6.789  25.240  0.00  0.00    +0.002 C 
ATOM     24  C   UNL     1       3.129  -6.624  25.358  0.00  0.00    +0.015 C 
ATOM     25  C   UNL     1       2.693  -6.475  26.814  0.00  0.00    +0.084 C 
ENDBRANCH  19  20
ENDBRANCH  18  19
ENDBRANCH  17  18
ENDBRANCH  14  17
ENDBRANCH   5  11
BRANCH   6  26
ATOM     26  C   UNL     1       7.909  -3.161  22.856  0.00  0.00    +0.030 A 
ATOM     27  C   UNL     1       6.808  -2.988  22.002  0.00  0.00    +0.023 A 
ATOM     28  C   UNL     1       6.018  -4.054  21.547  0.00  0.00    +0.002 A 
ATOM     29  C   UNL     1       6.251  -5.339  22.007  0.00  0.00    +0.000 A 
ATOM     30  C   UNL     1       7.269  -5.544  22.928  0.00  0.00    +0.002 A 
ATOM     31  C   UNL     1       8.084  -4.474  23.333  0.00  0.00    +0.023 A 
ENDBRANCH   6  26
BRANCH   1  32
ATOM     32  O   UNL     1       9.053   4.292  22.965  0.00  0.00    -0.507 OA
ATOM     33  H   UNL     1       9.821   4.718  23.380  0.00  0.00    +0.292 HD
ENDBRANCH   1  32
TORSDOF 7
ENDMDL
MODEL 4
REMARK VINA RESULT:      -6.6      3.061      6.032
REMARK  Name = 
REMARK  7 active torsions:
REMARK  status: ('A' for Active; 'I' for Inactive)
REMARK    1  A    between atoms: O_1  and  C_2
REMARK    2  A    between atoms: C_6  and  C_19
REMARK    3  A    between atoms: N_8  and  C_13
REMARK    4  A    between atoms: C_22  and  O_23
REMARK    5  A    between atoms: O_23  and  C_24
REMARK    6  A    between atoms: C_24  and  C_25
REMARK    7  A    between atoms: C_25  and  N_26
REMARK                            x       y       z     vdW  Elec       q    Type
REMARK                         _______ _______ _______ _____ _____    ______ ____
ROOT
ATOM      1  C   UNL     1       7.411  -4.969  27.006  0.00  0.00    +0.117 A 
ATOM      2  C   UNL     1       8.378  -4.774  26.027  0.00  0.00    +0.049 A 
ATOM      3  C   UNL     1       8.280  -3.692  25.137  0.00  0.00    -0.037 A 
ATOM      4  C   UNL     1       7.208  -2.780  25.250  0.00  0.00    -0.019 A 
ATOM      5  C   UNL     1       7.126  -1.489  24.380  0.00  0.00    +0.134 C 
ATOM      6  N   UNL     1       8.386  -1.292  23.583  0.00  0.00    -0.318 N 
ATOM      7  C   UNL     1       8.890  -2.543  22.998  0.00  0.00    +0.111 C 
ATOM      8  C   UNL     1       6.218  -3.037  26.226  0.00  0.00    +0.009 A 
ATOM      9  C   UNL     1       9.363  -3.477  24.110  0.00  0.00    +0.054 C 
ATOM     10  C   UNL     1       6.326  -4.111  27.111  0.00  0.00    +0.046 A 
ENDROOT
BRANCH   5  11
ATOM     11  C   UNL     1       6.745  -0.315  25.271  0.00  0.00    -0.022 A 
ATOM     12  C   UNL     1       7.398  -0.040  26.488  0.00  0.00    +0.009 A 
ATOM     13  C   UNL     1       6.996   1.039  27.293  0.00  0.00    +0.046 A 
ATOM     14  C   UNL     1       5.949   1.866  26.871  0.00  0.00    +0.121 A 
ATOM     15  C   UNL     1       5.331   1.607  25.640  0.00  0.00    +0.046 A 
ATOM     16  C   UNL     1       5.708   0.531  24.858  0.00  0.00    +0.009 A 
BRANCH  14  17
ATOM     17  O   UNL     1       5.587   2.906  27.713  0.00  0.00    -0.491 OA
BRANCH  17  18
ATOM     18  C   UNL     1       6.671   3.818  27.909  0.00  0.00    +0.244 C 
BRANCH  18  19
ATOM     19  C   UNL     1       6.804   4.935  26.873  0.00  0.00    +0.125 C 
BRANCH  19  20
ATOM     20  N   UNL     1       8.148   4.867  26.248  0.00  0.00    -0.299 NA
ATOM     21  C   UNL     1       8.592   6.158  25.717  0.00  0.00    +0.084 C 
ATOM     22  C   UNL     1       7.877   6.559  24.428  0.00  0.00    +0.015 C 
ATOM     23  C   UNL     1       7.978   5.471  23.363  0.00  0.00    +0.002 C 
ATOM     24  C   UNL     1       7.607   4.098  23.914  0.00  0.00    +0.015 C 
ATOM     25  C   UNL     1       8.318   3.813  25.236  0.00  0.00    +0.084 C 
ENDBRANCH  19  20
ENDBRANCH  18  19
ENDBRANCH  17  18
ENDBRANCH  14  17
ENDBRANCH   5  11
BRANCH   6  26
ATOM     26  C   UNL     1       9.119  -0.120  23.428  0.00  0.00    +0.030 A 
ATOM     27  C   UNL     1      10.111   0.289  24.333  0.00  0.00    +0.023 A 
ATOM     28  C   UNL     1      10.943   1.397  24.110  0.00  0.00    +0.002 A 
ATOM     29  C   UNL     1      10.749   2.198  22.997  0.00  0.00    +0.000 A 
ATOM     30  C   UNL     1       9.717   1.888  22.122  0.00  0.00    +0.002 A 
ATOM     31  C   UNL     1       8.927   0.746  22.334  0.00  0.00    +0.023 A 
ENDBRANCH   6  26
BRANCH   1  32
ATOM     32  O   UNL     1       7.568  -6.017  27.864  0.00  0.00    -0.507 OA
ATOM     33  H   UNL     1       8.518  -6.201  27.956  0.00  0.00    +0.292 HD
ENDBRANCH   1  32
TORSDOF 7
ENDMDL
MODEL 5
REMARK VINA RESULT:      -6.2      2.811      6.705
REMARK  Name = 
REMARK  7 active torsions:
REMARK  status: ('A' for Active; 'I' for Inactive)
REMARK    1  A    between atoms: O_1  and  C_2
REMARK    2  A    between atoms: C_6  and  C_19
REMARK    3  A    between atoms: N_8  and  C_13
REMARK    4  A    between atoms: C_22  and  O_23
REMARK    5  A    between atoms: O_23  and  C_24
REMARK    6  A    between atoms: C_24  and  C_25
REMARK    7  A    between atoms: C_25  and  N_26
REMARK                            x       y       z     vdW  Elec       q    Type
REMARK                         _______ _______ _______ _____ _____    ______ ____
ROOT
ATOM      1  C   UNL     1       8.945   3.154  23.206  0.00  0.00    +0.117 A 
ATOM      2  C   UNL     1       9.242   2.159  22.282  0.00  0.00    +0.049 A 
ATOM      3  C   UNL     1       9.224   0.807  22.663  0.00  0.00    -0.037 A 
ATOM      4  C   UNL     1       8.878   0.451  23.984  0.00  0.00    -0.019 A 
ATOM      5  C   UNL     1       8.708  -1.036  24.422  0.00  0.00    +0.134 C 
ATOM      6  N   UNL     1       8.787  -1.961  23.239  0.00  0.00    -0.318 N 
ATOM      7  C   UNL     1       9.851  -1.588  22.297  0.00  0.00    +0.111 C 
ATOM      8  C   UNL     1       8.630   1.491  24.909  0.00  0.00    +0.009 A 
ATOM      9  C   UNL     1       9.508  -0.257  21.632  0.00  0.00    +0.054 C 
ATOM     10  C   UNL     1       8.644   2.832  24.521  0.00  0.00    +0.046 A 
ENDROOT
BRANCH   5  11
ATOM     11  C   UNL     1       7.438  -1.166  25.250  0.00  0.00    -0.022 A 
ATOM     12  C   UNL     1       6.221  -0.562  24.876  0.00  0.00    +0.009 A 
ATOM     13  C   UNL     1       5.077  -0.687  25.684  0.00  0.00    +0.046 A 
ATOM     14  C   UNL     1       5.141  -1.437  26.863  0.00  0.00    +0.121 A 
ATOM     15  C   UNL     1       6.346  -2.065  27.207  0.00  0.00    +0.046 A 
ATOM     16  C   UNL     1       7.478  -1.924  26.427  0.00  0.00    +0.009 A 
BRANCH  14  17
ATOM     17  O   UNL     1       3.987  -1.511  27.627  0.00  0.00    -0.491 OA
BRANCH  17  18
ATOM     18  C   UNL     1       4.088  -0.703  28.803  0.00  0.00    +0.244 C 
BRANCH  18  19
ATOM     19  C   UNL     1       3.820   0.790  28.616  0.00  0.00    +0.125 C 
BRANCH  19  20
ATOM     20  N   UNL     1       4.731   1.567  29.492  0.00  0.00    -0.299 NA
ATOM     21  C   UNL     1       4.675   3.007  29.234  0.00  0.00    +0.084 C 
ATOM     22  C   UNL     1       5.373   3.416  27.938  0.00  0.00    +0.015 C 
ATOM     23  C   UNL     1       6.812   2.912  27.886  0.00  0.00    +0.002 C 
ATOM     24  C   UNL     1       6.909   1.431  28.239  0.00  0.00    +0.015 C 
ATOM     25  C   UNL     1       6.128   1.105  29.511  0.00  0.00    +0.084 C 
ENDBRANCH  19  20
ENDBRANCH  18  19
ENDBRANCH  17  18
ENDBRANCH  14  17
ENDBRANCH   5  11
BRANCH   6  26
ATOM     26  C   UNL     1       7.942  -3.023  22.933  0.00  0.00    +0.030 A 
ATOM     27  C   UNL     1       6.861  -2.911  22.045  0.00  0.00    +0.023 A 
ATOM     28  C   UNL     1       6.092  -4.009  21.631  0.00  0.00    +0.002 A 
ATOM     29  C   UNL     1       6.326  -5.263  22.168  0.00  0.00    +0.000 A 
ATOM     30  C   UNL     1       7.323  -5.406  23.123  0.00  0.00    +0.002 A 
ATOM     31  C   UNL     1       8.119  -4.306  23.488  0.00  0.00    +0.023 A 
ENDBRANCH   6  26
BRANCH   1  32
ATOM     32  O   UNL     1       8.948   4.449  22.778  0.00  0.00    -0.507 OA
ATOM     33  H   UNL     1       8.037   4.700  22.550  0.00  0.00    +0.292 HD
ENDBRANCH   1  32
TORSDOF 7
ENDMDL
MODEL 6
REMARK VINA RESULT:      -6.1      2.729      6.400
REMARK  Name = 
REMARK  7 active torsions:
REMARK  status: ('A' for Active; 'I' for Inactive)
REMARK    1  A    between atoms: O_1  and  C_2
REMARK    2  A    between atoms: C_6  and  C_19
REMARK    3  A    between atoms: N_8  and  C_13
REMARK    4  A    between atoms: C_22  and  O_23
REMARK    5  A    between atoms: O_23  and  C_24
REMARK    6  A    between atoms: C_24  and  C_25
REMARK    7  A    between atoms: C_25  and  N_26
REMARK                            x       y       z     vdW  Elec       q    Type
REMARK                         _______ _______ _______ _____ _____    ______ ____
ROOT
ATOM      1  C   UNL     1       9.186   1.951  22.324  0.00  0.00    +0.117 A 
ATOM      2  C   UNL     1       8.836   2.903  23.273  0.00  0.00    +0.049 A 
ATOM      3  C   UNL     1       7.795   2.650  24.182  0.00  0.00    -0.037 A 
ATOM      4  C   UNL     1       7.115   1.414  24.149  0.00  0.00    -0.019 A 
ATOM      5  C   UNL     1       6.048   1.028  25.220  0.00  0.00    +0.134 C 
ATOM      6  N   UNL     1       6.000   2.046  26.327  0.00  0.00    -0.318 N 
ATOM      7  C   UNL     1       6.080   3.428  25.831  0.00  0.00    +0.111 C 
ATOM      8  C   UNL     1       7.465   0.489  23.139  0.00  0.00    +0.009 A 
ATOM      9  C   UNL     1       7.461   3.681  25.231  0.00  0.00    +0.054 C 
ATOM     10  C   UNL     1       8.505   0.746  22.244  0.00  0.00    +0.046 A 
ENDROOT
BRANCH   5  11
ATOM     11  C   UNL     1       6.302  -0.401  25.679  0.00  0.00    -0.022 A 
ATOM     12  C   UNL     1       7.583  -0.871  26.030  0.00  0.00    +0.009 A 
ATOM     13  C   UNL     1       7.776  -2.207  26.423  0.00  0.00    +0.046 A 
ATOM     14  C   UNL     1       6.681  -3.074  26.490  0.00  0.00    +0.121 A 
ATOM     15  C   UNL     1       5.404  -2.586  26.177  0.00  0.00    +0.046 A 
ATOM     16  C   UNL     1       5.216  -1.280  25.765  0.00  0.00    +0.009 A 
BRANCH  14  17
ATOM     17  O   UNL     1       6.934  -4.383  26.870  0.00  0.00    -0.491 OA
BRANCH  17  18
ATOM     18  C   UNL     1       7.704  -5.072  25.880  0.00  0.00    +0.244 C 
BRANCH  18  19
ATOM     19  C   UNL     1       6.937  -5.556  24.650  0.00  0.00    +0.125 C 
BRANCH  19  20
ATOM     20  N   UNL     1       7.721  -5.250  23.429  0.00  0.00    -0.299 NA
ATOM     21  C   UNL     1       7.905  -3.812  23.218  0.00  0.00    +0.084 C 
ATOM     22  C   UNL     1       6.640  -3.107  22.731  0.00  0.00    +0.015 C 
ATOM     23  C   UNL     1       6.068  -3.769  21.481  0.00  0.00    +0.002 C 
ATOM     24  C   UNL     1       5.950  -5.282  21.642  0.00  0.00    +0.015 C 
ATOM     25  C   UNL     1       7.238  -5.889  22.195  0.00  0.00    +0.084 C 
ENDBRANCH  19  20
ENDBRANCH  18  19
ENDBRANCH  17  18
ENDBRANCH  14  17
ENDBRANCH   5  11
BRANCH   6  26
ATOM     26  C   UNL     1       5.972   1.811  27.697  0.00  0.00    +0.030 A 
ATOM     27  C   UNL     1       4.797   1.492  28.396  0.00  0.00    +0.023 A 
ATOM     28  C   UNL     1       4.786   1.123  29.750  0.00  0.00    +0.002 A 
ATOM     29  C   UNL     1       5.960   1.145  30.485  0.00  0.00    +0.000 A 
ATOM     30  C   UNL     1       7.132   1.546  29.860  0.00  0.00    +0.002 A 
ATOM     31  C   UNL     1       7.134   1.863  28.491  0.00  0.00    +0.023 A 
ENDBRANCH   6  26
BRANCH   1  32
ATOM     32  O   UNL     1      10.223   2.233  21.484  0.00  0.00    -0.507 OA
ATOM     33  H   UNL     1      11.011   1.758  21.796  0.00  0.00    +0.292 HD
ENDBRANCH   1  32
TORSDOF 7
ENDMDL
MODEL 7
REMARK VINA RESULT:      -6.0      2.502      6.914
REMARK  Name = 
REMARK  7 active torsions:
REMARK  status: ('A' for Active; 'I' for Inactive)
REMARK    1  A    between atoms: O_1  and  C_2
REMARK    2  A    between atoms: C_6  and  C_19
REMARK    3  A    between atoms: N_8  and  C_13
REMARK    4  A    between atoms: C_22  and  O_23
REMARK    5  A    between atoms: O_23  and  C_24
REMARK    6  A    between atoms: C_24  and  C_25
REMARK    7  A    between atoms: C_25  and  N_26
REMARK                            x       y       z     vdW  Elec       q    Type
REMARK                         _______ _______ _______ _____ _____    ______ ____
ROOT
ATOM      1  C   UNL     1      10.660   3.416  23.052  0.00  0.00    +0.117 A 
ATOM      2  C   UNL     1       9.638   3.814  23.904  0.00  0.00    +0.049 A 
ATOM      3  C   UNL     1       8.495   3.013  24.066  0.00  0.00    -0.037 A 
ATOM      4  C   UNL     1       8.392   1.784  23.381  0.00  0.00    -0.019 A 
ATOM      5  C   UNL     1       7.213   0.794  23.630  0.00  0.00    +0.134 C 
ATOM      6  N   UNL     1       6.357   1.250  24.780  0.00  0.00    -0.318 N 
ATOM      7  C   UNL     1       6.112   2.700  24.765  0.00  0.00    +0.111 C 
ATOM      8  C   UNL     1       9.429   1.434  22.485  0.00  0.00    +0.009 A 
ATOM      9  C   UNL     1       7.418   3.446  25.029  0.00  0.00    +0.054 C 
ATOM     10  C   UNL     1      10.564   2.232  22.334  0.00  0.00    +0.046 A 
ENDROOT
BRANCH   5  11
ATOM     11  C   UNL     1       7.770  -0.615  23.770  0.00  0.00    -0.022 A 
ATOM     12  C   UNL     1       7.206  -1.725  23.111  0.00  0.00    +0.009 A 
ATOM     13  C   UNL     1       7.737  -3.014  23.289  0.00  0.00    +0.046 A 
ATOM     14  C   UNL     1       8.853  -3.196  24.112  0.00  0.00    +0.121 A 
ATOM     15  C   UNL     1       9.431  -2.079  24.733  0.00  0.00    +0.046 A 
ATOM     16  C   UNL     1       8.895  -0.814  24.579  0.00  0.00    +0.009 A 
BRANCH  14  17
ATOM     17  O   UNL     1       9.324  -4.491  24.262  0.00  0.00    -0.491 OA
BRANCH  17  18
ATOM     18  C   UNL     1       9.429  -4.850  25.643  0.00  0.00    +0.244 C 
BRANCH  18  19
ATOM     19  C   UNL     1       8.233  -4.486  26.524  0.00  0.00    +0.125 C 
BRANCH  19  20
ATOM     20  N   UNL     1       7.309  -5.643  26.601  0.00  0.00    -0.299 NA
ATOM     21  C   UNL     1       6.331  -5.662  25.510  0.00  0.00    +0.084 C 
ATOM     22  C   UNL     1       5.230  -4.615  25.668  0.00  0.00    +0.015 C 
ATOM     23  C   UNL     1       4.534  -4.723  27.021  0.00  0.00    +0.002 C 
ATOM     24  C   UNL     1       5.534  -4.796  28.171  0.00  0.00    +0.015 C 
ATOM     25  C   UNL     1       6.632  -5.821  27.895  0.00  0.00    +0.084 C 
ENDBRANCH  19  20
ENDBRANCH  18  19
ENDBRANCH  17  18
ENDBRANCH  14  17
ENDBRANCH   5  11
BRANCH   6  26
ATOM     26  C   UNL     1       5.876   0.485  25.837  0.00  0.00    +0.030 A 
ATOM     27  C   UNL     1       6.334   0.626  27.156  0.00  0.00    +0.023 A 
ATOM     28  C   UNL     1       5.758  -0.047  28.244  0.00  0.00    +0.002 A 
ATOM     29  C   UNL     1       4.743  -0.965  28.034  0.00  0.00    +0.000 A 
ATOM     30  C   UNL     1       4.321  -1.210  26.735  0.00  0.00    +0.002 A 
ATOM     31  C   UNL     1       4.874  -0.489  25.662  0.00  0.00    +0.023 A 
ENDBRANCH   6  26
BRANCH   1  32
ATOM     32  O   UNL     1      11.761   4.214  22.952  0.00  0.00    -0.507 OA
ATOM     33  H   UNL     1      12.198   4.246  23.819  0.00  0.00    +0.292 HD
ENDBRANCH   1  32
TORSDOF 7
ENDMDL
MODEL 8
REMARK VINA RESULT:      -5.9      2.772      7.519
REMARK  Name = 
REMARK  7 active torsions:
REMARK  status: ('A' for Active; 'I' for Inactive)
REMARK    1  A    between atoms: O_1  and  C_2
REMARK    2  A    between atoms: C_6  and  C_19
REMARK    3  A    between atoms: N_8  and  C_13
REMARK    4  A    between atoms: C_22  and  O_23
REMARK    5  A    between atoms: O_23  and  C_24
REMARK    6  A    between atoms: C_24  and  C_25
REMARK    7  A    between atoms: C_25  and  N_26
REMARK                            x       y       z     vdW  Elec       q    Type
REMARK                         _______ _______ _______ _____ _____    ______ ____
ROOT
ATOM      1  C   UNL     1      11.424   5.053  23.912  0.00  0.00    +0.117 A 
ATOM      2  C   UNL     1      10.280   5.306  24.660  0.00  0.00    +0.049 A 
ATOM      3  C   UNL     1       9.161   4.463  24.555  0.00  0.00    -0.037 A 
ATOM      4  C   UNL     1       9.203   3.338  23.704  0.00  0.00    -0.019 A 
ATOM      5  C   UNL     1       8.043   2.296  23.654  0.00  0.00    +0.134 C 
ATOM      6  N   UNL     1       7.024   2.569  24.725  0.00  0.00    -0.318 N 
ATOM      7  C   UNL     1       6.721   4.000  24.870  0.00  0.00    +0.111 C 
ATOM      8  C   UNL     1      10.363   3.139  22.922  0.00  0.00    +0.009 A 
ATOM      9  C   UNL     1       7.948   4.734  25.409  0.00  0.00    +0.054 C 
ATOM     10  C   UNL     1      11.474   3.978  23.037  0.00  0.00    +0.046 A 
ENDROOT
BRANCH   5  11
ATOM     11  C   UNL     1       8.636   0.894  23.681  0.00  0.00    -0.022 A 
ATOM     12  C   UNL     1       8.468  -0.022  22.624  0.00  0.00    +0.009 A 
ATOM     13  C   UNL     1       9.011  -1.317  22.702  0.00  0.00    +0.046 A 
ATOM     14  C   UNL     1       9.746  -1.693  23.831  0.00  0.00    +0.121 A 
ATOM     15  C   UNL     1       9.940  -0.761  24.860  0.00  0.00    +0.046 A 
ATOM     16  C   UNL     1       9.386   0.504  24.797  0.00  0.00    +0.009 A 
BRANCH  14  17
ATOM     17  O   UNL     1      10.244  -2.986  23.858  0.00  0.00    -0.491 OA
BRANCH  17  18
ATOM     18  C   UNL     1       9.536  -3.797  24.800  0.00  0.00    +0.244 C 
BRANCH  18  19
ATOM     19  C   UNL     1       8.017  -3.621  24.827  0.00  0.00    +0.125 C 
BRANCH  19  20
ATOM     20  N   UNL     1       7.376  -4.780  24.159  0.00  0.00    -0.299 NA
ATOM     21  C   UNL     1       7.163  -4.562  22.726  0.00  0.00    +0.084 C 
ATOM     22  C   UNL     1       6.018  -3.597  22.426  0.00  0.00    +0.015 C 
ATOM     23  C   UNL     1       4.722  -4.026  23.106  0.00  0.00    +0.002 C 
ATOM     24  C   UNL     1       4.933  -4.347  24.582  0.00  0.00    +0.015 C 
ATOM     25  C   UNL     1       6.138  -5.263  24.791  0.00  0.00    +0.084 C 
ENDBRANCH  19  20
ENDBRANCH  18  19
ENDBRANCH  17  18
ENDBRANCH  14  17
ENDBRANCH   5  11
BRANCH   6  26
ATOM     26  C   UNL     1       6.438   1.655  25.594  0.00  0.00    +0.030 A 
ATOM     27  C   UNL     1       6.698   1.633  26.973  0.00  0.00    +0.023 A 
ATOM     28  C   UNL     1       6.010   0.803  27.870  0.00  0.00    +0.002 A 
ATOM     29  C   UNL     1       5.083  -0.112  27.399  0.00  0.00    +0.000 A 
ATOM     30  C   UNL     1       4.861  -0.194  26.032  0.00  0.00    +0.002 A 
ATOM     31  C   UNL     1       5.522   0.681  25.152  0.00  0.00    +0.023 A 
ENDBRANCH   6  26
BRANCH   1  32
ATOM     32  O   UNL     1      12.493   5.883  24.072  0.00  0.00    -0.507 OA
ATOM     33  H   UNL     1      13.138   5.447  24.654  0.00  0.00    +0.292 HD
ENDBRANCH   1  32
TORSDOF 7
ENDMDL
MODEL 9
REMARK VINA RESULT:      -5.8      2.919      5.790
REMARK  Name = 
REMARK  7 active torsions:
REMARK  status: ('A' for Active; 'I' for Inactive)
REMARK    1  A    between atoms: O_1  and  C_2
REMARK    2  A    between atoms: C_6  and  C_19
REMARK    3  A    between atoms: N_8  and  C_13
REMARK    4  A    between atoms: C_22  and  O_23
REMARK    5  A    between atoms: O_23  and  C_24
REMARK    6  A    between atoms: C_24  and  C_25
REMARK    7  A    between atoms: C_25  and  N_26
REMARK                            x       y       z     vdW  Elec       q    Type
REMARK                         _______ _______ _______ _____ _____    ______ ____
ROOT
ATOM      1  C   UNL     1      10.118   1.734  22.473  0.00  0.00    +0.117 A 
ATOM      2  C   UNL     1      10.193   0.373  22.203  0.00  0.00    +0.049 A 
ATOM      3  C   UNL     1       9.810  -0.567  23.175  0.00  0.00    -0.037 A 
ATOM      4  C   UNL     1       9.323  -0.129  24.425  0.00  0.00    -0.019 A 
ATOM      5  C   UNL     1       8.757  -1.124  25.485  0.00  0.00    +0.134 C 
ATOM      6  N   UNL     1       8.651  -2.514  24.921  0.00  0.00    -0.318 N 
ATOM      7  C   UNL     1       9.818  -2.888  24.110  0.00  0.00    +0.111 C 
ATOM      8  C   UNL     1       9.308   1.260  24.683  0.00  0.00    +0.009 A 
ATOM      9  C   UNL     1       9.860  -2.037  22.843  0.00  0.00    +0.054 C 
ATOM     10  C   UNL     1       9.683   2.188  23.710  0.00  0.00    +0.046 A 
ENDROOT
BRANCH   5  11
ATOM     11  C   UNL     1       7.459  -0.562  26.046  0.00  0.00    -0.022 A 
ATOM     12  C   UNL     1       7.247  -0.369  27.426  0.00  0.00    +0.009 A 
ATOM     13  C   UNL     1       6.022   0.128  27.903  0.00  0.00    +0.046 A 
ATOM     14  C   UNL     1       5.008   0.456  26.997  0.00  0.00    +0.121 A 
ATOM     15  C   UNL     1       5.242   0.297  25.624  0.00  0.00    +0.046 A 
ATOM     16  C   UNL     1       6.437  -0.215  25.154  0.00  0.00    +0.009 A 
BRANCH  14  17
ATOM     17  O   UNL     1       3.816   0.928  27.527  0.00  0.00    -0.491 OA
BRANCH  17  18
ATOM     18  C   UNL     1       3.959   2.263  28.020  0.00  0.00    +0.244 C 
BRANCH  18  19
ATOM     19  C   UNL     1       4.023   3.366  26.963  0.00  0.00    +0.125 C 
BRANCH  19  20
ATOM     20  N   UNL     1       4.984   4.408  27.398  0.00  0.00    -0.299 NA
ATOM     21  C   UNL     1       5.177   5.456  26.393  0.00  0.00    +0.084 C 
ATOM     22  C   UNL     1       6.019   5.002  25.201  0.00  0.00    +0.015 C 
ATOM     23  C   UNL     1       7.358   4.421  25.642  0.00  0.00    +0.002 C 
ATOM     24  C   UNL     1       7.193   3.389  26.753  0.00  0.00    +0.015 C 
ATOM     25  C   UNL     1       6.285   3.906  27.867  0.00  0.00    +0.084 C 
ENDBRANCH  19  20
ENDBRANCH  18  19
ENDBRANCH  17  18
ENDBRANCH  14  17
ENDBRANCH   5  11
BRANCH   6  26
ATOM     26  C   UNL     1       7.577  -3.392  25.022  0.00  0.00    +0.030 A 
ATOM     27  C   UNL     1       6.659  -3.604  23.982  0.00  0.00    +0.023 A 
ATOM     28  C   UNL     1       5.658  -4.585  24.031  0.00  0.00    +0.002 A 
ATOM     29  C   UNL     1       5.482  -5.342  25.177  0.00  0.00    +0.000 A 
ATOM     30  C   UNL     1       6.305  -5.102  26.269  0.00  0.00    +0.002 A 
ATOM     31  C   UNL     1       7.336  -4.151  26.184  0.00  0.00    +0.023 A 
ENDBRANCH   6  26
BRANCH   1  32
ATOM     32  O   UNL     1      10.474   2.605  21.486  0.00  0.00    -0.507 OA
ATOM     33  H   UNL     1      11.297   3.050  21.750  0.00  0.00    +0.292 HD
ENDBRANCH   1  32
TORSDOF 7
ENDMDL
