MODEL 1
REMARK VINA RESULT:      -7.2      0.000      0.000
REMARK  Name = 
REMARK  7 active torsions:
REMARK  status: ('A' for Active; 'I' for Inactive)
REMARK    1  A    between atoms: O_1  and  C_2
REMARK    2  A    between atoms: C_2  and  C_3
REMARK    3  A    between atoms: C_6  and  N_8
REMARK    4  A    between atoms: C_12  and  C_14
REMARK    5  A    between atoms: C_20  and  O_22
REMARK    6  A    between atoms: C_23  and  O_25
REMARK    7  A    between atoms: C_26  and  O_28
REMARK                            x       y       z     vdW  Elec       q    Type
REMARK                         _______ _______ _______ _____ _____    ______ ____
ROOT
ATOM      1  C   UNL     1       5.359  -6.396  26.153  0.00  0.00    +0.177 C 
ATOM      2  C   UNL     1       4.142  -6.739  25.278  0.00  0.00    +0.177 C 
ATOM      3  C   UNL     1       4.550  -6.711  23.798  0.00  0.00    +0.178 C 
ATOM      4  C   UNL     1       5.256  -5.399  23.433  0.00  0.00    +0.192 C 
ATOM      5  C   UNL     1       6.412  -5.167  24.432  0.00  0.00    +0.238 C 
ATOM      6  O   UNL     1       5.907  -5.124  25.762  0.00  0.00    -0.348 OA
ENDROOT
BRANCH   5   7
ATOM      7  N   UNL     1       7.090  -3.922  24.207  0.00  0.00    -0.271 N 
ATOM      8  H   UNL     1       6.530  -3.099  23.997  0.00  0.00    +0.153 HD
ATOM      9  C   UNL     1       8.442  -3.810  24.188  0.00  0.00    +0.308 C 
ATOM     10  N   UNL     1       8.965  -2.568  23.949  0.00  0.00    -0.236 N 
ATOM     11  H   UNL     1       9.969  -2.543  24.018  0.00  0.00    +0.159 HD
ATOM     12  C   UNL     1       8.271  -1.438  23.554  0.00  0.00    +0.251 C 
ATOM     13  O   UNL     1       7.043  -1.400  23.446  0.00  0.00    -0.270 OA
ATOM     14  O   UNL     1       9.181  -4.779  24.344  0.00  0.00    -0.252 OA
BRANCH  12  15
ATOM     15  C   UNL     1       9.056  -0.204  23.285  0.00  0.00    +0.037 A 
ATOM     16  C   UNL     1       9.748   0.356  24.371  0.00  0.00    +0.013 A 
ATOM     17  C   UNL     1      10.487   1.527  24.218  0.00  0.00    +0.001 A 
ATOM     18  C   UNL     1      10.537   2.154  22.974  0.00  0.00    +0.000 A 
ATOM     19  C   UNL     1       9.846   1.612  21.892  0.00  0.00    +0.001 A 
ATOM     20  C   UNL     1       9.105   0.434  22.040  0.00  0.00    +0.013 A 
ENDBRANCH  12  15
ENDBRANCH   5   7
BRANCH   2  21
ATOM     21  O   UNL     1       3.617  -8.017  25.654  0.00  0.00    -0.386 OA
ATOM     22  H   UNL     1       4.159  -8.710  25.240  0.00  0.00    +0.210 HD
ENDBRANCH   2  21
BRANCH   3  23
ATOM     23  O   UNL     1       3.407  -6.891  22.952  0.00  0.00    -0.386 OA
ATOM     24  H   UNL     1       2.823  -6.129  23.141  0.00  0.00    +0.210 HD
ENDBRANCH   3  23
BRANCH   4  25
ATOM     25  O   UNL     1       5.667  -5.512  22.059  0.00  0.00    -0.385 OA
ATOM     26  H   UNL     1       5.293  -6.343  21.697  0.00  0.00    +0.210 HD
ENDBRANCH   4  25
BRANCH   1  27
ATOM     27  C   UNL     1       4.973  -6.383  27.639  0.00  0.00    +0.190 C 
BRANCH  27  28
ATOM     28  O   UNL     1       5.336  -7.624  28.248  0.00  0.00    -0.392 OA
ATOM     29  H   UNL     1       6.277  -7.768  28.047  0.00  0.00    +0.210 HD
ENDBRANCH  27  28
ENDBRANCH   1  27
TORSDOF 7
ENDMDL
MODEL 2
REMARK VINA RESULT:      -6.7      2.587      4.254
REMARK  Name = 
REMARK  7 active torsions:
REMARK  status: ('A' for Active; 'I' for Inactive)
REMARK    1  A    between atoms: O_1  and  C_2
REMARK    2  A    between atoms: C_2  and  C_3
REMARK    3  A    between atoms: C_6  and  N_8
REMARK    4  A    between atoms: C_12  and  C_14
REMARK    5  A    between atoms: C_20  and  O_22
REMARK    6  A    between atoms: C_23  and  O_25
REMARK    7  A    between atoms: C_26  and  O_28
REMARK                            x       y       z     vdW  Elec       q    Type
REMARK                         _______ _______ _______ _____ _____    ______ ____
ROOT
ATOM      1  C   UNL     1       8.532  -4.059  24.607  0.00  0.00    +0.177 C 
ATOM      2  C   UNL     1       7.018  -4.239  24.803  0.00  0.00    +0.177 C 
ATOM      3  C   UNL     1       6.263  -3.402  23.759  0.00  0.00    +0.178 C 
ATOM      4  C   UNL     1       6.742  -1.945  23.752  0.00  0.00    +0.192 C 
ATOM      5  C   UNL     1       8.281  -1.933  23.607  0.00  0.00    +0.238 C 
ATOM      6  O   UNL     1       8.877  -2.662  24.674  0.00  0.00    -0.348 OA
ENDROOT
BRANCH   5   7
ATOM      7  N   UNL     1       8.826  -0.606  23.658  0.00  0.00    -0.271 N 
ATOM      8  H   UNL     1       8.569  -0.009  24.441  0.00  0.00    +0.153 HD
ATOM      9  C   UNL     1       9.607  -0.089  22.677  0.00  0.00    +0.308 C 
ATOM     10  N   UNL     1      10.052   1.194  22.840  0.00  0.00    -0.236 N 
ATOM     11  H   UNL     1      10.681   1.489  22.111  0.00  0.00    +0.159 HD
ATOM     12  C   UNL     1       9.658   2.091  23.817  0.00  0.00    +0.251 C 
ATOM     13  O   UNL     1       8.890   1.797  24.736  0.00  0.00    -0.270 OA
ATOM     14  O   UNL     1       9.884  -0.723  21.660  0.00  0.00    -0.252 OA
BRANCH  12  15
ATOM     15  C   UNL     1      10.227   3.464  23.764  0.00  0.00    +0.037 A 
ATOM     16  C   UNL     1      11.560   3.581  23.340  0.00  0.00    +0.013 A 
ATOM     17  C   UNL     1      12.185   4.826  23.286  0.00  0.00    +0.001 A 
ATOM     18  C   UNL     1      11.480   5.969  23.662  0.00  0.00    +0.000 A 
ATOM     19  C   UNL     1      10.158   5.862  24.094  0.00  0.00    +0.001 A 
ATOM     20  C   UNL     1       9.526   4.614  24.147  0.00  0.00    +0.013 A 
ENDBRANCH  12  15
ENDBRANCH   5   7
BRANCH   2  21
ATOM     21  O   UNL     1       6.677  -5.627  24.710  0.00  0.00    -0.386 OA
ATOM     22  H   UNL     1       7.202  -6.028  23.996  0.00  0.00    +0.210 HD
ENDBRANCH   2  21
BRANCH   3  23
ATOM     23  O   UNL     1       4.851  -3.441  24.001  0.00  0.00    -0.386 OA
ATOM     24  H   UNL     1       4.657  -4.368  24.248  0.00  0.00    +0.210 HD
ENDBRANCH   3  23
BRANCH   4  25
ATOM     25  O   UNL     1       6.037  -1.277  22.691  0.00  0.00    -0.385 OA
ATOM     26  H   UNL     1       5.403  -0.648  23.094  0.00  0.00    +0.210 HD
ENDBRANCH   4  25
BRANCH   1  27
ATOM     27  C   UNL     1       9.314  -4.858  25.660  0.00  0.00    +0.190 C 
BRANCH  27  28
ATOM     28  O   UNL     1      10.557  -5.301  25.111  0.00  0.00    -0.392 OA
ATOM     29  H   UNL     1      10.599  -4.957  24.202  0.00  0.00    +0.210 HD
ENDBRANCH  27  28
ENDBRANCH   1  27
TORSDOF 7
ENDMDL
MODEL 3
REMARK VINA RESULT:      -6.3      2.351      3.844
REMARK  Name = 
REMARK  7 active torsions:
REMARK  status: ('A' for Active; 'I' for Inactive)
REMARK    1  A    between atoms: O_1  and  C_2
REMARK    2  A    between atoms: C_2  and  C_3
REMARK    3  A    between atoms: C_6  and  N_8
REMARK    4  A    between atoms: C_12  and  C_14
REMARK    5  A    between atoms: C_20  and  O_22
REMARK    6  A    between atoms: C_23  and  O_25
REMARK    7  A    between atoms: C_26  and  O_28
REMARK                            x       y       z     vdW  Elec       q    Type
REMARK                         _______ _______ _______ _____ _____    ______ ____
ROOT
ATOM      1  C   UNL     1       5.753  -3.580  25.096  0.00  0.00    +0.177 C 
ATOM      2  C   UNL     1       6.268  -4.690  24.164  0.00  0.00    +0.177 C 
ATOM      3  C   UNL     1       7.802  -4.727  24.211  0.00  0.00    +0.178 C 
ATOM      4  C   UNL     1       8.408  -3.341  23.958  0.00  0.00    +0.192 C 
ATOM      5  C   UNL     1       7.751  -2.332  24.927  0.00  0.00    +0.238 C 
ATOM      6  O   UNL     1       6.341  -2.317  24.735  0.00  0.00    -0.348 OA
ENDROOT
BRANCH   5   7
ATOM      7  N   UNL     1       8.211  -0.989  24.715  0.00  0.00    -0.271 N 
ATOM      8  H   UNL     1       8.122  -0.590  23.783  0.00  0.00    +0.153 HD
ATOM      9  C   UNL     1       8.824  -0.256  25.679  0.00  0.00    +0.308 C 
ATOM     10  N   UNL     1       9.227   1.007  25.345  0.00  0.00    -0.236 N 
ATOM     11  H   UNL     1       9.609   1.518  26.124  0.00  0.00    +0.159 HD
ATOM     12  C   UNL     1       9.234   1.568  24.080  0.00  0.00    +0.251 C 
ATOM     13  O   UNL     1       8.785   0.998  23.083  0.00  0.00    -0.270 OA
ATOM     14  O   UNL     1       9.045  -0.707  26.801  0.00  0.00    -0.252 OA
BRANCH  12  15
ATOM     15  C   UNL     1       9.781   2.944  23.938  0.00  0.00    +0.037 A 
ATOM     16  C   UNL     1      11.109   3.056  23.495  0.00  0.00    +0.013 A 
ATOM     17  C   UNL     1      11.713   4.304  23.359  0.00  0.00    +0.001 A 
ATOM     18  C   UNL     1      10.993   5.457  23.671  0.00  0.00    +0.000 A 
ATOM     19  C   UNL     1       9.677   5.357  24.121  0.00  0.00    +0.001 A 
ATOM     20  C   UNL     1       9.066   4.105  24.257  0.00  0.00    +0.013 A 
ENDBRANCH  12  15
ENDBRANCH   5   7
BRANCH   2  21
ATOM     21  O   UNL     1       5.699  -5.948  24.544  0.00  0.00    -0.386 OA
ATOM     22  H   UNL     1       4.834  -6.042  24.110  0.00  0.00    +0.210 HD
ENDBRANCH   2  21
BRANCH   3  23
ATOM     23  O   UNL     1       8.318  -5.658  23.251  0.00  0.00    -0.386 OA
ATOM     24  H   UNL     1       7.553  -5.900  22.690  0.00  0.00    +0.210 HD
ENDBRANCH   3  23
BRANCH   4  25
ATOM     25  O   UNL     1       9.833  -3.472  24.108  0.00  0.00    -0.385 OA
ATOM     26  H   UNL     1      10.189  -2.608  24.403  0.00  0.00    +0.210 HD
ENDBRANCH   4  25
BRANCH   1  27
ATOM     27  C   UNL     1       4.220  -3.496  25.044  0.00  0.00    +0.190 C 
BRANCH  27  28
ATOM     28  O   UNL     1       3.738  -4.138  23.861  0.00  0.00    -0.392 OA
ATOM     29  H   UNL     1       3.430  -5.020  24.129  0.00  0.00    +0.210 HD
ENDBRANCH  27  28
ENDBRANCH   1  27
TORSDOF 7
ENDMDL
MODEL 4
REMARK VINA RESULT:      -6.3      1.905      2.415
REMARK  Name = 
REMARK  7 active torsions:
REMARK  status: ('A' for Active; 'I' for Inactive)
REMARK    1  A    between atoms: O_1  and  C_2
REMARK    2  A    between atoms: C_2  and  C_3
REMARK    3  A    between atoms: C_6  and  N_8
REMARK    4  A    between atoms: C_12  and  C_14
REMARK    5  A    between atoms: C_20  and  O_22
REMARK    6  A    between atoms: C_23  and  O_25
REMARK    7  A    between atoms: C_26  and  O_28
REMARK                            x       y       z     vdW  Elec       q    Type
REMARK                         _______ _______ _______ _____ _____    ______ ____
ROOT
ATOM      1  C   UNL     1       6.723  -5.023  25.746  0.00  0.00    +0.177 C 
ATOM      2  C   UNL     1       5.495  -5.378  24.892  0.00  0.00    +0.177 C 
ATOM      3  C   UNL     1       5.764  -5.004  23.427  0.00  0.00    +0.178 C 
ATOM      4  C   UNL     1       6.240  -3.553  23.294  0.00  0.00    +0.192 C 
ATOM      5  C   UNL     1       7.436  -3.338  24.251  0.00  0.00    +0.238 C 
ATOM      6  O   UNL     1       7.048  -3.629  25.589  0.00  0.00    -0.348 OA
ENDROOT
BRANCH   5   7
ATOM      7  N   UNL     1       7.907  -1.982  24.243  0.00  0.00    -0.271 N 
ATOM      8  H   UNL     1       7.249  -1.241  24.472  0.00  0.00    +0.153 HD
ATOM      9  C   UNL     1       9.167  -1.640  23.873  0.00  0.00    +0.308 C 
ATOM     10  N   UNL     1       9.488  -0.310  23.896  0.00  0.00    -0.236 N 
ATOM     11  H   UNL     1      10.455  -0.134  23.679  0.00  0.00    +0.159 HD
ATOM     12  C   UNL     1       8.620   0.749  24.092  0.00  0.00    +0.251 C 
ATOM     13  O   UNL     1       7.424   0.605  24.359  0.00  0.00    -0.270 OA
ATOM     14  O   UNL     1       9.988  -2.474  23.498  0.00  0.00    -0.252 OA
BRANCH  12  15
ATOM     15  C   UNL     1       9.179   2.125  24.010  0.00  0.00    +0.037 A 
ATOM     16  C   UNL     1      10.486   2.249  23.513  0.00  0.00    +0.013 A 
ATOM     17  C   UNL     1      11.101   3.496  23.427  0.00  0.00    +0.001 A 
ATOM     18  C   UNL     1      10.413   4.635  23.844  0.00  0.00    +0.000 A 
ATOM     19  C   UNL     1       9.119   4.522  24.349  0.00  0.00    +0.001 A 
ATOM     20  C   UNL     1       8.496   3.271  24.434  0.00  0.00    +0.013 A 
ENDBRANCH  12  15
ENDBRANCH   5   7
BRANCH   2  21
ATOM     21  O   UNL     1       5.192  -6.771  25.032  0.00  0.00    -0.386 OA
ATOM     22  H   UNL     1       4.480  -6.870  25.687  0.00  0.00    +0.210 HD
ENDBRANCH   2  21
BRANCH   3  23
ATOM     23  O   UNL     1       4.588  -5.197  22.629  0.00  0.00    -0.386 OA
ATOM     24  H   UNL     1       4.141  -5.979  23.014  0.00  0.00    +0.210 HD
ENDBRANCH   3  23
BRANCH   4  25
ATOM     25  O   UNL     1       6.542  -3.336  21.904  0.00  0.00    -0.385 OA
ATOM     26  H   UNL     1       6.487  -4.199  21.442  0.00  0.00    +0.210 HD
ENDBRANCH   4  25
BRANCH   1  27
ATOM     27  C   UNL     1       6.471  -5.354  27.224  0.00  0.00    +0.190 C 
BRANCH  27  28
ATOM     28  O   UNL     1       7.603  -6.033  27.771  0.00  0.00    -0.392 OA
ATOM     29  H   UNL     1       8.175  -6.271  27.021  0.00  0.00    +0.210 HD
ENDBRANCH  27  28
ENDBRANCH   1  27
TORSDOF 7
ENDMDL
MODEL 5
REMARK VINA RESULT:      -6.2      2.293      8.224
REMARK  Name = 
REMARK  7 active torsions:
REMARK  status: ('A' for Active; 'I' for Inactive)
REMARK    1  A    between atoms: O_1  and  C_2
REMARK    2  A    between atoms: C_2  and  C_3
REMARK    3  A    between atoms: C_6  and  N_8
REMARK    4  A    between atoms: C_12  and  C_14
REMARK    5  A    between atoms: C_20  and  O_22
REMARK    6  A    between atoms: C_23  and  O_25
REMARK    7  A    between atoms: C_26  and  O_28
REMARK                            x       y       z     vdW  Elec       q    Type
REMARK                         _______ _______ _______ _____ _____    ______ ____
ROOT
ATOM      1  C   UNL     1       9.430  -0.814  22.471  0.00  0.00    +0.177 C 
ATOM      2  C   UNL     1       9.557   0.158  23.656  0.00  0.00    +0.177 C 
ATOM      3  C   UNL     1       9.611  -0.637  24.969  0.00  0.00    +0.178 C 
ATOM      4  C   UNL     1       8.448  -1.631  25.074  0.00  0.00    +0.192 C 
ATOM      5  C   UNL     1       8.419  -2.493  23.791  0.00  0.00    +0.238 C 
ATOM      6  O   UNL     1       8.278  -1.659  22.646  0.00  0.00    -0.348 OA
ENDROOT
BRANCH   5   7
ATOM      7  N   UNL     1       7.317  -3.411  23.772  0.00  0.00    -0.271 N 
ATOM      8  H   UNL     1       6.373  -3.031  23.748  0.00  0.00    +0.153 HD
ATOM      9  C   UNL     1       7.473  -4.756  23.859  0.00  0.00    +0.308 C 
ATOM     10  N   UNL     1       6.339  -5.522  23.843  0.00  0.00    -0.236 N 
ATOM     11  H   UNL     1       6.530  -6.510  23.840  0.00  0.00    +0.159 HD
ATOM     12  C   UNL     1       5.033  -5.071  23.919  0.00  0.00    +0.251 C 
ATOM     13  O   UNL     1       4.728  -3.876  23.929  0.00  0.00    -0.270 OA
ATOM     14  O   UNL     1       8.578  -5.279  23.981  0.00  0.00    -0.252 OA
BRANCH  12  15
ATOM     15  C   UNL     1       3.951  -6.091  23.952  0.00  0.00    +0.037 A 
ATOM     16  C   UNL     1       2.892  -5.921  23.047  0.00  0.00    +0.013 A 
ATOM     17  C   UNL     1       1.821  -6.813  23.025  0.00  0.00    +0.001 A 
ATOM     18  C   UNL     1       1.798  -7.884  23.918  0.00  0.00    +0.000 A 
ATOM     19  C   UNL     1       2.840  -8.056  24.828  0.00  0.00    +0.001 A 
ATOM     20  C   UNL     1       3.918  -7.165  24.851  0.00  0.00    +0.013 A 
ENDBRANCH  12  15
ENDBRANCH   5   7
BRANCH   2  21
ATOM     21  O   UNL     1      10.719   0.979  23.490  0.00  0.00    -0.386 OA
ATOM     22  H   UNL     1      10.453   1.912  23.559  0.00  0.00    +0.210 HD
ENDBRANCH   2  21
BRANCH   3  23
ATOM     23  O   UNL     1       9.591   0.245  26.099  0.00  0.00    -0.386 OA
ATOM     24  H   UNL     1       9.773  -0.325  26.874  0.00  0.00    +0.210 HD
ENDBRANCH   3  23
BRANCH   4  25
ATOM     25  O   UNL     1       8.642  -2.376  26.289  0.00  0.00    -0.385 OA
ATOM     26  H   UNL     1       7.978  -3.097  26.313  0.00  0.00    +0.210 HD
ENDBRANCH   4  25
BRANCH   1  27
ATOM     27  C   UNL     1       9.339  -0.045  21.146  0.00  0.00    +0.190 C 
BRANCH  27  28
ATOM     28  O   UNL     1       8.991   1.318  21.397  0.00  0.00    -0.392 OA
ATOM     29  H   UNL     1       9.725   1.860  21.060  0.00  0.00    +0.210 HD
ENDBRANCH  27  28
ENDBRANCH   1  27
TORSDOF 7
ENDMDL
MODEL 6
REMARK VINA RESULT:      -6.1      4.275      9.403
REMARK  Name = 
REMARK  7 active torsions:
REMARK  status: ('A' for Active; 'I' for Inactive)
REMARK    1  A    between atoms: O_1  and  C_2
REMARK    2  A    between atoms: C_2  and  C_3
REMARK    3  A    between atoms: C_6  and  N_8
REMARK    4  A    between atoms: C_12  and  C_14
REMARK    5  A    between atoms: C_20  and  O_22
REMARK    6  A    between atoms: C_23  and  O_25
REMARK    7  A    between atoms: C_26  and  O_28
REMARK                            x       y       z     vdW  Elec       q    Type
REMARK                         _______ _______ _______ _____ _____    ______ ____
ROOT
ATOM      1  C   UNL     1      11.071   4.328  23.871  0.00  0.00    +0.177 C 
ATOM      2  C   UNL     1      10.001   5.426  23.755  0.00  0.00    +0.177 C 
ATOM      3  C   UNL     1       8.787   5.052  24.619  0.00  0.00    +0.178 C 
ATOM      4  C   UNL     1       8.290   3.635  24.308  0.00  0.00    +0.192 C 
ATOM      5  C   UNL     1       9.486   2.660  24.409  0.00  0.00    +0.238 C 
ATOM      6  O   UNL     1      10.513   3.052  23.504  0.00  0.00    -0.348 OA
ENDROOT
BRANCH   5   7
ATOM      7  N   UNL     1       9.126   1.314  24.067  0.00  0.00    -0.271 N 
ATOM      8  H   UNL     1       8.262   1.161  23.553  0.00  0.00    +0.153 HD
ATOM      9  C   UNL     1       9.846   0.233  24.462  0.00  0.00    +0.308 C 
ATOM     10  N   UNL     1       9.388  -0.998  24.081  0.00  0.00    -0.236 N 
ATOM     11  H   UNL     1      10.005  -1.748  24.347  0.00  0.00    +0.159 HD
ATOM     12  C   UNL     1       8.175  -1.283  23.479  0.00  0.00    +0.251 C 
ATOM     13  O   UNL     1       7.372  -0.414  23.129  0.00  0.00    -0.270 OA
ATOM     14  O   UNL     1      10.851   0.338  25.162  0.00  0.00    -0.252 OA
BRANCH  12  15
ATOM     15  C   UNL     1       7.855  -2.710  23.211  0.00  0.00    +0.037 A 
ATOM     16  C   UNL     1       8.393  -3.657  24.096  0.00  0.00    +0.013 A 
ATOM     17  C   UNL     1       8.168  -5.019  23.907  0.00  0.00    +0.001 A 
ATOM     18  C   UNL     1       7.404  -5.448  22.823  0.00  0.00    +0.000 A 
ATOM     19  C   UNL     1       6.874  -4.517  21.932  0.00  0.00    +0.001 A 
ATOM     20  C   UNL     1       7.095  -3.147  22.120  0.00  0.00    +0.013 A 
ENDBRANCH  12  15
ENDBRANCH   5   7
BRANCH   2  21
ATOM     21  O   UNL     1      10.555   6.688  24.146  0.00  0.00    -0.386 OA
ATOM     22  H   UNL     1      11.356   6.526  24.674  0.00  0.00    +0.210 HD
ENDBRANCH   2  21
BRANCH   3  23
ATOM     23  O   UNL     1       7.718   5.988  24.425  0.00  0.00    -0.386 OA
ATOM     24  H   UNL     1       7.946   6.759  24.983  0.00  0.00    +0.210 HD
ENDBRANCH   3  23
BRANCH   4  25
ATOM     25  O   UNL     1       7.215   3.358  25.223  0.00  0.00    -0.385 OA
ATOM     26  H   UNL     1       6.490   3.991  25.042  0.00  0.00    +0.210 HD
ENDBRANCH   4  25
BRANCH   1  27
ATOM     27  C   UNL     1      12.285   4.658  22.990  0.00  0.00    +0.190 C 
BRANCH  27  28
ATOM     28  O   UNL     1      13.207   5.472  23.717  0.00  0.00    -0.392 OA
ATOM     29  H   UNL     1      13.419   4.992  24.536  0.00  0.00    +0.210 HD
ENDBRANCH  27  28
ENDBRANCH   1  27
TORSDOF 7
ENDMDL
MODEL 7
REMARK VINA RESULT:      -6.1      2.873      4.304
REMARK  Name = 
REMARK  7 active torsions:
REMARK  status: ('A' for Active; 'I' for Inactive)
REMARK    1  A    between atoms: O_1  and  C_2
REMARK    2  A    between atoms: C_2  and  C_3
REMARK    3  A    between atoms: C_6  and  N_8
REMARK    4  A    between atoms: C_12  and  C_14
REMARK    5  A    between atoms: C_20  and  O_22
REMARK    6  A    between atoms: C_23  and  O_25
REMARK    7  A    between atoms: C_26  and  O_28
REMARK                            x       y       z     vdW  Elec       q    Type
REMARK                         _______ _______ _______ _____ _____    ______ ____
ROOT
ATOM      1  C   UNL     1       7.614  -3.468  25.634  0.00  0.00    +0.177 C 
ATOM      2  C   UNL     1       6.891  -4.039  24.402  0.00  0.00    +0.177 C 
ATOM      3  C   UNL     1       7.658  -3.648  23.131  0.00  0.00    +0.178 C 
ATOM      4  C   UNL     1       7.928  -2.139  23.077  0.00  0.00    +0.192 C 
ATOM      5  C   UNL     1       8.601  -1.711  24.401  0.00  0.00    +0.238 C 
ATOM      6  O   UNL     1       7.763  -2.042  25.504  0.00  0.00    -0.348 OA
ENDROOT
BRANCH   5   7
ATOM      7  N   UNL     1       8.830  -0.296  24.468  0.00  0.00    -0.271 N 
ATOM      8  H   UNL     1       8.086   0.297  24.827  0.00  0.00    +0.153 HD
ATOM      9  C   UNL     1       9.963   0.292  24.006  0.00  0.00    +0.308 C 
ATOM     10  N   UNL     1      10.053   1.652  24.115  0.00  0.00    -0.236 N 
ATOM     11  H   UNL     1      10.945   2.014  23.819  0.00  0.00    +0.159 HD
ATOM     12  C   UNL     1       9.045   2.523  24.491  0.00  0.00    +0.251 C 
ATOM     13  O   UNL     1       7.930   2.148  24.863  0.00  0.00    -0.270 OA
ATOM     14  O   UNL     1      10.865  -0.354  23.477  0.00  0.00    -0.252 OA
BRANCH  12  15
ATOM     15  C   UNL     1       9.349   3.979  24.478  0.00  0.00    +0.037 A 
ATOM     16  C   UNL     1       8.504   4.809  25.230  0.00  0.00    +0.013 A 
ATOM     17  C   UNL     1       8.696   6.189  25.255  0.00  0.00    +0.001 A 
ATOM     18  C   UNL     1       9.737   6.753  24.518  0.00  0.00    +0.000 A 
ATOM     19  C   UNL     1      10.576   5.938  23.759  0.00  0.00    +0.001 A 
ATOM     20  C   UNL     1      10.388   4.552  23.735  0.00  0.00    +0.013 A 
ENDBRANCH  12  15
ENDBRANCH   5   7
BRANCH   2  21
ATOM     21  O   UNL     1       6.767  -5.460  24.526  0.00  0.00    -0.386 OA
ATOM     22  H   UNL     1       7.343  -5.760  25.250  0.00  0.00    +0.210 HD
ENDBRANCH   2  21
BRANCH   3  23
ATOM     23  O   UNL     1       6.937  -4.048  21.959  0.00  0.00    -0.386 OA
ATOM     24  H   UNL     1       6.069  -4.364  22.285  0.00  0.00    +0.210 HD
ENDBRANCH   3  23
BRANCH   4  25
ATOM     25  O   UNL     1       8.718  -1.896  21.900  0.00  0.00    -0.385 OA
ATOM     26  H   UNL     1       8.240  -2.268  21.130  0.00  0.00    +0.210 HD
ENDBRANCH   4  25
BRANCH   1  27
ATOM     27  C   UNL     1       6.849  -3.814  26.920  0.00  0.00    +0.190 C 
BRANCH  27  28
ATOM     28  O   UNL     1       7.356  -5.029  27.476  0.00  0.00    -0.392 OA
ATOM     29  H   UNL     1       6.593  -5.511  27.838  0.00  0.00    +0.210 HD
ENDBRANCH  27  28
ENDBRANCH   1  27
TORSDOF 7
ENDMDL
MODEL 8
REMARK VINA RESULT:      -6.1      2.812      4.856
REMARK  Name = 
REMARK  7 active torsions:
REMARK  status: ('A' for Active; 'I' for Inactive)
REMARK    1  A    between atoms: O_1  and  C_2
REMARK    2  A    between atoms: C_2  and  C_3
REMARK    3  A    between atoms: C_6  and  N_8
REMARK    4  A    between atoms: C_12  and  C_14
REMARK    5  A    between atoms: C_20  and  O_22
REMARK    6  A    between atoms: C_23  and  O_25
REMARK    7  A    between atoms: C_26  and  O_28
REMARK                            x       y       z     vdW  Elec       q    Type
REMARK                         _______ _______ _______ _____ _____    ______ ____
ROOT
ATOM      1  C   UNL     1       6.685  -3.339  22.932  0.00  0.00    +0.177 C 
ATOM      2  C   UNL     1       7.474  -4.429  23.677  0.00  0.00    +0.177 C 
ATOM      3  C   UNL     1       7.818  -3.936  25.091  0.00  0.00    +0.178 C 
ATOM      4  C   UNL     1       8.494  -2.560  25.059  0.00  0.00    +0.192 C 
ATOM      5  C   UNL     1       7.613  -1.597  24.230  0.00  0.00    +0.238 C 
ATOM      6  O   UNL     1       7.435  -2.110  22.914  0.00  0.00    -0.348 OA
ENDROOT
BRANCH   5   7
ATOM      7  N   UNL     1       8.204  -0.297  24.090  0.00  0.00    -0.271 N 
ATOM      8  H   UNL     1       8.885  -0.154  23.347  0.00  0.00    +0.153 HD
ATOM      9  C   UNL     1       7.952   0.726  24.945  0.00  0.00    +0.308 C 
ATOM     10  N   UNL     1       8.590   1.913  24.709  0.00  0.00    -0.236 N 
ATOM     11  H   UNL     1       8.305   2.646  25.337  0.00  0.00    +0.159 HD
ATOM     12  C   UNL     1       9.600   2.143  23.791  0.00  0.00    +0.251 C 
ATOM     13  O   UNL     1       9.999   1.291  22.993  0.00  0.00    -0.270 OA
ATOM     14  O   UNL     1       7.210   0.598  25.916  0.00  0.00    -0.252 OA
BRANCH  12  15
ATOM     15  C   UNL     1      10.198   3.504  23.749  0.00  0.00    +0.037 A 
ATOM     16  C   UNL     1      11.544   3.593  23.359  0.00  0.00    +0.013 A 
ATOM     17  C   UNL     1      12.195   4.824  23.318  0.00  0.00    +0.001 A 
ATOM     18  C   UNL     1      11.504   5.982  23.674  0.00  0.00    +0.000 A 
ATOM     19  C   UNL     1      10.170   5.904  24.072  0.00  0.00    +0.001 A 
ATOM     20  C   UNL     1       9.512   4.669  24.112  0.00  0.00    +0.013 A 
ENDBRANCH  12  15
ENDBRANCH   5   7
BRANCH   2  21
ATOM     21  O   UNL     1       6.713  -5.641  23.714  0.00  0.00    -0.386 OA
ATOM     22  H   UNL     1       5.988  -5.534  24.353  0.00  0.00    +0.210 HD
ENDBRANCH   2  21
BRANCH   3  23
ATOM     23  O   UNL     1       8.670  -4.873  25.763  0.00  0.00    -0.386 OA
ATOM     24  H   UNL     1       9.363  -5.104  25.112  0.00  0.00    +0.210 HD
ENDBRANCH   3  23
BRANCH   4  25
ATOM     25  O   UNL     1       8.693  -2.159  26.426  0.00  0.00    -0.385 OA
ATOM     26  H   UNL     1       7.813  -2.030  26.837  0.00  0.00    +0.210 HD
ENDBRANCH   4  25
BRANCH   1  27
ATOM     27  C   UNL     1       6.357  -3.791  21.501  0.00  0.00    +0.190 C 
BRANCH  27  28
ATOM     28  O   UNL     1       5.318  -4.771  21.526  0.00  0.00    -0.392 OA
ATOM     29  H   UNL     1       4.488  -4.302  21.332  0.00  0.00    +0.210 HD
ENDBRANCH  27  28
ENDBRANCH   1  27
TORSDOF 7
ENDMDL
MODEL 9
REMARK VINA RESULT:      -6.0      1.797      2.337
REMARK  Name = 
REMARK  7 active torsions:
REMARK  status: ('A' for Active; 'I' for Inactive)
REMARK    1  A    between atoms: O_1  and  C_2
REMARK    2  A    between atoms: C_2  and  C_3
REMARK    3  A    between atoms: C_6  and  N_8
REMARK    4  A    between atoms: C_12  and  C_14
REMARK    5  A    between atoms: C_20  and  O_22
REMARK    6  A    between atoms: C_23  and  O_25
REMARK    7  A    between atoms: C_26  and  O_28
REMARK                            x       y       z     vdW  Elec       q    Type
REMARK                         _______ _______ _______ _____ _____    ______ ____
ROOT
ATOM      1  C   UNL     1       3.482  -6.770  27.154  0.00  0.00    +0.177 C 
ATOM      2  C   UNL     1       2.587  -7.318  26.029  0.00  0.00    +0.177 C 
ATOM      3  C   UNL     1       3.461  -7.747  24.842  0.00  0.00    +0.178 C 
ATOM      4  C   UNL     1       4.418  -6.628  24.414  0.00  0.00    +0.192 C 
ATOM      5  C   UNL     1       5.201  -6.147  25.658  0.00  0.00    +0.238 C 
ATOM      6  O   UNL     1       4.295  -5.691  26.657  0.00  0.00    -0.348 OA
ENDROOT
BRANCH   5   7
ATOM      7  N   UNL     1       6.077  -5.050  25.363  0.00  0.00    -0.271 N 
ATOM      8  H   UNL     1       5.793  -4.383  24.650  0.00  0.00    +0.153 HD
ATOM      9  C   UNL     1       7.298  -4.904  25.938  0.00  0.00    +0.308 C 
ATOM     10  N   UNL     1       8.043  -3.820  25.561  0.00  0.00    -0.236 N 
ATOM     11  H   UNL     1       8.904  -3.735  26.077  0.00  0.00    +0.159 HD
ATOM     12  C   UNL     1       7.766  -2.941  24.529  0.00  0.00    +0.251 C 
ATOM     13  O   UNL     1       6.732  -2.990  23.857  0.00  0.00    -0.270 OA
ATOM     14  O   UNL     1       7.744  -5.720  26.741  0.00  0.00    -0.252 OA
BRANCH  12  15
ATOM     15  C   UNL     1       8.755  -1.866  24.253  0.00  0.00    +0.037 A 
ATOM     16  C   UNL     1       9.318  -1.838  22.967  0.00  0.00    +0.013 A 
ATOM     17  C   UNL     1      10.274  -0.883  22.627  0.00  0.00    +0.001 A 
ATOM     18  C   UNL     1      10.682   0.053  23.577  0.00  0.00    +0.000 A 
ATOM     19  C   UNL     1      10.137   0.028  24.859  0.00  0.00    +0.001 A 
ATOM     20  C   UNL     1       9.174  -0.928  25.204  0.00  0.00    +0.013 A 
ENDBRANCH  12  15
ENDBRANCH   5   7
BRANCH   2  21
ATOM     21  O   UNL     1       1.798  -8.407  26.522  0.00  0.00    -0.386 OA
ATOM     22  H   UNL     1       1.048  -8.045  27.025  0.00  0.00    +0.210 HD
ENDBRANCH   2  21
BRANCH   3  23
ATOM     23  O   UNL     1       2.647  -8.134  23.726  0.00  0.00    -0.386 OA
ATOM     24  H   UNL     1       3.247  -8.120  22.952  0.00  0.00    +0.210 HD
ENDBRANCH   3  23
BRANCH   4  25
ATOM     25  O   UNL     1       5.241  -7.160  23.361  0.00  0.00    -0.385 OA
ATOM     26  H   UNL     1       6.179  -7.059  23.626  0.00  0.00    +0.210 HD
ENDBRANCH   4  25
BRANCH   1  27
ATOM     27  C   UNL     1       2.632  -6.300  28.343  0.00  0.00    +0.190 C 
BRANCH  27  28
ATOM     28  O   UNL     1       2.418  -7.386  29.248  0.00  0.00    -0.392 OA
ATOM     29  H   UNL     1       2.638  -8.200  28.763  0.00  0.00    +0.210 HD
ENDBRANCH  27  28
ENDBRANCH   1  27
TORSDOF 7
ENDMDL
