MODEL 1
REMARK VINA RESULT:      -7.8      0.000      0.000
REMARK  Name = 
REMARK  3 active torsions:
REMARK  status: ('A' for Active; 'I' for Inactive)
REMARK    1  A    between atoms: N_8  and  C_9
REMARK    2  A    between atoms: P_16  and  O_17
REMARK    3  A    between atoms: C_22  and  O_24
REMARK                            x       y       z     vdW  Elec       q    Type
REMARK                         _______ _______ _______ _____ _____    ______ ____
ROOT
ATOM      1  N   UNL     1       7.552  -5.946  27.468  0.00  0.00    -0.329 N 
ATOM      2  H   UNL     1       7.267  -6.905  27.614  0.00  0.00    +0.145 HD
ATOM      3  H   UNL     1       8.514  -5.786  27.759  0.00  0.00    +0.145 HD
ATOM      4  C   UNL     1       7.299  -5.420  26.246  0.00  0.00    +0.195 A 
ATOM      5  N   UNL     1       6.149  -5.857  25.620  0.00  0.00    -0.293 N 
ATOM      6  H   UNL     1       5.496  -6.434  26.121  0.00  0.00    +0.172 HD
ATOM      7  C   UNL     1       5.723  -5.437  24.365  0.00  0.00    +0.280 A 
ATOM      8  O   UNL     1       4.632  -5.761  23.909  0.00  0.00    -0.265 OA
ATOM      9  C   UNL     1       6.676  -4.546  23.735  0.00  0.00    +0.172 A 
ATOM     10  N   UNL     1       6.650  -3.919  22.515  0.00  0.00    -0.229 NA
ATOM     11  C   UNL     1       7.700  -3.115  22.539  0.00  0.00    +0.203 A 
ATOM     12  N   UNL     1       8.338  -3.141  23.750  0.00  0.00    -0.285 N 
ATOM     13  C   UNL     1       7.770  -4.162  24.473  0.00  0.00    +0.171 A 
ATOM     14  N   UNL     1       8.129  -4.558  25.718  0.00  0.00    -0.196 NA
ENDROOT
BRANCH  12  15
ATOM     15  C   UNL     1       9.098  -2.058  24.363  0.00  0.00    +0.253 C 
ATOM     16  C   UNL     1       8.233  -0.788  24.398  0.00  0.00    +0.196 C 
ATOM     17  C   UNL     1       8.670  -0.090  23.124  0.00  0.00    +0.194 C 
ATOM     18  C   UNL     1      10.166  -0.377  23.119  0.00  0.00    +0.179 C 
ATOM     19  C   UNL     1      10.985   0.578  24.006  0.00  0.00    +0.206 C 
ATOM     20  O   UNL     1      10.478   1.900  24.096  0.00  0.00    -0.284 OA
ATOM     21  P   UNL     1       9.356   2.400  23.076  0.00  0.00    +0.475 P 
ATOM     22  O   UNL     1       8.830   3.779  23.272  0.00  0.00    -0.227 OA
ATOM     23  O   UNL     1       8.247   1.251  23.123  0.00  0.00    -0.278 OA
ATOM     24  O   UNL     1      10.281  -1.749  23.567  0.00  0.00    -0.346 OA
BRANCH  16  25
ATOM     25  O   UNL     1       8.535   0.012  25.548  0.00  0.00    -0.385 OA
ATOM     26  H   UNL     1       8.082  -0.408  26.304  0.00  0.00    +0.210 HD
ENDBRANCH  16  25
BRANCH  21  27
ATOM     27  O   UNL     1      10.010   2.175  21.632  0.00  0.00    -0.302 OA
ATOM     28  H   UNL     1       9.809   2.935  21.052  0.00  0.00    +0.222 HD
ENDBRANCH  21  27
ENDBRANCH  12  15
TORSDOF 3
ENDMDL
MODEL 2
REMARK VINA RESULT:      -7.8      2.224      3.071
REMARK  Name = 
REMARK  3 active torsions:
REMARK  status: ('A' for Active; 'I' for Inactive)
REMARK    1  A    between atoms: N_8  and  C_9
REMARK    2  A    between atoms: P_16  and  O_17
REMARK    3  A    between atoms: C_22  and  O_24
REMARK                            x       y       z     vdW  Elec       q    Type
REMARK                         _______ _______ _______ _____ _____    ______ ____
ROOT
ATOM      1  N   UNL     1       5.111  -7.183  27.780  0.00  0.00    -0.329 N 
ATOM      2  H   UNL     1       4.919  -8.144  28.030  0.00  0.00    +0.145 HD
ATOM      3  H   UNL     1       6.032  -6.884  28.093  0.00  0.00    +0.145 HD
ATOM      4  C   UNL     1       4.877  -6.835  26.493  0.00  0.00    +0.195 A 
ATOM      5  N   UNL     1       3.818  -7.466  25.872  0.00  0.00    -0.293 N 
ATOM      6  H   UNL     1       3.200  -8.049  26.410  0.00  0.00    +0.172 HD
ATOM      7  C   UNL     1       3.426  -7.245  24.557  0.00  0.00    +0.280 A 
ATOM      8  O   UNL     1       2.403  -7.740  24.094  0.00  0.00    -0.265 OA
ATOM      9  C   UNL     1       4.316  -6.334  23.868  0.00  0.00    +0.172 A 
ATOM     10  N   UNL     1       4.298  -5.861  22.579  0.00  0.00    -0.229 NA
ATOM     11  C   UNL     1       5.254  -4.949  22.554  0.00  0.00    +0.203 A 
ATOM     12  N   UNL     1       5.818  -4.762  23.787  0.00  0.00    -0.285 N 
ATOM     13  C   UNL     1       5.318  -5.748  24.602  0.00  0.00    +0.171 A 
ATOM     14  N   UNL     1       5.642  -5.954  25.902  0.00  0.00    -0.196 NA
ENDROOT
BRANCH  12  15
ATOM     15  C   UNL     1       6.425  -3.537  24.297  0.00  0.00    +0.253 C 
ATOM     16  C   UNL     1       6.448  -2.481  23.180  0.00  0.00    +0.196 C 
ATOM     17  C   UNL     1       7.839  -2.679  22.607  0.00  0.00    +0.194 C 
ATOM     18  C   UNL     1       8.653  -2.935  23.869  0.00  0.00    +0.179 C 
ATOM     19  C   UNL     1       9.067  -1.652  24.613  0.00  0.00    +0.206 C 
ATOM     20  O   UNL     1       9.308  -0.526  23.783  0.00  0.00    -0.284 OA
ATOM     21  P   UNL     1       9.464  -0.712  22.205  0.00  0.00    +0.475 P 
ATOM     22  O   UNL     1       9.653   0.523  21.395  0.00  0.00    -0.227 OA
ATOM     23  O   UNL     1       8.198  -1.594  21.789  0.00  0.00    -0.278 OA
ATOM     24  O   UNL     1       7.808  -3.776  24.690  0.00  0.00    -0.346 OA
BRANCH  16  25
ATOM     25  O   UNL     1       6.300  -1.160  23.716  0.00  0.00    -0.385 OA
ATOM     26  H   UNL     1       6.905  -0.586  23.207  0.00  0.00    +0.210 HD
ENDBRANCH  16  25
BRANCH  21  27
ATOM     27  O   UNL     1      10.666  -1.757  22.049  0.00  0.00    -0.302 OA
ATOM     28  H   UNL     1      11.044  -1.700  21.151  0.00  0.00    +0.222 HD
ENDBRANCH  21  27
ENDBRANCH  12  15
TORSDOF 3
ENDMDL
MODEL 3
REMARK VINA RESULT:      -7.6      3.627      6.944
REMARK  Name = 
REMARK  3 active torsions:
REMARK  status: ('A' for Active; 'I' for Inactive)
REMARK    1  A    between atoms: N_8  and  C_9
REMARK    2  A    between atoms: P_16  and  O_17
REMARK    3  A    between atoms: C_22  and  O_24
REMARK                            x       y       z     vdW  Elec       q    Type
REMARK                         _______ _______ _______ _____ _____    ______ ____
ROOT
ATOM      1  N   UNL     1       6.546   3.059  21.870  0.00  0.00    -0.329 N 
ATOM      2  H   UNL     1       6.751   3.927  21.391  0.00  0.00    +0.145 HD
ATOM      3  H   UNL     1       5.836   2.515  21.385  0.00  0.00    +0.145 HD
ATOM      4  C   UNL     1       7.609   2.300  22.226  0.00  0.00    +0.195 A 
ATOM      5  N   UNL     1       8.754   2.984  22.585  0.00  0.00    -0.293 N 
ATOM      6  H   UNL     1       8.728   3.983  22.686  0.00  0.00    +0.172 HD
ATOM      7  C   UNL     1       9.944   2.382  22.976  0.00  0.00    +0.280 A 
ATOM      8  O   UNL     1      10.891   3.034  23.403  0.00  0.00    -0.265 OA
ATOM      9  C   UNL     1       9.883   0.938  22.880  0.00  0.00    +0.172 A 
ATOM     10  N   UNL     1      10.824  -0.023  23.156  0.00  0.00    -0.229 NA
ATOM     11  C   UNL     1      10.168  -1.165  23.036  0.00  0.00    +0.203 A 
ATOM     12  N   UNL     1       8.838  -0.968  22.780  0.00  0.00    -0.285 N 
ATOM     13  C   UNL     1       8.677   0.374  22.539  0.00  0.00    +0.171 A 
ATOM     14  N   UNL     1       7.519   0.996  22.208  0.00  0.00    -0.196 NA
ENDROOT
BRANCH  12  15
ATOM     15  C   UNL     1       7.735  -1.849  23.149  0.00  0.00    +0.253 C 
ATOM     16  C   UNL     1       7.635  -1.921  24.681  0.00  0.00    +0.196 C 
ATOM     17  C   UNL     1       8.450  -3.166  24.979  0.00  0.00    +0.194 C 
ATOM     18  C   UNL     1       8.045  -4.076  23.826  0.00  0.00    +0.179 C 
ATOM     19  C   UNL     1       6.711  -4.811  24.054  0.00  0.00    +0.206 C 
ATOM     20  O   UNL     1       6.429  -5.144  25.404  0.00  0.00    -0.284 OA
ATOM     21  P   UNL     1       7.580  -5.057  26.508  0.00  0.00    +0.475 P 
ATOM     22  O   UNL     1       7.193  -5.363  27.913  0.00  0.00    -0.227 OA
ATOM     23  O   UNL     1       8.218  -3.608  26.293  0.00  0.00    -0.278 OA
ATOM     24  O   UNL     1       7.982  -3.205  22.671  0.00  0.00    -0.346 OA
BRANCH  16  25
ATOM     25  O   UNL     1       6.276  -2.088  25.103  0.00  0.00    -0.385 OA
ATOM     26  H   UNL     1       5.959  -2.916  24.694  0.00  0.00    +0.210 HD
ENDBRANCH  16  25
BRANCH  21  27
ATOM     27  O   UNL     1       8.733  -6.017  25.950  0.00  0.00    -0.302 OA
ATOM     28  H   UNL     1       8.777  -6.832  26.485  0.00  0.00    +0.222 HD
ENDBRANCH  21  27
ENDBRANCH  12  15
TORSDOF 3
ENDMDL
MODEL 4
REMARK VINA RESULT:      -7.5      4.704      7.860
REMARK  Name = 
REMARK  3 active torsions:
REMARK  status: ('A' for Active; 'I' for Inactive)
REMARK    1  A    between atoms: N_8  and  C_9
REMARK    2  A    between atoms: P_16  and  O_17
REMARK    3  A    between atoms: C_22  and  O_24
REMARK                            x       y       z     vdW  Elec       q    Type
REMARK                         _______ _______ _______ _____ _____    ______ ____
ROOT
ATOM      1  N   UNL     1      13.369   5.242  22.953  0.00  0.00    -0.329 N 
ATOM      2  H   UNL     1      13.725   6.121  23.305  0.00  0.00    +0.145 HD
ATOM      3  H   UNL     1      13.990   4.465  23.168  0.00  0.00    +0.145 HD
ATOM      4  C   UNL     1      12.079   4.953  23.246  0.00  0.00    +0.195 A 
ATOM      5  N   UNL     1      11.211   6.026  23.307  0.00  0.00    -0.293 N 
ATOM      6  H   UNL     1      11.524   6.938  23.022  0.00  0.00    +0.172 HD
ATOM      7  C   UNL     1       9.855   5.931  23.596  0.00  0.00    +0.280 A 
ATOM      8  O   UNL     1       9.106   6.899  23.516  0.00  0.00    -0.265 OA
ATOM      9  C   UNL     1       9.459   4.576  23.920  0.00  0.00    +0.172 A 
ATOM     10  N   UNL     1       8.238   4.054  24.266  0.00  0.00    -0.229 NA
ATOM     11  C   UNL     1       8.438   2.747  24.295  0.00  0.00    +0.203 A 
ATOM     12  N   UNL     1       9.706   2.414  23.900  0.00  0.00    -0.285 N 
ATOM     13  C   UNL     1      10.408   3.590  23.795  0.00  0.00    +0.171 A 
ATOM     14  N   UNL     1      11.716   3.715  23.463  0.00  0.00    -0.196 NA
ENDROOT
BRANCH  12  15
ATOM     15  C   UNL     1      10.125   1.175  23.255  0.00  0.00    +0.253 C 
ATOM     16  C   UNL     1       8.954   0.610  22.436  0.00  0.00    +0.196 C 
ATOM     17  C   UNL     1       8.337  -0.363  23.423  0.00  0.00    +0.194 C 
ATOM     18  C   UNL     1       9.577  -0.952  24.084  0.00  0.00    +0.179 C 
ATOM     19  C   UNL     1      10.234  -2.085  23.274  0.00  0.00    +0.206 C 
ATOM     20  O   UNL     1       9.336  -2.885  22.520  0.00  0.00    -0.284 OA
ATOM     21  P   UNL     1       7.765  -2.802  22.793  0.00  0.00    +0.475 P 
ATOM     22  O   UNL     1       6.883  -3.625  21.921  0.00  0.00    -0.227 OA
ATOM     23  O   UNL     1       7.448  -1.235  22.772  0.00  0.00    -0.278 OA
ATOM     24  O   UNL     1      10.475   0.171  24.253  0.00  0.00    -0.346 OA
BRANCH  16  25
ATOM     25  O   UNL     1       9.423  -0.078  21.269  0.00  0.00    -0.385 OA
ATOM     26  H   UNL     1      10.142   0.468  20.897  0.00  0.00    +0.210 HD
ENDBRANCH  16  25
BRANCH  21  27
ATOM     27  O   UNL     1       7.617  -3.152  24.347  0.00  0.00    -0.302 OA
ATOM     28  H   UNL     1       7.773  -2.354  24.887  0.00  0.00    +0.222 HD
ENDBRANCH  21  27
ENDBRANCH  12  15
TORSDOF 3
ENDMDL
MODEL 5
REMARK VINA RESULT:      -7.4      3.852      7.146
REMARK  Name = 
REMARK  3 active torsions:
REMARK  status: ('A' for Active; 'I' for Inactive)
REMARK    1  A    between atoms: N_8  and  C_9
REMARK    2  A    between atoms: P_16  and  O_17
REMARK    3  A    between atoms: C_22  and  O_24
REMARK                            x       y       z     vdW  Elec       q    Type
REMARK                         _______ _______ _______ _____ _____    ______ ____
ROOT
ATOM      1  N   UNL     1       6.355   3.789  21.709  0.00  0.00    -0.329 N 
ATOM      2  H   UNL     1       6.520   4.682  21.263  0.00  0.00    +0.145 HD
ATOM      3  H   UNL     1       5.849   3.148  21.103  0.00  0.00    +0.145 HD
ATOM      4  C   UNL     1       7.425   3.198  22.291  0.00  0.00    +0.195 A 
ATOM      5  N   UNL     1       8.357   4.044  22.860  0.00  0.00    -0.293 N 
ATOM      6  H   UNL     1       8.159   5.027  22.932  0.00  0.00    +0.172 HD
ATOM      7  C   UNL     1       9.519   3.627  23.497  0.00  0.00    +0.280 A 
ATOM      8  O   UNL     1      10.249   4.412  24.093  0.00  0.00    -0.265 OA
ATOM      9  C   UNL     1       9.698   2.192  23.422  0.00  0.00    +0.172 A 
ATOM     10  N   UNL     1      10.696   1.383  23.905  0.00  0.00    -0.229 NA
ATOM     11  C   UNL     1      10.260   0.156  23.680  0.00  0.00    +0.203 A 
ATOM     12  N   UNL     1       8.996   0.150  23.155  0.00  0.00    -0.285 N 
ATOM     13  C   UNL     1       8.686   1.454  22.856  0.00  0.00    +0.171 A 
ATOM     14  N   UNL     1       7.539   1.895  22.284  0.00  0.00    -0.196 NA
ENDROOT
BRANCH  12  15
ATOM     15  C   UNL     1       7.987  -0.893  23.311  0.00  0.00    +0.253 C 
ATOM     16  C   UNL     1       8.035  -1.431  24.750  0.00  0.00    +0.196 C 
ATOM     17  C   UNL     1       8.946  -2.634  24.592  0.00  0.00    +0.194 C 
ATOM     18  C   UNL     1       8.491  -3.185  23.247  0.00  0.00    +0.179 C 
ATOM     19  C   UNL     1       7.231  -4.065  23.331  0.00  0.00    +0.206 C 
ATOM     20  O   UNL     1       7.097  -4.813  24.529  0.00  0.00    -0.284 OA
ATOM     21  P   UNL     1       8.338  -4.965  25.522  0.00  0.00    +0.475 P 
ATOM     22  O   UNL     1       8.103  -5.712  26.788  0.00  0.00    -0.227 OA
ATOM     23  O   UNL     1       8.865  -3.470  25.719  0.00  0.00    -0.278 OA
ATOM     24  O   UNL     1       8.268  -2.015  22.424  0.00  0.00    -0.346 OA
BRANCH  16  25
ATOM     25  O   UNL     1       6.733  -1.834  25.195  0.00  0.00    -0.385 OA
ATOM     26  H   UNL     1       6.737  -2.810  25.215  0.00  0.00    +0.210 HD
ENDBRANCH  16  25
BRANCH  21  27
ATOM     27  O   UNL     1       9.489  -5.610  24.616  0.00  0.00    -0.302 OA
ATOM     28  H   UNL     1      10.336  -5.613  25.103  0.00  0.00    +0.222 HD
ENDBRANCH  21  27
ENDBRANCH  12  15
TORSDOF 3
ENDMDL
MODEL 6
REMARK VINA RESULT:      -7.3      1.519      2.652
REMARK  Name = 
REMARK  3 active torsions:
REMARK  status: ('A' for Active; 'I' for Inactive)
REMARK    1  A    between atoms: N_8  and  C_9
REMARK    2  A    between atoms: P_16  and  O_17
REMARK    3  A    between atoms: C_22  and  O_24
REMARK                            x       y       z     vdW  Elec       q    Type
REMARK                         _______ _______ _______ _____ _____    ______ ____
ROOT
ATOM      1  N   UNL     1       5.312  -6.039  22.146  0.00  0.00    -0.329 N 
ATOM      2  H   UNL     1       4.494  -6.620  22.283  0.00  0.00    +0.145 HD
ATOM      3  H   UNL     1       5.195  -5.395  21.367  0.00  0.00    +0.145 HD
ATOM      4  C   UNL     1       5.804  -5.421  23.245  0.00  0.00    +0.195 A 
ATOM      5  N   UNL     1       5.692  -6.110  24.436  0.00  0.00    -0.293 N 
ATOM      6  H   UNL     1       5.373  -7.064  24.433  0.00  0.00    +0.172 HD
ATOM      7  C   UNL     1       6.134  -5.640  25.667  0.00  0.00    +0.280 A 
ATOM      8  O   UNL     1       6.122  -6.343  26.672  0.00  0.00    -0.265 OA
ATOM      9  C   UNL     1       6.652  -4.290  25.581  0.00  0.00    +0.172 A 
ATOM     10  N   UNL     1       7.173  -3.464  26.545  0.00  0.00    -0.229 NA
ATOM     11  C   UNL     1       7.625  -2.420  25.871  0.00  0.00    +0.203 A 
ATOM     12  N   UNL     1       7.491  -2.586  24.519  0.00  0.00    -0.285 N 
ATOM     13  C   UNL     1       6.740  -3.721  24.334  0.00  0.00    +0.171 A 
ATOM     14  N   UNL     1       6.340  -4.232  23.143  0.00  0.00    -0.196 NA
ENDROOT
BRANCH  12  15
ATOM     15  C   UNL     1       8.335  -2.010  23.477  0.00  0.00    +0.253 C 
ATOM     16  C   UNL     1       9.441  -1.167  24.131  0.00  0.00    +0.196 C 
ATOM     17  C   UNL     1       8.823   0.218  24.100  0.00  0.00    +0.194 C 
ATOM     18  C   UNL     1       8.130   0.211  22.744  0.00  0.00    +0.179 C 
ATOM     19  C   UNL     1       9.068   0.528  21.565  0.00  0.00    +0.206 C 
ATOM     20  O   UNL     1      10.123   1.429  21.860  0.00  0.00    -0.284 OA
ATOM     21  P   UNL     1      10.095   2.283  23.209  0.00  0.00    +0.475 P 
ATOM     22  O   UNL     1      11.266   3.161  23.478  0.00  0.00    -0.227 OA
ATOM     23  O   UNL     1       9.796   1.201  24.348  0.00  0.00    -0.278 OA
ATOM     24  O   UNL     1       7.559  -1.115  22.627  0.00  0.00    -0.346 OA
BRANCH  16  25
ATOM     25  O   UNL     1      10.646  -1.205  23.356  0.00  0.00    -0.385 OA
ATOM     26  H   UNL     1      10.372  -1.278  22.422  0.00  0.00    +0.210 HD
ENDBRANCH  16  25
BRANCH  21  27
ATOM     27  O   UNL     1       8.711   3.084  23.138  0.00  0.00    -0.302 OA
ATOM     28  H   UNL     1       7.962   2.459  23.142  0.00  0.00    +0.222 HD
ENDBRANCH  21  27
ENDBRANCH  12  15
TORSDOF 3
ENDMDL
MODEL 7
REMARK VINA RESULT:      -7.3      3.744      6.886
REMARK  Name = 
REMARK  3 active torsions:
REMARK  status: ('A' for Active; 'I' for Inactive)
REMARK    1  A    between atoms: N_8  and  C_9
REMARK    2  A    between atoms: P_16  and  O_17
REMARK    3  A    between atoms: C_22  and  O_24
REMARK                            x       y       z     vdW  Elec       q    Type
REMARK                         _______ _______ _______ _____ _____    ______ ____
ROOT
ATOM      1  N   UNL     1      10.196   2.258  21.544  0.00  0.00    -0.329 N 
ATOM      2  H   UNL     1      10.474   3.218  21.385  0.00  0.00    +0.145 HD
ATOM      3  H   UNL     1      10.948   1.706  21.951  0.00  0.00    +0.145 HD
ATOM      4  C   UNL     1       9.023   2.069  22.193  0.00  0.00    +0.195 A 
ATOM      5  N   UNL     1       8.031   2.998  21.944  0.00  0.00    -0.293 N 
ATOM      6  H   UNL     1       8.163   3.688  21.225  0.00  0.00    +0.172 HD
ATOM      7  C   UNL     1       6.765   2.975  22.516  0.00  0.00    +0.280 A 
ATOM      8  O   UNL     1       5.882   3.752  22.168  0.00  0.00    -0.265 OA
ATOM      9  C   UNL     1       6.623   1.908  23.485  0.00  0.00    +0.172 A 
ATOM     10  N   UNL     1       5.558   1.541  24.270  0.00  0.00    -0.229 NA
ATOM     11  C   UNL     1       5.944   0.411  24.837  0.00  0.00    +0.203 A 
ATOM     12  N   UNL     1       7.169   0.002  24.382  0.00  0.00    -0.285 N 
ATOM     13  C   UNL     1       7.671   1.030  23.621  0.00  0.00    +0.171 A 
ATOM     14  N   UNL     1       8.880   1.057  23.008  0.00  0.00    -0.196 NA
ENDROOT
BRANCH  12  15
ATOM     15  C   UNL     1       7.655  -1.370  24.287  0.00  0.00    +0.253 C 
ATOM     16  C   UNL     1       7.577  -1.834  22.824  0.00  0.00    +0.196 C 
ATOM     17  C   UNL     1       6.231  -2.533  22.800  0.00  0.00    +0.194 C 
ATOM     18  C   UNL     1       6.226  -3.229  24.155  0.00  0.00    +0.179 C 
ATOM     19  C   UNL     1       6.996  -4.563  24.171  0.00  0.00    +0.206 C 
ATOM     20  O   UNL     1       6.961  -5.293  22.956  0.00  0.00    -0.284 OA
ATOM     21  P   UNL     1       5.917  -4.900  21.813  0.00  0.00    +0.475 P 
ATOM     22  O   UNL     1       5.982  -5.673  20.543  0.00  0.00    -0.227 OA
ATOM     23  O   UNL     1       6.102  -3.322  21.643  0.00  0.00    -0.278 OA
ATOM     24  O   UNL     1       6.809  -2.268  25.067  0.00  0.00    -0.346 OA
BRANCH  16  25
ATOM     25  O   UNL     1       8.634  -2.752  22.516  0.00  0.00    -0.385 OA
ATOM     26  H   UNL     1       9.442  -2.215  22.400  0.00  0.00    +0.210 HD
ENDBRANCH  16  25
BRANCH  21  27
ATOM     27  O   UNL     1       4.492  -4.994  22.535  0.00  0.00    -0.302 OA
ATOM     28  H   UNL     1       4.212  -5.927  22.603  0.00  0.00    +0.222 HD
ENDBRANCH  21  27
ENDBRANCH  12  15
TORSDOF 3
ENDMDL
MODEL 8
REMARK VINA RESULT:      -7.2      3.302      6.860
REMARK  Name = 
REMARK  3 active torsions:
REMARK  status: ('A' for Active; 'I' for Inactive)
REMARK    1  A    between atoms: N_8  and  C_9
REMARK    2  A    between atoms: P_16  and  O_17
REMARK    3  A    between atoms: C_22  and  O_24
REMARK                            x       y       z     vdW  Elec       q    Type
REMARK                         _______ _______ _______ _____ _____    ______ ____
ROOT
ATOM      1  N   UNL     1       9.818   2.026  21.481  0.00  0.00    -0.329 N 
ATOM      2  H   UNL     1      10.260   2.932  21.560  0.00  0.00    +0.145 HD
ATOM      3  H   UNL     1      10.347   1.393  20.886  0.00  0.00    +0.145 HD
ATOM      4  C   UNL     1       9.441   1.434  22.639  0.00  0.00    +0.195 A 
ATOM      5  N   UNL     1       9.014   2.279  23.645  0.00  0.00    -0.293 N 
ATOM      6  H   UNL     1       8.883   3.257  23.454  0.00  0.00    +0.172 HD
ATOM      7  C   UNL     1       8.593   1.862  24.902  0.00  0.00    +0.280 A 
ATOM      8  O   UNL     1       8.108   2.641  25.715  0.00  0.00    -0.265 OA
ATOM      9  C   UNL     1       8.737   0.431  25.079  0.00  0.00    +0.172 A 
ATOM     10  N   UNL     1       8.451  -0.376  26.152  0.00  0.00    -0.229 NA
ATOM     11  C   UNL     1       8.634  -1.603  25.695  0.00  0.00    +0.203 A 
ATOM     12  N   UNL     1       8.938  -1.613  24.361  0.00  0.00    -0.285 N 
ATOM     13  C   UNL     1       9.144  -0.306  23.993  0.00  0.00    +0.171 A 
ATOM     14  N   UNL     1       9.503   0.134  22.762  0.00  0.00    -0.196 NA
ENDROOT
BRANCH  12  15
ATOM     15  C   UNL     1       8.643  -2.673  23.402  0.00  0.00    +0.253 C 
ATOM     16  C   UNL     1       7.149  -2.626  23.041  0.00  0.00    +0.196 C 
ATOM     17  C   UNL     1       6.571  -3.636  24.014  0.00  0.00    +0.194 C 
ATOM     18  C   UNL     1       7.650  -4.711  24.012  0.00  0.00    +0.179 C 
ATOM     19  C   UNL     1       7.548  -5.691  22.828  0.00  0.00    +0.206 C 
ATOM     20  O   UNL     1       6.229  -5.954  22.376  0.00  0.00    -0.284 OA
ATOM     21  P   UNL     1       4.976  -5.524  23.266  0.00  0.00    +0.475 P 
ATOM     22  O   UNL     1       3.624  -5.778  22.697  0.00  0.00    -0.227 OA
ATOM     23  O   UNL     1       5.266  -3.997  23.638  0.00  0.00    -0.278 OA
ATOM     24  O   UNL     1       8.901  -3.982  23.991  0.00  0.00    -0.346 OA
BRANCH  16  25
ATOM     25  O   UNL     1       6.932  -3.041  21.687  0.00  0.00    -0.385 OA
ATOM     26  H   UNL     1       6.087  -3.529  21.679  0.00  0.00    +0.210 HD
ENDBRANCH  16  25
BRANCH  21  27
ATOM     27  O   UNL     1       5.217  -6.262  24.666  0.00  0.00    -0.302 OA
ATOM     28  H   UNL     1       5.554  -5.625  25.326  0.00  0.00    +0.222 HD
ENDBRANCH  21  27
ENDBRANCH  12  15
TORSDOF 3
ENDMDL
MODEL 9
REMARK VINA RESULT:      -7.0      3.627      7.085
REMARK  Name = 
REMARK  3 active torsions:
REMARK  status: ('A' for Active; 'I' for Inactive)
REMARK    1  A    between atoms: N_8  and  C_9
REMARK    2  A    between atoms: P_16  and  O_17
REMARK    3  A    between atoms: C_22  and  O_24
REMARK                            x       y       z     vdW  Elec       q    Type
REMARK                         _______ _______ _______ _____ _____    ______ ____
ROOT
ATOM      1  N   UNL     1       6.587   3.293  21.859  0.00  0.00    -0.329 N 
ATOM      2  H   UNL     1       6.775   4.061  21.228  0.00  0.00    +0.145 HD
ATOM      3  H   UNL     1       5.973   2.598  21.442  0.00  0.00    +0.145 HD
ATOM      4  C   UNL     1       7.662   2.725  22.456  0.00  0.00    +0.195 A 
ATOM      5  N   UNL     1       8.711   3.572  22.759  0.00  0.00    -0.293 N 
ATOM      6  H   UNL     1       8.600   4.564  22.645  0.00  0.00    +0.172 HD
ATOM      7  C   UNL     1       9.896   3.175  23.367  0.00  0.00    +0.280 A 
ATOM      8  O   UNL     1      10.743   3.987  23.726  0.00  0.00    -0.265 OA
ATOM      9  C   UNL     1       9.953   1.743  23.571  0.00  0.00    +0.172 A 
ATOM     10  N   UNL     1      10.929   0.950  24.122  0.00  0.00    -0.229 NA
ATOM     11  C   UNL     1      10.376  -0.249  24.190  0.00  0.00    +0.203 A 
ATOM     12  N   UNL     1       9.068  -0.234  23.786  0.00  0.00    -0.285 N 
ATOM     13  C   UNL     1       8.833   1.011  23.256  0.00  0.00    +0.171 A 
ATOM     14  N   UNL     1       7.672   1.441  22.705  0.00  0.00    -0.196 NA
ENDROOT
BRANCH  12  15
ATOM     15  C   UNL     1       8.002  -1.122  24.237  0.00  0.00    +0.253 C 
ATOM     16  C   UNL     1       8.412  -2.579  23.973  0.00  0.00    +0.196 C 
ATOM     17  C   UNL     1       7.765  -2.835  22.625  0.00  0.00    +0.194 C 
ATOM     18  C   UNL     1       6.442  -2.096  22.777  0.00  0.00    +0.179 C 
ATOM     19  C   UNL     1       5.363  -2.901  23.525  0.00  0.00    +0.206 C 
ATOM     20  O   UNL     1       5.417  -4.306  23.330  0.00  0.00    -0.284 OA
ATOM     21  P   UNL     1       6.312  -4.919  22.158  0.00  0.00    +0.475 P 
ATOM     22  O   UNL     1       6.366  -6.403  22.055  0.00  0.00    -0.227 OA
ATOM     23  O   UNL     1       7.733  -4.212  22.343  0.00  0.00    -0.278 OA
ATOM     24  O   UNL     1       6.778  -0.877  23.482  0.00  0.00    -0.346 OA
BRANCH  16  25
ATOM     25  O   UNL     1       7.874  -3.456  24.971  0.00  0.00    -0.385 OA
ATOM     26  H   UNL     1       8.629  -3.956  25.336  0.00  0.00    +0.210 HD
ENDBRANCH  16  25
BRANCH  21  27
ATOM     27  O   UNL     1       5.758  -4.216  20.831  0.00  0.00    -0.302 OA
ATOM     28  H   UNL     1       4.916  -3.758  21.021  0.00  0.00    +0.222 HD
ENDBRANCH  21  27
ENDBRANCH  12  15
TORSDOF 3
ENDMDL
