MODEL 1
REMARK VINA RESULT:      -5.7      0.000      0.000
REMARK  Name = 
REMARK  4 active torsions:
REMARK  status: ('A' for Active; 'I' for Inactive)
REMARK    1  A    between atoms: C_1  and  C_2
REMARK    2  A    between atoms: C_4  and  N_8
REMARK    3  A    between atoms: C_10  and  C_11
REMARK    4  A    between atoms: C_11  and  O_12
REMARK                            x       y       z     vdW  Elec       q    Type
REMARK                         _______ _______ _______ _____ _____    ______ ____
ROOT
ATOM      1  N   UNL     1       6.342  -4.198  22.683  0.00  0.00    -0.234 N 
ATOM      2  C   UNL     1       6.202  -5.305  21.865  0.00  0.00    +0.408 C 
ATOM      3  O   UNL     1       7.024  -5.830  21.131  0.00  0.00    -0.226 OA
ATOM      4  O   UNL     1       4.928  -5.809  21.986  0.00  0.00    -0.443 OA
ATOM      5  C   UNL     1       4.320  -5.183  23.125  0.00  0.00    +0.221 C 
ATOM      6  C   UNL     1       5.070  -3.872  23.252  0.00  0.00    +0.164 C 
ENDROOT
BRANCH   1  12
ATOM      7  C   UNL     1       9.581  -0.570  21.699  0.00  0.00    +0.044 C 
ATOM      8  C   UNL     1       9.161  -1.751  22.522  0.00  0.00    -0.049 A 
ATOM      9  C   UNL     1       9.954  -2.193  23.583  0.00  0.00    +0.003 A 
ATOM     10  C   UNL     1       9.554  -3.291  24.344  0.00  0.00    +0.002 A 
ATOM     11  C   UNL     1       8.361  -3.954  24.048  0.00  0.00    +0.023 A 
ATOM     12  C   UNL     1       7.538  -3.518  23.000  0.00  0.00    +0.040 A 
ATOM     13  C   UNL     1       7.956  -2.413  22.247  0.00  0.00    +0.027 A 
ENDBRANCH   1  12
BRANCH   5  14
ATOM     14  C   UNL     1       4.458  -6.105  24.345  0.00  0.00    +0.202 C 
BRANCH  14  15
ATOM     15  O   UNL     1       4.428  -7.489  24.008  0.00  0.00    -0.391 OA
ATOM     16  H   UNL     1       4.362  -7.995  24.838  0.00  0.00    +0.210 HD
ENDBRANCH  14  15
ENDBRANCH   5  14
TORSDOF 3
ENDMDL
MODEL 2
REMARK VINA RESULT:      -5.6      2.767      3.493
REMARK  Name = 
REMARK  4 active torsions:
REMARK  status: ('A' for Active; 'I' for Inactive)
REMARK    1  A    between atoms: C_1  and  C_2
REMARK    2  A    between atoms: C_4  and  N_8
REMARK    3  A    between atoms: C_10  and  C_11
REMARK    4  A    between atoms: C_11  and  O_12
REMARK                            x       y       z     vdW  Elec       q    Type
REMARK                         _______ _______ _______ _____ _____    ______ ____
ROOT
ATOM      1  N   UNL     1       8.326  -3.518  24.127  0.00  0.00    -0.234 N 
ATOM      2  C   UNL     1       8.986  -4.561  24.753  0.00  0.00    +0.408 C 
ATOM      3  O   UNL     1      10.183  -4.792  24.810  0.00  0.00    -0.226 OA
ATOM      4  O   UNL     1       8.071  -5.379  25.373  0.00  0.00    -0.443 OA
ATOM      5  C   UNL     1       6.813  -4.690  25.388  0.00  0.00    +0.221 C 
ATOM      6  C   UNL     1       6.914  -3.738  24.213  0.00  0.00    +0.164 C 
ENDROOT
BRANCH   1  12
ATOM      7  C   UNL     1      10.922   0.674  24.674  0.00  0.00    +0.044 C 
ATOM      8  C   UNL     1      10.163  -0.282  23.803  0.00  0.00    -0.049 A 
ATOM      9  C   UNL     1      10.008  -0.026  22.439  0.00  0.00    +0.003 A 
ATOM     10  C   UNL     1       9.302  -0.921  21.636  0.00  0.00    +0.002 A 
ATOM     11  C   UNL     1       8.746  -2.076  22.192  0.00  0.00    +0.023 A 
ATOM     12  C   UNL     1       8.904  -2.364  23.556  0.00  0.00    +0.040 A 
ATOM     13  C   UNL     1       9.617  -1.453  24.346  0.00  0.00    +0.027 A 
ENDBRANCH   1  12
BRANCH   5  14
ATOM     14  C   UNL     1       6.632  -3.993  26.745  0.00  0.00    +0.202 C 
BRANCH  14  15
ATOM     15  O   UNL     1       6.952  -4.832  27.851  0.00  0.00    -0.391 OA
ATOM     16  H   UNL     1       7.424  -5.612  27.506  0.00  0.00    +0.210 HD
ENDBRANCH  14  15
ENDBRANCH   5  14
TORSDOF 3
ENDMDL
MODEL 3
REMARK VINA RESULT:      -5.5      5.428      7.507
REMARK  Name = 
REMARK  4 active torsions:
REMARK  status: ('A' for Active; 'I' for Inactive)
REMARK    1  A    between atoms: C_1  and  C_2
REMARK    2  A    between atoms: C_4  and  N_8
REMARK    3  A    between atoms: C_10  and  C_11
REMARK    4  A    between atoms: C_11  and  O_12
REMARK                            x       y       z     vdW  Elec       q    Type
REMARK                         _______ _______ _______ _____ _____    ______ ____
ROOT
ATOM      1  N   UNL     1       9.192   1.965  23.495  0.00  0.00    -0.234 N 
ATOM      2  C   UNL     1       8.391   1.478  22.476  0.00  0.00    +0.408 C 
ATOM      3  O   UNL     1       7.861   2.082  21.557  0.00  0.00    -0.226 OA
ATOM      4  O   UNL     1       8.251   0.117  22.612  0.00  0.00    -0.443 OA
ATOM      5  C   UNL     1       9.218  -0.326  23.574  0.00  0.00    +0.221 C 
ATOM      6  C   UNL     1       9.469   0.908  24.419  0.00  0.00    +0.164 C 
ENDROOT
BRANCH   1  12
ATOM      7  C   UNL     1      13.102   4.996  23.117  0.00  0.00    +0.044 C 
ATOM      8  C   UNL     1      11.656   4.773  23.446  0.00  0.00    -0.049 A 
ATOM      9  C   UNL     1      10.856   5.832  23.878  0.00  0.00    +0.003 A 
ATOM     10  C   UNL     1       9.512   5.616  24.179  0.00  0.00    +0.002 A 
ATOM     11  C   UNL     1       8.960   4.339  24.052  0.00  0.00    +0.023 A 
ATOM     12  C   UNL     1       9.738   3.262  23.604  0.00  0.00    +0.040 A 
ATOM     13  C   UNL     1      11.086   3.499  23.305  0.00  0.00    +0.027 A 
ENDBRANCH   1  12
BRANCH   5  14
ATOM     14  C   UNL     1      10.463  -0.847  22.841  0.00  0.00    +0.202 C 
BRANCH  14  15
ATOM     15  O   UNL     1      10.154  -1.518  21.622  0.00  0.00    -0.391 OA
ATOM     16  H   UNL     1       9.395  -1.060  21.216  0.00  0.00    +0.210 HD
ENDBRANCH  14  15
ENDBRANCH   5  14
TORSDOF 3
ENDMDL
MODEL 4
REMARK VINA RESULT:      -5.4      2.970      5.678
REMARK  Name = 
REMARK  4 active torsions:
REMARK  status: ('A' for Active; 'I' for Inactive)
REMARK    1  A    between atoms: C_1  and  C_2
REMARK    2  A    between atoms: C_4  and  N_8
REMARK    3  A    between atoms: C_10  and  C_11
REMARK    4  A    between atoms: C_11  and  O_12
REMARK                            x       y       z     vdW  Elec       q    Type
REMARK                         _______ _______ _______ _____ _____    ______ ____
ROOT
ATOM      1  N   UNL     1       8.119  -2.631  23.526  0.00  0.00    -0.234 N 
ATOM      2  C   UNL     1       9.461  -2.629  23.867  0.00  0.00    +0.408 C 
ATOM      3  O   UNL     1      10.174  -3.563  24.197  0.00  0.00    -0.226 OA
ATOM      4  O   UNL     1       9.957  -1.350  23.773  0.00  0.00    -0.443 OA
ATOM      5  C   UNL     1       8.985  -0.556  23.079  0.00  0.00    +0.221 C 
ATOM      6  C   UNL     1       7.680  -1.282  23.344  0.00  0.00    +0.164 C 
ENDROOT
BRANCH   1  12
ATOM      7  C   UNL     1       5.130  -6.160  25.322  0.00  0.00    +0.044 C 
ATOM      8  C   UNL     1       5.839  -5.520  24.166  0.00  0.00    -0.049 A 
ATOM      9  C   UNL     1       5.710  -6.044  22.879  0.00  0.00    +0.003 A 
ATOM     10  C   UNL     1       6.372  -5.442  21.809  0.00  0.00    +0.002 A 
ATOM     11  C   UNL     1       7.168  -4.313  22.022  0.00  0.00    +0.023 A 
ATOM     12  C   UNL     1       7.299  -3.758  23.302  0.00  0.00    +0.040 A 
ATOM     13  C   UNL     1       6.625  -4.376  24.364  0.00  0.00    +0.027 A 
ENDBRANCH   1  12
BRANCH   5  14
ATOM     14  C   UNL     1       9.364  -0.471  21.594  0.00  0.00    +0.202 C 
BRANCH  14  15
ATOM     15  O   UNL     1       9.135   0.818  21.031  0.00  0.00    -0.391 OA
ATOM     16  H   UNL     1       9.249   1.476  21.741  0.00  0.00    +0.210 HD
ENDBRANCH  14  15
ENDBRANCH   5  14
TORSDOF 3
ENDMDL
MODEL 5
REMARK VINA RESULT:      -5.4      2.734      5.679
REMARK  Name = 
REMARK  4 active torsions:
REMARK  status: ('A' for Active; 'I' for Inactive)
REMARK    1  A    between atoms: C_1  and  C_2
REMARK    2  A    between atoms: C_4  and  N_8
REMARK    3  A    between atoms: C_10  and  C_11
REMARK    4  A    between atoms: C_11  and  O_12
REMARK                            x       y       z     vdW  Elec       q    Type
REMARK                         _______ _______ _______ _____ _____    ______ ____
ROOT
ATOM      1  N   UNL     1       7.800  -3.697  24.470  0.00  0.00    -0.234 N 
ATOM      2  C   UNL     1       9.167  -3.918  24.491  0.00  0.00    +0.408 C 
ATOM      3  O   UNL     1       9.777  -4.950  24.721  0.00  0.00    -0.226 OA
ATOM      4  O   UNL     1       9.826  -2.751  24.184  0.00  0.00    -0.443 OA
ATOM      5  C   UNL     1       8.857  -1.826  23.673  0.00  0.00    +0.221 C 
ATOM      6  C   UNL     1       7.555  -2.299  24.288  0.00  0.00    +0.164 C 
ENDROOT
BRANCH   1  12
ATOM      7  C   UNL     1       4.917  -6.694  27.176  0.00  0.00    +0.044 C 
ATOM      8  C   UNL     1       5.361  -6.171  25.843  0.00  0.00    -0.049 A 
ATOM      9  C   UNL     1       4.786  -6.655  24.665  0.00  0.00    +0.003 A 
ATOM     10  C   UNL     1       5.204  -6.161  23.430  0.00  0.00    +0.002 A 
ATOM     11  C   UNL     1       6.199  -5.183  23.364  0.00  0.00    +0.023 A 
ATOM     12  C   UNL     1       6.779  -4.669  24.532  0.00  0.00    +0.040 A 
ATOM     13  C   UNL     1       6.345  -5.176  25.765  0.00  0.00    +0.027 A 
ENDBRANCH   1  12
BRANCH   5  14
ATOM     14  C   UNL     1       8.876  -1.866  22.138  0.00  0.00    +0.202 C 
BRANCH  14  15
ATOM     15  O   UNL     1      10.165  -1.611  21.587  0.00  0.00    -0.391 OA
ATOM     16  H   UNL     1      10.627  -2.466  21.506  0.00  0.00    +0.210 HD
ENDBRANCH  14  15
ENDBRANCH   5  14
TORSDOF 3
ENDMDL
MODEL 6
REMARK VINA RESULT:      -5.3      3.645      5.717
REMARK  Name = 
REMARK  4 active torsions:
REMARK  status: ('A' for Active; 'I' for Inactive)
REMARK    1  A    between atoms: C_1  and  C_2
REMARK    2  A    between atoms: C_4  and  N_8
REMARK    3  A    between atoms: C_10  and  C_11
REMARK    4  A    between atoms: C_11  and  O_12
REMARK                            x       y       z     vdW  Elec       q    Type
REMARK                         _______ _______ _______ _____ _____    ______ ____
ROOT
ATOM      1  N   UNL     1       8.898  -1.500  23.594  0.00  0.00    -0.234 N 
ATOM      2  C   UNL     1      10.075  -1.196  22.932  0.00  0.00    +0.408 C 
ATOM      3  O   UNL     1      10.869  -1.947  22.390  0.00  0.00    -0.226 OA
ATOM      4  O   UNL     1      10.268   0.165  22.939  0.00  0.00    -0.443 OA
ATOM      5  C   UNL     1       9.042   0.776  23.365  0.00  0.00    +0.221 C 
ATOM      6  C   UNL     1       8.371  -0.308  24.186  0.00  0.00    +0.164 C 
ENDROOT
BRANCH   1  12
ATOM      7  C   UNL     1       6.294  -5.036  21.284  0.00  0.00    +0.044 C 
ATOM      8  C   UNL     1       6.939  -4.496  22.526  0.00  0.00    -0.049 A 
ATOM      9  C   UNL     1       6.876  -5.210  23.725  0.00  0.00    +0.003 A 
ATOM     10  C   UNL     1       7.479  -4.701  24.874  0.00  0.00    +0.002 A 
ATOM     11  C   UNL     1       8.149  -3.476  24.832  0.00  0.00    +0.023 A 
ATOM     12  C   UNL     1       8.242  -2.749  23.637  0.00  0.00    +0.040 A 
ATOM     13  C   UNL     1       7.630  -3.277  22.492  0.00  0.00    +0.027 A 
ENDBRANCH   1  12
BRANCH   5  14
ATOM     14  C   UNL     1       8.238   1.216  22.133  0.00  0.00    +0.202 C 
BRANCH  14  15
ATOM     15  O   UNL     1       8.990   2.029  21.236  0.00  0.00    -0.391 OA
ATOM     16  H   UNL     1       8.452   2.816  21.026  0.00  0.00    +0.210 HD
ENDBRANCH  14  15
ENDBRANCH   5  14
TORSDOF 3
ENDMDL
MODEL 7
REMARK VINA RESULT:      -5.3      2.892      5.429
REMARK  Name = 
REMARK  4 active torsions:
REMARK  status: ('A' for Active; 'I' for Inactive)
REMARK    1  A    between atoms: C_1  and  C_2
REMARK    2  A    between atoms: C_4  and  N_8
REMARK    3  A    between atoms: C_10  and  C_11
REMARK    4  A    between atoms: C_11  and  O_12
REMARK                            x       y       z     vdW  Elec       q    Type
REMARK                         _______ _______ _______ _____ _____    ______ ____
ROOT
ATOM      1  N   UNL     1       8.043  -3.354  24.623  0.00  0.00    -0.234 N 
ATOM      2  C   UNL     1       9.406  -3.569  24.514  0.00  0.00    +0.408 C 
ATOM      3  O   UNL     1      10.047  -4.581  24.747  0.00  0.00    -0.226 OA
ATOM      4  O   UNL     1      10.018  -2.423  24.063  0.00  0.00    -0.443 OA
ATOM      5  C   UNL     1       8.990  -1.537  23.596  0.00  0.00    +0.221 C 
ATOM      6  C   UNL     1       7.765  -1.972  24.375  0.00  0.00    +0.164 C 
ENDROOT
BRANCH   1  12
ATOM      7  C   UNL     1       4.082  -5.875  23.018  0.00  0.00    +0.044 C 
ATOM      8  C   UNL     1       5.076  -5.563  24.096  0.00  0.00    -0.049 A 
ATOM      9  C   UNL     1       5.006  -6.208  25.332  0.00  0.00    +0.003 A 
ATOM     10  C   UNL     1       5.936  -5.914  26.328  0.00  0.00    +0.002 A 
ATOM     11  C   UNL     1       6.941  -4.972  26.095  0.00  0.00    +0.023 A 
ATOM     12  C   UNL     1       7.043  -4.323  24.856  0.00  0.00    +0.040 A 
ATOM     13  C   UNL     1       6.100  -4.633  23.867  0.00  0.00    +0.027 A 
ENDBRANCH   1  12
BRANCH   5  14
ATOM     14  C   UNL     1       8.849  -1.680  22.074  0.00  0.00    +0.202 C 
BRANCH  14  15
ATOM     15  O   UNL     1      10.095  -1.603  21.387  0.00  0.00    -0.391 OA
ATOM     16  H   UNL     1      10.082  -2.269  20.675  0.00  0.00    +0.210 HD
ENDBRANCH  14  15
ENDBRANCH   5  14
TORSDOF 3
ENDMDL
MODEL 8
REMARK VINA RESULT:      -5.3      2.237      2.898
REMARK  Name = 
REMARK  4 active torsions:
REMARK  status: ('A' for Active; 'I' for Inactive)
REMARK    1  A    between atoms: C_1  and  C_2
REMARK    2  A    between atoms: C_4  and  N_8
REMARK    3  A    between atoms: C_10  and  C_11
REMARK    4  A    between atoms: C_11  and  O_12
REMARK                            x       y       z     vdW  Elec       q    Type
REMARK                         _______ _______ _______ _____ _____    ______ ____
ROOT
ATOM      1  N   UNL     1       7.531  -3.047  23.918  0.00  0.00    -0.234 N 
ATOM      2  C   UNL     1       7.149  -4.231  23.312  0.00  0.00    +0.408 C 
ATOM      3  O   UNL     1       7.244  -4.563  22.142  0.00  0.00    -0.226 OA
ATOM      4  O   UNL     1       6.612  -5.077  24.253  0.00  0.00    -0.443 OA
ATOM      5  C   UNL     1       6.918  -4.538  25.547  0.00  0.00    +0.221 C 
ATOM      6  C   UNL     1       7.096  -3.056  25.282  0.00  0.00    +0.164 C 
ENDROOT
BRANCH   1  12
ATOM      7  C   UNL     1       7.763   1.504  21.954  0.00  0.00    +0.044 C 
ATOM      8  C   UNL     1       8.435   0.225  22.358  0.00  0.00    -0.049 A 
ATOM      9  C   UNL     1       9.805   0.050  22.155  0.00  0.00    +0.003 A 
ATOM     10  C   UNL     1      10.422  -1.141  22.536  0.00  0.00    +0.002 A 
ATOM     11  C   UNL     1       9.671  -2.165  23.119  0.00  0.00    +0.023 A 
ATOM     12  C   UNL     1       8.297  -2.007  23.350  0.00  0.00    +0.040 A 
ATOM     13  C   UNL     1       7.696  -0.802  22.962  0.00  0.00    +0.027 A 
ENDBRANCH   1  12
BRANCH   5  14
ATOM     14  C   UNL     1       8.171  -5.230  26.103  0.00  0.00    +0.202 C 
BRANCH  14  15
ATOM     15  O   UNL     1       7.974  -5.785  27.400  0.00  0.00    -0.391 OA
ATOM     16  H   UNL     1       8.296  -6.705  27.381  0.00  0.00    +0.210 HD
ENDBRANCH  14  15
ENDBRANCH   5  14
TORSDOF 3
ENDMDL
MODEL 9
REMARK VINA RESULT:      -5.2      3.695      6.022
REMARK  Name = 
REMARK  4 active torsions:
REMARK  status: ('A' for Active; 'I' for Inactive)
REMARK    1  A    between atoms: C_1  and  C_2
REMARK    2  A    between atoms: C_4  and  N_8
REMARK    3  A    between atoms: C_10  and  C_11
REMARK    4  A    between atoms: C_11  and  O_12
REMARK                            x       y       z     vdW  Elec       q    Type
REMARK                         _______ _______ _______ _____ _____    ______ ____
ROOT
ATOM      1  N   UNL     1       8.984  -1.347  23.688  0.00  0.00    -0.234 N 
ATOM      2  C   UNL     1      10.140  -1.095  22.971  0.00  0.00    +0.408 C 
ATOM      3  O   UNL     1      10.865  -1.877  22.377  0.00  0.00    -0.226 OA
ATOM      4  O   UNL     1      10.407   0.254  22.987  0.00  0.00    -0.443 OA
ATOM      5  C   UNL     1       9.238   0.922  23.484  0.00  0.00    +0.221 C 
ATOM      6  C   UNL     1       8.553  -0.139  24.323  0.00  0.00    +0.164 C 
ENDROOT
BRANCH   1  12
ATOM      7  C   UNL     1       7.583  -5.361  26.246  0.00  0.00    +0.044 C 
ATOM      8  C   UNL     1       7.578  -4.558  24.979  0.00  0.00    -0.049 A 
ATOM      9  C   UNL     1       6.886  -5.013  23.855  0.00  0.00    +0.003 A 
ATOM     10  C   UNL     1       6.885  -4.259  22.682  0.00  0.00    +0.002 A 
ATOM     11  C   UNL     1       7.577  -3.047  22.626  0.00  0.00    +0.023 A 
ATOM     12  C   UNL     1       8.265  -2.560  23.747  0.00  0.00    +0.040 A 
ATOM     13  C   UNL     1       8.253  -3.331  24.917  0.00  0.00    +0.027 A 
ENDBRANCH   1  12
BRANCH   5  14
ATOM     14  C   UNL     1       8.398   1.425  22.301  0.00  0.00    +0.202 C 
BRANCH  14  15
ATOM     15  O   UNL     1       9.157   2.169  21.352  0.00  0.00    -0.391 OA
ATOM     16  H   UNL     1       8.675   2.997  21.171  0.00  0.00    +0.210 HD
ENDBRANCH  14  15
ENDBRANCH   5  14
TORSDOF 3
ENDMDL
