MODEL 1
REMARK VINA RESULT:      -4.3      0.000      0.000
REMARK  Name = 
REMARK  8 active torsions:
REMARK  status: ('A' for Active; 'I' for Inactive)
REMARK    1  A    between atoms: N_1  and  C_2
REMARK    2  A    between atoms: C_2  and  C_4
REMARK    3  A    between atoms: C_2  and  C_10
REMARK    4  A    between atoms: C_4  and  S_5
REMARK    5  A    between atoms: S_5  and  P_6
REMARK    6  A    between atoms: P_6  and  O_7
REMARK    7  A    between atoms: P_6  and  O_8
REMARK    8  A    between atoms: C_10  and  O_11
REMARK                            x       y       z     vdW  Elec       q    Type
REMARK                         _______ _______ _______ _____ _____    ______ ____
ROOT
ATOM      1  C   UNK     1       8.050  -5.253  25.649  0.00  0.00    +0.171 C 
ENDROOT
BRANCH   1   2
ATOM      2  N   UNK     1       8.120  -5.598  27.114  0.00  0.00    -0.318 NA
ATOM      3  H   UNK     1       7.247  -6.053  27.399  0.00  0.00    +0.119 HD
ATOM      4  H   UNK     1       8.837  -6.322  27.238  0.00  0.00    +0.119 HD
ENDBRANCH   1   2
BRANCH   1   5
ATOM      5  C   UNK     1       9.474  -4.817  25.201  0.00  0.00    +0.323 C 
ATOM      6  O   UNK     1       9.760  -3.921  24.422  0.00  0.00    -0.249 OA
BRANCH   5   7
ATOM      7  O   UNK     1      10.426  -5.614  25.753  0.00  0.00    -0.480 OA
ATOM      8  H   UNK     1      10.232  -5.627  26.722  0.00  0.00    +0.295 HD
ENDBRANCH   5   7
ENDBRANCH   1   5
BRANCH   1   9
ATOM      9  C   UNK     1       6.950  -4.205  25.373  0.00  0.00    +0.111 C 
BRANCH   9  10
ATOM     10  S   UNK     1       5.840  -4.762  24.063  0.00  0.00    -0.039 S 
BRANCH  10  11
ATOM     11  P   UNK     1       6.760  -4.594  22.236  0.00  0.00    +0.386 P 
ATOM     12  O   UNK     1       7.349  -5.879  21.774  0.00  0.00    -0.246 OA
BRANCH  11  13
ATOM     13  O   UNK     1       7.776  -3.364  22.346  0.00  0.00    -0.316 OA
ATOM     14  H   UNK     1       7.675  -2.717  21.627  0.00  0.00    +0.221 HD
ENDBRANCH  11  13
BRANCH  11  15
ATOM     15  O   UNK     1       5.637  -3.984  21.269  0.00  0.00    -0.316 OA
ATOM     16  H   UNK     1       5.816  -3.048  21.058  0.00  0.00    +0.221 HD
ENDBRANCH  11  15
ENDBRANCH  10  11
ENDBRANCH   9  10
ENDBRANCH   1   9
TORSDOF 8
ENDMDL
MODEL 2
REMARK VINA RESULT:      -4.3      0.203      1.285
REMARK  Name = 
REMARK  8 active torsions:
REMARK  status: ('A' for Active; 'I' for Inactive)
REMARK    1  A    between atoms: N_1  and  C_2
REMARK    2  A    between atoms: C_2  and  C_4
REMARK    3  A    between atoms: C_2  and  C_10
REMARK    4  A    between atoms: C_4  and  S_5
REMARK    5  A    between atoms: S_5  and  P_6
REMARK    6  A    between atoms: P_6  and  O_7
REMARK    7  A    between atoms: P_6  and  O_8
REMARK    8  A    between atoms: C_10  and  O_11
REMARK                            x       y       z     vdW  Elec       q    Type
REMARK                         _______ _______ _______ _____ _____    ______ ____
ROOT
ATOM      1  C   UNK     1       7.984  -5.252  25.673  0.00  0.00    +0.171 C 
ENDROOT
BRANCH   1   2
ATOM      2  N   UNK     1       8.065  -5.622  27.131  0.00  0.00    -0.318 NA
ATOM      3  H   UNK     1       8.317  -6.612  27.218  0.00  0.00    +0.119 HD
ATOM      4  H   UNK     1       8.858  -5.119  27.547  0.00  0.00    +0.119 HD
ENDBRANCH   1   2
BRANCH   1   5
ATOM      5  C   UNK     1       9.417  -4.867  25.207  0.00  0.00    +0.323 C 
ATOM      6  O   UNK     1       9.723  -4.000  24.403  0.00  0.00    -0.249 OA
BRANCH   5   7
ATOM      7  O   UNK     1      10.351  -5.673  25.776  0.00  0.00    -0.480 OA
ATOM      8  H   UNK     1      11.197  -5.162  25.745  0.00  0.00    +0.295 HD
ENDBRANCH   5   7
ENDBRANCH   1   5
BRANCH   1   9
ATOM      9  C   UNK     1       6.923  -4.158  25.430  0.00  0.00    +0.111 C 
BRANCH   9  10
ATOM     10  S   UNK     1       5.747  -4.668  24.159  0.00  0.00    -0.039 S 
BRANCH  10  11
ATOM     11  P   UNK     1       6.626  -4.586  22.307  0.00  0.00    +0.386 P 
ATOM     12  O   UNK     1       5.639  -4.372  21.216  0.00  0.00    -0.246 OA
BRANCH  11  13
ATOM     13  O   UNK     1       7.536  -5.895  22.172  0.00  0.00    -0.316 OA
ATOM     14  H   UNK     1       8.421  -5.788  22.561  0.00  0.00    +0.221 HD
ENDBRANCH  11  13
BRANCH  11  15
ATOM     15  O   UNK     1       7.742  -3.443  22.435  0.00  0.00    -0.316 OA
ATOM     16  H   UNK     1       8.619  -3.820  22.637  0.00  0.00    +0.221 HD
ENDBRANCH  11  15
ENDBRANCH  10  11
ENDBRANCH   9  10
ENDBRANCH   1   9
TORSDOF 8
ENDMDL
MODEL 3
REMARK VINA RESULT:      -4.2      5.033      5.853
REMARK  Name = 
REMARK  8 active torsions:
REMARK  status: ('A' for Active; 'I' for Inactive)
REMARK    1  A    between atoms: N_1  and  C_2
REMARK    2  A    between atoms: C_2  and  C_4
REMARK    3  A    between atoms: C_2  and  C_10
REMARK    4  A    between atoms: C_4  and  S_5
REMARK    5  A    between atoms: S_5  and  P_6
REMARK    6  A    between atoms: P_6  and  O_7
REMARK    7  A    between atoms: P_6  and  O_8
REMARK    8  A    between atoms: C_10  and  O_11
REMARK                            x       y       z     vdW  Elec       q    Type
REMARK                         _______ _______ _______ _____ _____    ______ ____
ROOT
ATOM      1  C   UNK     1       9.014   1.327  23.385  0.00  0.00    +0.171 C 
ENDROOT
BRANCH   1   2
ATOM      2  N   UNK     1       7.636   0.736  23.524  0.00  0.00    -0.318 NA
ATOM      3  H   UNK     1       7.004   1.180  22.849  0.00  0.00    +0.119 HD
ATOM      4  H   UNK     1       7.676  -0.246  23.226  0.00  0.00    +0.119 HD
ENDBRANCH   1   2
BRANCH   1   5
ATOM      5  C   UNK     1       9.426   1.211  21.890  0.00  0.00    +0.323 C 
ATOM      6  O   UNK     1       9.234   0.263  21.144  0.00  0.00    -0.249 OA
BRANCH   5   7
ATOM      7  O   UNK     1      10.111   2.311  21.483  0.00  0.00    -0.480 OA
ATOM      8  H   UNK     1       9.514   2.774  20.846  0.00  0.00    +0.295 HD
ENDBRANCH   5   7
ENDBRANCH   1   5
BRANCH   1   9
ATOM      9  C   UNK     1      10.006   0.673  24.370  0.00  0.00    +0.111 C 
BRANCH   9  10
ATOM     10  S   UNK     1       9.350  -0.881  25.013  0.00  0.00    -0.039 S 
BRANCH  10  11
ATOM     11  P   UNK     1       9.594  -2.379  23.632  0.00  0.00    +0.386 P 
ATOM     12  O   UNK     1       9.795  -3.710  24.263  0.00  0.00    -0.246 OA
BRANCH  11  13
ATOM     13  O   UNK     1      10.751  -1.901  22.636  0.00  0.00    -0.316 OA
ATOM     14  H   UNK     1      10.984  -0.963  22.741  0.00  0.00    +0.221 HD
ENDBRANCH  11  13
BRANCH  11  15
ATOM     15  O   UNK     1       8.305  -2.274  22.685  0.00  0.00    -0.316 OA
ATOM     16  H   UNK     1       7.612  -2.906  22.952  0.00  0.00    +0.221 HD
ENDBRANCH  11  15
ENDBRANCH  10  11
ENDBRANCH   9  10
ENDBRANCH   1   9
TORSDOF 8
ENDMDL
MODEL 4
REMARK VINA RESULT:      -4.1      3.627      4.600
REMARK  Name = 
REMARK  8 active torsions:
REMARK  status: ('A' for Active; 'I' for Inactive)
REMARK    1  A    between atoms: N_1  and  C_2
REMARK    2  A    between atoms: C_2  and  C_4
REMARK    3  A    between atoms: C_2  and  C_10
REMARK    4  A    between atoms: C_4  and  S_5
REMARK    5  A    between atoms: S_5  and  P_6
REMARK    6  A    between atoms: P_6  and  O_7
REMARK    7  A    between atoms: P_6  and  O_8
REMARK    8  A    between atoms: C_10  and  O_11
REMARK                            x       y       z     vdW  Elec       q    Type
REMARK                         _______ _______ _______ _____ _____    ______ ____
ROOT
ATOM      1  C   UNK     1       8.681  -1.611  23.006  0.00  0.00    +0.171 C 
ENDROOT
BRANCH   1   2
ATOM      2  N   UNK     1       7.856  -2.691  22.358  0.00  0.00    -0.318 NA
ATOM      3  H   UNK     1       7.433  -2.327  21.498  0.00  0.00    +0.119 HD
ATOM      4  H   UNK     1       8.492  -3.430  22.035  0.00  0.00    +0.119 HD
ENDBRANCH   1   2
BRANCH   1   5
ATOM      5  C   UNK     1       9.467  -0.881  21.880  0.00  0.00    +0.323 C 
ATOM      6  O   UNK     1       9.149   0.150  21.307  0.00  0.00    -0.249 OA
BRANCH   5   7
ATOM      7  O   UNK     1      10.585  -1.572  21.535  0.00  0.00    -0.480 OA
ATOM      8  H   UNK     1      10.504  -2.449  21.985  0.00  0.00    +0.295 HD
ENDBRANCH   5   7
ENDBRANCH   1   5
BRANCH   1   9
ATOM      9  C   UNK     1       9.570  -2.183  24.130  0.00  0.00    +0.111 C 
BRANCH   9  10
ATOM     10  S   UNK     1       8.573  -3.019  25.382  0.00  0.00    -0.039 S 
BRANCH  10  11
ATOM     11  P   UNK     1       8.814  -5.052  25.238  0.00  0.00    +0.386 P 
ATOM     12  O   UNK     1       8.040  -5.792  26.270  0.00  0.00    -0.246 OA
BRANCH  11  13
ATOM     13  O   UNK     1      10.389  -5.327  25.222  0.00  0.00    -0.316 OA
ATOM     14  H   UNK     1      10.858  -4.833  24.528  0.00  0.00    +0.221 HD
ENDBRANCH  11  13
BRANCH  11  15
ATOM     15  O   UNK     1       8.421  -5.403  23.725  0.00  0.00    -0.316 OA
ATOM     16  H   UNK     1       7.841  -4.720  23.338  0.00  0.00    +0.221 HD
ENDBRANCH  11  15
ENDBRANCH  10  11
ENDBRANCH   9  10
ENDBRANCH   1   9
TORSDOF 8
ENDMDL
MODEL 5
REMARK VINA RESULT:      -4.1      5.751      6.576
REMARK  Name = 
REMARK  8 active torsions:
REMARK  status: ('A' for Active; 'I' for Inactive)
REMARK    1  A    between atoms: N_1  and  C_2
REMARK    2  A    between atoms: C_2  and  C_4
REMARK    3  A    between atoms: C_2  and  C_10
REMARK    4  A    between atoms: C_4  and  S_5
REMARK    5  A    between atoms: S_5  and  P_6
REMARK    6  A    between atoms: P_6  and  O_7
REMARK    7  A    between atoms: P_6  and  O_8
REMARK    8  A    between atoms: C_10  and  O_11
REMARK                            x       y       z     vdW  Elec       q    Type
REMARK                         _______ _______ _______ _____ _____    ______ ____
ROOT
ATOM      1  C   UNK     1       8.784  -0.747  23.368  0.00  0.00    +0.171 C 
ENDROOT
BRANCH   1   2
ATOM      2  N   UNK     1       7.710  -1.750  23.695  0.00  0.00    -0.318 NA
ATOM      3  H   UNK     1       6.879  -1.260  24.042  0.00  0.00    +0.119 HD
ATOM      4  H   UNK     1       7.400  -2.186  22.818  0.00  0.00    +0.119 HD
ENDBRANCH   1   2
BRANCH   1   5
ATOM      5  C   UNK     1       9.817  -1.450  22.443  0.00  0.00    +0.323 C 
ATOM      6  O   UNK     1      10.596  -2.339  22.750  0.00  0.00    -0.249 OA
BRANCH   5   7
ATOM      7  O   UNK     1       9.806  -0.910  21.196  0.00  0.00    -0.480 OA
ATOM      8  H   UNK     1      10.741  -0.962  20.877  0.00  0.00    +0.295 HD
ENDBRANCH   5   7
ENDBRANCH   1   5
BRANCH   1   9
ATOM      9  C   UNK     1       9.391  -0.138  24.650  0.00  0.00    +0.111 C 
BRANCH   9  10
ATOM     10  S   UNK     1      10.722   1.015  24.251  0.00  0.00    -0.039 S 
BRANCH  10  11
ATOM     11  P   UNK     1      10.005   2.552  23.095  0.00  0.00    +0.386 P 
ATOM     12  O   UNK     1       8.688   3.054  23.568  0.00  0.00    -0.246 OA
BRANCH  11  13
ATOM     13  O   UNK     1      10.052   2.045  21.579  0.00  0.00    -0.316 OA
ATOM     14  H   UNK     1      10.955   1.899  21.250  0.00  0.00    +0.221 HD
ENDBRANCH  11  13
BRANCH  11  15
ATOM     15  O   UNK     1      11.179   3.643  23.095  0.00  0.00    -0.316 OA
ATOM     16  H   UNK     1      11.789   3.512  22.344  0.00  0.00    +0.221 HD
ENDBRANCH  11  15
ENDBRANCH  10  11
ENDBRANCH   9  10
ENDBRANCH   1   9
TORSDOF 8
ENDMDL
MODEL 6
REMARK VINA RESULT:      -4.1      2.298      2.851
REMARK  Name = 
REMARK  8 active torsions:
REMARK  status: ('A' for Active; 'I' for Inactive)
REMARK    1  A    between atoms: N_1  and  C_2
REMARK    2  A    between atoms: C_2  and  C_4
REMARK    3  A    between atoms: C_2  and  C_10
REMARK    4  A    between atoms: C_4  and  S_5
REMARK    5  A    between atoms: S_5  and  P_6
REMARK    6  A    between atoms: P_6  and  O_7
REMARK    7  A    between atoms: P_6  and  O_8
REMARK    8  A    between atoms: C_10  and  O_11
REMARK                            x       y       z     vdW  Elec       q    Type
REMARK                         _______ _______ _______ _____ _____    ______ ____
ROOT
ATOM      1  C   UNK     1       8.739  -3.904  24.757  0.00  0.00    +0.171 C 
ENDROOT
BRANCH   1   2
ATOM      2  N   UNK     1       9.977  -3.383  24.076  0.00  0.00    -0.318 NA
ATOM      3  H   UNK     1      10.795  -3.898  24.416  0.00  0.00    +0.119 HD
ATOM      4  H   UNK     1       9.920  -3.624  23.079  0.00  0.00    +0.119 HD
ENDBRANCH   1   2
BRANCH   1   5
ATOM      5  C   UNK     1       9.197  -4.765  25.969  0.00  0.00    +0.323 C 
ATOM      6  O   UNK     1       8.719  -4.770  27.093  0.00  0.00    -0.249 OA
BRANCH   5   7
ATOM      7  O   UNK     1      10.283  -5.519  25.651  0.00  0.00    -0.480 OA
ATOM      8  H   UNK     1      10.356  -5.476  24.666  0.00  0.00    +0.295 HD
ENDBRANCH   5   7
ENDBRANCH   1   5
BRANCH   1   9
ATOM      9  C   UNK     1       7.822  -4.647  23.763  0.00  0.00    +0.111 C 
BRANCH   9  10
ATOM     10  S   UNK     1       6.246  -5.076  24.533  0.00  0.00    -0.039 S 
BRANCH  10  11
ATOM     11  P   UNK     1       5.025  -6.010  23.173  0.00  0.00    +0.386 P 
ATOM     12  O   UNK     1       3.943  -5.120  22.673  0.00  0.00    -0.246 OA
BRANCH  11  13
ATOM     13  O   UNK     1       4.543  -7.376  23.851  0.00  0.00    -0.316 OA
ATOM     14  H   UNK     1       5.278  -7.951  24.120  0.00  0.00    +0.221 HD
ENDBRANCH  11  13
BRANCH  11  15
ATOM     15  O   UNK     1       6.018  -6.558  22.042  0.00  0.00    -0.316 OA
ATOM     16  H   UNK     1       6.886  -6.112  22.080  0.00  0.00    +0.221 HD
ENDBRANCH  11  15
ENDBRANCH  10  11
ENDBRANCH   9  10
ENDBRANCH   1   9
TORSDOF 8
ENDMDL
MODEL 7
REMARK VINA RESULT:      -4.0      2.450      3.348
REMARK  Name = 
REMARK  8 active torsions:
REMARK  status: ('A' for Active; 'I' for Inactive)
REMARK    1  A    between atoms: N_1  and  C_2
REMARK    2  A    between atoms: C_2  and  C_4
REMARK    3  A    between atoms: C_2  and  C_10
REMARK    4  A    between atoms: C_4  and  S_5
REMARK    5  A    between atoms: S_5  and  P_6
REMARK    6  A    between atoms: P_6  and  O_7
REMARK    7  A    between atoms: P_6  and  O_8
REMARK    8  A    between atoms: C_10  and  O_11
REMARK                            x       y       z     vdW  Elec       q    Type
REMARK                         _______ _______ _______ _____ _____    ______ ____
ROOT
ATOM      1  C   UNK     1       8.056  -4.741  26.042  0.00  0.00    +0.171 C 
ENDROOT
BRANCH   1   2
ATOM      2  N   UNK     1       8.123  -5.689  27.210  0.00  0.00    -0.318 NA
ATOM      3  H   UNK     1       7.641  -6.562  26.969  0.00  0.00    +0.119 HD
ATOM      4  H   UNK     1       9.102  -5.967  27.342  0.00  0.00    +0.119 HD
ENDBRANCH   1   2
BRANCH   1   5
ATOM      5  C   UNK     1       8.935  -5.335  24.904  0.00  0.00    +0.323 C 
ATOM      6  O   UNK     1       8.595  -5.567  23.754  0.00  0.00    -0.249 OA
BRANCH   5   7
ATOM      7  O   UNK     1      10.180  -5.641  25.356  0.00  0.00    -0.480 OA
ATOM      8  H   UNK     1      10.137  -5.539  26.339  0.00  0.00    +0.295 HD
ENDBRANCH   5   7
ENDBRANCH   1   5
BRANCH   1   9
ATOM      9  C   UNK     1       8.444  -3.308  26.460  0.00  0.00    +0.111 C 
BRANCH   9  10
ATOM     10  S   UNK     1       7.900  -2.104  25.229  0.00  0.00    -0.039 S 
BRANCH  10  11
ATOM     11  P   UNK     1       9.474  -1.556  24.031  0.00  0.00    +0.386 P 
ATOM     12  O   UNK     1      10.277  -0.449  24.616  0.00  0.00    -0.246 OA
BRANCH  11  13
ATOM     13  O   UNK     1       8.869  -1.280  22.576  0.00  0.00    -0.316 OA
ATOM     14  H   UNK     1       8.928  -2.049  21.984  0.00  0.00    +0.221 HD
ENDBRANCH  11  13
BRANCH  11  15
ATOM     15  O   UNK     1      10.287  -2.913  23.778  0.00  0.00    -0.316 OA
ATOM     16  H   UNK     1       9.773  -3.695  24.056  0.00  0.00    +0.221 HD
ENDBRANCH  11  15
ENDBRANCH  10  11
ENDBRANCH   9  10
ENDBRANCH   1   9
TORSDOF 8
ENDMDL
MODEL 8
REMARK VINA RESULT:      -4.0      2.819      3.102
REMARK  Name = 
REMARK  8 active torsions:
REMARK  status: ('A' for Active; 'I' for Inactive)
REMARK    1  A    between atoms: N_1  and  C_2
REMARK    2  A    between atoms: C_2  and  C_4
REMARK    3  A    between atoms: C_2  and  C_10
REMARK    4  A    between atoms: C_4  and  S_5
REMARK    5  A    between atoms: S_5  and  P_6
REMARK    6  A    between atoms: P_6  and  O_7
REMARK    7  A    between atoms: P_6  and  O_8
REMARK    8  A    between atoms: C_10  and  O_11
REMARK                            x       y       z     vdW  Elec       q    Type
REMARK                         _______ _______ _______ _____ _____    ______ ____
ROOT
ATOM      1  C   UNK     1       8.073  -5.291  25.659  0.00  0.00    +0.171 C 
ENDROOT
BRANCH   1   2
ATOM      2  N   UNK     1       8.159  -5.641  27.121  0.00  0.00    -0.318 NA
ATOM      3  H   UNK     1       7.220  -5.844  27.479  0.00  0.00    +0.119 HD
ATOM      4  H   UNK     1       8.663  -6.531  27.209  0.00  0.00    +0.119 HD
ENDBRANCH   1   2
BRANCH   1   5
ATOM      5  C   UNK     1       9.476  -4.791  25.212  0.00  0.00    +0.323 C 
ATOM      6  O   UNK     1       9.722  -3.878  24.440  0.00  0.00    -0.249 OA
BRANCH   5   7
ATOM      7  O   UNK     1      10.463  -5.551  25.755  0.00  0.00    -0.480 OA
ATOM      8  H   UNK     1      10.323  -5.506  26.733  0.00  0.00    +0.295 HD
ENDBRANCH   5   7
ENDBRANCH   1   5
BRANCH   1   9
ATOM      9  C   UNK     1       6.928  -4.292  25.388  0.00  0.00    +0.111 C 
BRANCH   9  10
ATOM     10  S   UNK     1       5.738  -4.974  24.213  0.00  0.00    -0.039 S 
BRANCH  10  11
ATOM     11  P   UNK     1       4.487  -6.297  25.160  0.00  0.00    +0.386 P 
ATOM     12  O   UNK     1       3.169  -5.695  25.494  0.00  0.00    -0.246 OA
BRANCH  11  13
ATOM     13  O   UNK     1       5.307  -6.902  26.393  0.00  0.00    -0.316 OA
ATOM     14  H   UNK     1       5.048  -6.522  27.249  0.00  0.00    +0.221 HD
ENDBRANCH  11  13
BRANCH  11  15
ATOM     15  O   UNK     1       4.417  -7.564  24.181  0.00  0.00    -0.316 OA
ATOM     16  H   UNK     1       4.499  -8.402  24.675  0.00  0.00    +0.221 HD
ENDBRANCH  11  15
ENDBRANCH  10  11
ENDBRANCH   9  10
ENDBRANCH   1   9
TORSDOF 8
ENDMDL
MODEL 9
REMARK VINA RESULT:      -4.0      4.418      5.252
REMARK  Name = 
REMARK  8 active torsions:
REMARK  status: ('A' for Active; 'I' for Inactive)
REMARK    1  A    between atoms: N_1  and  C_2
REMARK    2  A    between atoms: C_2  and  C_4
REMARK    3  A    between atoms: C_2  and  C_10
REMARK    4  A    between atoms: C_4  and  S_5
REMARK    5  A    between atoms: S_5  and  P_6
REMARK    6  A    between atoms: P_6  and  O_7
REMARK    7  A    between atoms: P_6  and  O_8
REMARK    8  A    between atoms: C_10  and  O_11
REMARK                            x       y       z     vdW  Elec       q    Type
REMARK                         _______ _______ _______ _____ _____    ______ ____
ROOT
ATOM      1  C   UNK     1       9.521  -2.411  23.976  0.00  0.00    +0.171 C 
ENDROOT
BRANCH   1   2
ATOM      2  N   UNK     1      10.604  -2.341  22.932  0.00  0.00    -0.318 NA
ATOM      3  H   UNK     1      11.107  -3.234  22.903  0.00  0.00    +0.119 HD
ATOM      4  H   UNK     1      10.157  -2.270  22.010  0.00  0.00    +0.119 HD
ENDBRANCH   1   2
BRANCH   1   5
ATOM      5  C   UNK     1       8.266  -3.044  23.309  0.00  0.00    +0.323 C 
ATOM      6  O   UNK     1       7.895  -4.204  23.388  0.00  0.00    -0.249 OA
BRANCH   5   7
ATOM      7  O   UNK     1       7.612  -2.136  22.537  0.00  0.00    -0.480 OA
ATOM      8  H   UNK     1       8.098  -1.284  22.661  0.00  0.00    +0.295 HD
ENDBRANCH   5   7
ENDBRANCH   1   5
BRANCH   1   9
ATOM      9  C   UNK     1       9.269  -1.030  24.617  0.00  0.00    +0.111 C 
BRANCH   9  10
ATOM     10  S   UNK     1      10.170   0.265  23.739  0.00  0.00    -0.039 S 
BRANCH  10  11
ATOM     11  P   UNK     1       9.161   0.798  22.034  0.00  0.00    +0.386 P 
ATOM     12  O   UNK     1       7.716   1.050  22.282  0.00  0.00    -0.246 OA
BRANCH  11  13
ATOM     13  O   UNK     1       9.493  -0.317  20.936  0.00  0.00    -0.316 OA
ATOM     14  H   UNK     1       9.959   0.036  20.159  0.00  0.00    +0.221 HD
ENDBRANCH  11  13
BRANCH  11  15
ATOM     15  O   UNK     1       9.971   2.054  21.456  0.00  0.00    -0.316 OA
ATOM     16  H   UNK     1       9.434   2.869  21.481  0.00  0.00    +0.221 HD
ENDBRANCH  11  15
ENDBRANCH  10  11
ENDBRANCH   9  10
ENDBRANCH   1   9
TORSDOF 8
ENDMDL
