MODEL 1
REMARK VINA RESULT:      -6.6      0.000      0.000
REMARK  Name = 
REMARK  7 active torsions:
REMARK  status: ('A' for Active; 'I' for Inactive)
REMARK    1  A    between atoms: C_2  and  C_3
REMARK    2  A    between atoms: C_3  and  S_4
REMARK    3  A    between atoms: S_4  and  C_5
REMARK    4  A    between atoms: C_5  and  C_6
REMARK    5  A    between atoms: C_8  and  N_10
REMARK    6  A    between atoms: C_20  and  O_22
REMARK    7  A    between atoms: C_23  and  O_25
REMARK                            x       y       z     vdW  Elec       q    Type
REMARK                         _______ _______ _______ _____ _____    ______ ____
ROOT
ATOM      1  C   UNL     1       7.084   0.980  22.509  0.00  0.00    +0.162 C 
ATOM      2  C   UNL     1       6.420   1.164  23.874  0.00  0.00    +0.177 C 
ATOM      3  C   UNL     1       6.416  -0.235  24.501  0.00  0.00    +0.195 C 
ATOM      4  C   UNL     1       7.099  -1.121  23.452  0.00  0.00    +0.253 C 
ATOM      5  O   UNL     1       7.857  -0.223  22.625  0.00  0.00    -0.347 OA
ENDROOT
BRANCH   4   6
ATOM      6  N   UNL     1       7.994  -2.151  23.935  0.00  0.00    -0.286 N 
ATOM      7  C   UNL     1       7.682  -3.250  24.689  0.00  0.00    +0.167 A 
ATOM      8  N   UNL     1       6.501  -3.568  25.253  0.00  0.00    -0.216 NA
ATOM      9  C   UNL     1       6.604  -4.724  25.950  0.00  0.00    +0.225 A 
ATOM     10  N   UNL     1       7.673  -5.536  26.087  0.00  0.00    -0.219 NA
ATOM     11  C   UNL     1       8.822  -5.192  25.465  0.00  0.00    +0.147 A 
ATOM     12  N   UNL     1       9.914  -6.042  25.568  0.00  0.00    -0.341 N 
ATOM     13  H   UNL     1      10.801  -5.596  25.358  0.00  0.00    +0.144 HD
ATOM     14  H   UNL     1       9.866  -6.658  26.366  0.00  0.00    +0.144 HD
ATOM     15  C   UNL     1       8.859  -3.983  24.751  0.00  0.00    +0.147 A 
ATOM     16  N   UNL     1       9.873  -3.351  24.067  0.00  0.00    -0.231 NA
ATOM     17  C   UNL     1       9.319  -2.260  23.586  0.00  0.00    +0.203 A 
ENDBRANCH   4   6
BRANCH   2  18
ATOM     18  O   UNL     1       5.110   1.709  23.737  0.00  0.00    -0.386 OA
ATOM     19  H   UNL     1       5.134   2.253  22.921  0.00  0.00    +0.210 HD
ENDBRANCH   2  18
BRANCH   3  20
ATOM     20  O   UNL     1       5.071  -0.647  24.782  0.00  0.00    -0.385 OA
ATOM     21  H   UNL     1       4.619  -0.699  23.913  0.00  0.00    +0.210 HD
ENDBRANCH   3  20
BRANCH   1  22
ATOM     22  C   UNL     1       7.989   2.158  22.138  0.00  0.00    +0.103 C 
BRANCH  22  23
ATOM     23  S   UNL     1       9.743   1.641  22.130  0.00  0.00    -0.158 S 
BRANCH  23  24
ATOM     24  C   UNL     1      10.152   2.003  23.864  0.00  0.00    +0.066 C 
ATOM     25  C   UNL     1      10.935   0.843  24.454  0.00  0.00    +0.015 C 
ENDBRANCH  23  24
ENDBRANCH  22  23
ENDBRANCH   1  22
TORSDOF 6
ENDMDL
MODEL 2
REMARK VINA RESULT:      -6.3      2.505      3.622
REMARK  Name = 
REMARK  7 active torsions:
REMARK  status: ('A' for Active; 'I' for Inactive)
REMARK    1  A    between atoms: C_2  and  C_3
REMARK    2  A    between atoms: C_3  and  S_4
REMARK    3  A    between atoms: S_4  and  C_5
REMARK    4  A    between atoms: C_5  and  C_6
REMARK    5  A    between atoms: C_8  and  N_10
REMARK    6  A    between atoms: C_20  and  O_22
REMARK    7  A    between atoms: C_23  and  O_25
REMARK                            x       y       z     vdW  Elec       q    Type
REMARK                         _______ _______ _______ _____ _____    ______ ____
ROOT
ATOM      1  C   UNL     1       9.761  -1.844  23.850  0.00  0.00    +0.162 C 
ATOM      2  C   UNL     1       8.510  -1.653  22.991  0.00  0.00    +0.177 C 
ATOM      3  C   UNL     1       7.656  -2.897  23.257  0.00  0.00    +0.195 C 
ATOM      4  C   UNL     1       8.475  -3.708  24.270  0.00  0.00    +0.253 C 
ATOM      5  O   UNL     1       9.374  -2.766  24.879  0.00  0.00    -0.347 OA
ENDROOT
BRANCH   4   6
ATOM      6  N   UNL     1       7.747  -4.380  25.325  0.00  0.00    -0.286 N 
ATOM      7  C   UNL     1       6.658  -5.201  25.204  0.00  0.00    +0.167 A 
ATOM      8  N   UNL     1       5.942  -5.481  24.099  0.00  0.00    -0.216 NA
ATOM      9  C   UNL     1       4.917  -6.314  24.395  0.00  0.00    +0.225 A 
ATOM     10  N   UNL     1       4.598  -6.873  25.582  0.00  0.00    -0.219 NA
ATOM     11  C   UNL     1       5.376  -6.592  26.651  0.00  0.00    +0.147 A 
ATOM     12  N   UNL     1       5.078  -7.193  27.866  0.00  0.00    -0.341 N 
ATOM     13  H   UNL     1       5.481  -6.720  28.667  0.00  0.00    +0.144 HD
ATOM     14  H   UNL     1       4.122  -7.511  27.929  0.00  0.00    +0.144 HD
ATOM     15  C   UNL     1       6.444  -5.695  26.483  0.00  0.00    +0.147 A 
ATOM     16  N   UNL     1       7.363  -5.186  27.372  0.00  0.00    -0.231 NA
ATOM     17  C   UNL     1       8.133  -4.407  26.645  0.00  0.00    +0.203 A 
ENDBRANCH   4   6
BRANCH   2  18
ATOM     18  O   UNL     1       8.852  -1.505  21.615  0.00  0.00    -0.386 OA
ATOM     19  H   UNL     1       9.074  -2.407  21.299  0.00  0.00    +0.210 HD
ENDBRANCH   2  18
BRANCH   3  20
ATOM     20  O   UNL     1       7.426  -3.611  22.035  0.00  0.00    -0.385 OA
ATOM     21  H   UNL     1       6.698  -4.241  22.224  0.00  0.00    +0.210 HD
ENDBRANCH   3  20
BRANCH   1  22
ATOM     22  C   UNL     1      10.249  -0.532  24.470  0.00  0.00    +0.103 C 
BRANCH  22  23
ATOM     23  S   UNL     1       8.930   0.735  24.405  0.00  0.00    -0.158 S 
BRANCH  23  24
ATOM     24  C   UNL     1       9.863   2.073  23.603  0.00  0.00    +0.066 C 
ATOM     25  C   UNL     1       9.999   1.780  22.119  0.00  0.00    +0.015 C 
ENDBRANCH  23  24
ENDBRANCH  22  23
ENDBRANCH   1  22
TORSDOF 6
ENDMDL
MODEL 3
REMARK VINA RESULT:      -6.1      3.591      6.242
REMARK  Name = 
REMARK  7 active torsions:
REMARK  status: ('A' for Active; 'I' for Inactive)
REMARK    1  A    between atoms: C_2  and  C_3
REMARK    2  A    between atoms: C_3  and  S_4
REMARK    3  A    between atoms: S_4  and  C_5
REMARK    4  A    between atoms: C_5  and  C_6
REMARK    5  A    between atoms: C_8  and  N_10
REMARK    6  A    between atoms: C_20  and  O_22
REMARK    7  A    between atoms: C_23  and  O_25
REMARK                            x       y       z     vdW  Elec       q    Type
REMARK                         _______ _______ _______ _____ _____    ______ ____
ROOT
ATOM      1  C   UNL     1       6.807  -4.784  25.114  0.00  0.00    +0.162 C 
ATOM      2  C   UNL     1       7.301  -4.792  26.561  0.00  0.00    +0.177 C 
ATOM      3  C   UNL     1       8.522  -3.865  26.567  0.00  0.00    +0.195 C 
ATOM      4  C   UNL     1       8.628  -3.374  25.117  0.00  0.00    +0.253 C 
ATOM      5  O   UNL     1       7.324  -3.571  24.547  0.00  0.00    -0.347 OA
ENDROOT
BRANCH   4   6
ATOM      6  N   UNL     1       9.003  -1.991  24.912  0.00  0.00    -0.286 N 
ATOM      7  C   UNL     1       9.279  -1.361  23.728  0.00  0.00    +0.167 A 
ATOM      8  N   UNL     1       9.379  -1.901  22.499  0.00  0.00    -0.216 NA
ATOM      9  C   UNL     1       9.697  -0.952  21.588  0.00  0.00    +0.225 A 
ATOM     10  N   UNL     1       9.868   0.374  21.773  0.00  0.00    -0.219 NA
ATOM     11  C   UNL     1       9.713   0.871  23.020  0.00  0.00    +0.147 A 
ATOM     12  N   UNL     1       9.848   2.238  23.213  0.00  0.00    -0.341 N 
ATOM     13  H   UNL     1      10.030   2.501  24.175  0.00  0.00    +0.144 HD
ATOM     14  H   UNL     1      10.380   2.692  22.485  0.00  0.00    +0.144 HD
ATOM     15  C   UNL     1       9.433  -0.024  24.066  0.00  0.00    +0.147 A 
ATOM     16  N   UNL     1       9.273   0.167  25.420  0.00  0.00    -0.231 NA
ATOM     17  C   UNL     1       9.010  -1.030  25.896  0.00  0.00    +0.203 A 
ENDBRANCH   4   6
BRANCH   2  18
ATOM     18  O   UNL     1       7.615  -6.116  26.987  0.00  0.00    -0.386 OA
ATOM     19  H   UNL     1       7.099  -6.712  26.403  0.00  0.00    +0.210 HD
ENDBRANCH   2  18
BRANCH   3  20
ATOM     20  O   UNL     1       9.687  -4.583  26.994  0.00  0.00    -0.385 OA
ATOM     21  H   UNL     1      10.341  -3.901  27.259  0.00  0.00    +0.210 HD
ENDBRANCH   3  20
BRANCH   1  22
ATOM     22  C   UNL     1       5.279  -4.805  25.020  0.00  0.00    +0.103 C 
BRANCH  22  23
ATOM     23  S   UNL     1       4.735  -4.319  23.342  0.00  0.00    -0.158 S 
BRANCH  23  24
ATOM     24  C   UNL     1       5.237  -5.814  22.438  0.00  0.00    +0.066 C 
ATOM     25  C   UNL     1       6.354  -5.470  21.468  0.00  0.00    +0.015 C 
ENDBRANCH  23  24
ENDBRANCH  22  23
ENDBRANCH   1  22
TORSDOF 6
ENDMDL
MODEL 4
REMARK VINA RESULT:      -6.1      3.476      6.388
REMARK  Name = 
REMARK  7 active torsions:
REMARK  status: ('A' for Active; 'I' for Inactive)
REMARK    1  A    between atoms: C_2  and  C_3
REMARK    2  A    between atoms: C_3  and  S_4
REMARK    3  A    between atoms: S_4  and  C_5
REMARK    4  A    between atoms: C_5  and  C_6
REMARK    5  A    between atoms: C_8  and  N_10
REMARK    6  A    between atoms: C_20  and  O_22
REMARK    7  A    between atoms: C_23  and  O_25
REMARK                            x       y       z     vdW  Elec       q    Type
REMARK                         _______ _______ _______ _____ _____    ______ ____
ROOT
ATOM      1  C   UNL     1       6.996  -4.339  24.495  0.00  0.00    +0.162 C 
ATOM      2  C   UNL     1       6.891  -5.005  23.122  0.00  0.00    +0.177 C 
ATOM      3  C   UNL     1       6.953  -3.850  22.117  0.00  0.00    +0.195 C 
ATOM      4  C   UNL     1       7.110  -2.598  22.991  0.00  0.00    +0.253 C 
ATOM      5  O   UNL     1       7.618  -3.069  24.250  0.00  0.00    -0.347 OA
ENDROOT
BRANCH   4   6
ATOM      6  N   UNL     1       7.996  -1.561  22.509  0.00  0.00    -0.286 N 
ATOM      7  C   UNL     1       7.841  -0.205  22.618  0.00  0.00    +0.167 A 
ATOM      8  N   UNL     1       6.782   0.478  23.091  0.00  0.00    -0.216 NA
ATOM      9  C   UNL     1       7.001   1.812  23.005  0.00  0.00    +0.225 A 
ATOM     10  N   UNL     1       8.099   2.462  22.565  0.00  0.00    -0.219 NA
ATOM     11  C   UNL     1       9.151   1.727  22.142  0.00  0.00    +0.147 A 
ATOM     12  N   UNL     1      10.299   2.386  21.726  0.00  0.00    -0.341 N 
ATOM     13  H   UNL     1      10.908   1.821  21.144  0.00  0.00    +0.144 HD
ATOM     14  H   UNL     1      10.131   3.344  21.453  0.00  0.00    +0.144 HD
ATOM     15  C   UNL     1       9.028   0.328  22.133  0.00  0.00    +0.147 A 
ATOM     16  N   UNL     1       9.886  -0.667  21.722  0.00  0.00    -0.231 NA
ATOM     17  C   UNL     1       9.240  -1.786  21.967  0.00  0.00    +0.203 A 
ENDBRANCH   4   6
BRANCH   2  18
ATOM     18  O   UNL     1       5.690  -5.765  23.013  0.00  0.00    -0.386 OA
ATOM     19  H   UNL     1       4.967  -5.107  22.922  0.00  0.00    +0.210 HD
ENDBRANCH   2  18
BRANCH   3  20
ATOM     20  O   UNL     1       5.762  -3.822  21.321  0.00  0.00    -0.385 OA
ATOM     21  H   UNL     1       5.661  -4.727  20.955  0.00  0.00    +0.210 HD
ENDBRANCH   3  20
BRANCH   1  22
ATOM     22  C   UNL     1       7.834  -5.160  25.479  0.00  0.00    +0.103 C 
BRANCH  22  23
ATOM     23  S   UNL     1       7.063  -5.153  27.138  0.00  0.00    -0.158 S 
BRANCH  23  24
ATOM     24  C   UNL     1       5.316  -5.214  26.637  0.00  0.00    +0.066 C 
ATOM     25  C   UNL     1       4.887  -6.661  26.470  0.00  0.00    +0.015 C 
ENDBRANCH  23  24
ENDBRANCH  22  23
ENDBRANCH   1  22
TORSDOF 6
ENDMDL
MODEL 5
REMARK VINA RESULT:      -6.0      3.559      6.387
REMARK  Name = 
REMARK  7 active torsions:
REMARK  status: ('A' for Active; 'I' for Inactive)
REMARK    1  A    between atoms: C_2  and  C_3
REMARK    2  A    between atoms: C_3  and  S_4
REMARK    3  A    between atoms: S_4  and  C_5
REMARK    4  A    between atoms: C_5  and  C_6
REMARK    5  A    between atoms: C_8  and  N_10
REMARK    6  A    between atoms: C_20  and  O_22
REMARK    7  A    between atoms: C_23  and  O_25
REMARK                            x       y       z     vdW  Elec       q    Type
REMARK                         _______ _______ _______ _____ _____    ______ ____
ROOT
ATOM      1  C   UNL     1       7.444  -5.063  23.566  0.00  0.00    +0.162 C 
ATOM      2  C   UNL     1       7.011  -4.429  24.889  0.00  0.00    +0.177 C 
ATOM      3  C   UNL     1       7.848  -3.151  25.005  0.00  0.00    +0.195 C 
ATOM      4  C   UNL     1       8.691  -3.133  23.724  0.00  0.00    +0.253 C 
ATOM      5  O   UNL     1       7.999  -3.987  22.797  0.00  0.00    -0.347 OA
ENDROOT
BRANCH   4   6
ATOM      6  N   UNL     1       8.899  -1.852  23.084  0.00  0.00    -0.286 N 
ATOM      7  C   UNL     1       9.487  -0.734  23.613  0.00  0.00    +0.167 A 
ATOM      8  N   UNL     1       9.899  -0.527  24.877  0.00  0.00    -0.216 NA
ATOM      9  C   UNL     1      10.401   0.723  25.014  0.00  0.00    +0.225 A 
ATOM     10  N   UNL     1      10.549   1.682  24.076  0.00  0.00    -0.219 NA
ATOM     11  C   UNL     1      10.158   1.406  22.812  0.00  0.00    +0.147 A 
ATOM     12  N   UNL     1      10.344   2.372  21.833  0.00  0.00    -0.341 N 
ATOM     13  H   UNL     1       9.766   2.237  21.010  0.00  0.00    +0.144 HD
ATOM     14  H   UNL     1      10.434   3.305  22.206  0.00  0.00    +0.144 HD
ATOM     15  C   UNL     1       9.571   0.157  22.552  0.00  0.00    +0.147 A 
ATOM     16  N   UNL     1       9.040  -0.387  21.404  0.00  0.00    -0.231 NA
ATOM     17  C   UNL     1       8.652  -1.593  21.756  0.00  0.00    +0.203 A 
ENDBRANCH   4   6
BRANCH   2  18
ATOM     18  O   UNL     1       7.222  -5.325  25.978  0.00  0.00    -0.386 OA
ATOM     19  H   UNL     1       7.280  -6.219  25.579  0.00  0.00    +0.210 HD
ENDBRANCH   2  18
BRANCH   3  20
ATOM     20  O   UNL     1       8.650  -3.190  26.193  0.00  0.00    -0.385 OA
ATOM     21  H   UNL     1       8.114  -3.662  26.865  0.00  0.00    +0.210 HD
ENDBRANCH   3  20
BRANCH   1  22
ATOM     22  C   UNL     1       6.272  -5.702  22.816  0.00  0.00    +0.103 C 
BRANCH  22  23
ATOM     23  S   UNL     1       4.705  -4.857  23.238  0.00  0.00    -0.158 S 
BRANCH  23  24
ATOM     24  C   UNL     1       3.699  -6.315  23.648  0.00  0.00    +0.066 C 
ATOM     25  C   UNL     1       4.320  -7.045  24.826  0.00  0.00    +0.015 C 
ENDBRANCH  23  24
ENDBRANCH  22  23
ENDBRANCH   1  22
TORSDOF 6
ENDMDL
MODEL 6
REMARK VINA RESULT:      -6.0      3.574      6.461
REMARK  Name = 
REMARK  7 active torsions:
REMARK  status: ('A' for Active; 'I' for Inactive)
REMARK    1  A    between atoms: C_2  and  C_3
REMARK    2  A    between atoms: C_3  and  S_4
REMARK    3  A    between atoms: S_4  and  C_5
REMARK    4  A    between atoms: C_5  and  C_6
REMARK    5  A    between atoms: C_8  and  N_10
REMARK    6  A    between atoms: C_20  and  O_22
REMARK    7  A    between atoms: C_23  and  O_25
REMARK                            x       y       z     vdW  Elec       q    Type
REMARK                         _______ _______ _______ _____ _____    ______ ____
ROOT
ATOM      1  C   UNL     1       6.960  -4.280  25.751  0.00  0.00    +0.162 C 
ATOM      2  C   UNL     1       8.389  -4.422  26.278  0.00  0.00    +0.177 C 
ATOM      3  C   UNL     1       9.280  -3.905  25.144  0.00  0.00    +0.195 C 
ATOM      4  C   UNL     1       8.291  -3.481  24.050  0.00  0.00    +0.253 C 
ATOM      5  O   UNL     1       7.036  -3.284  24.722  0.00  0.00    -0.347 OA
ENDROOT
BRANCH   4   6
ATOM      6  N   UNL     1       8.598  -2.277  23.308  0.00  0.00    -0.286 N 
ATOM      7  C   UNL     1       9.053  -1.082  23.797  0.00  0.00    +0.167 A 
ATOM      8  N   UNL     1       9.208  -0.710  25.081  0.00  0.00    -0.216 NA
ATOM      9  C   UNL     1       9.652   0.567  25.155  0.00  0.00    +0.225 A 
ATOM     10  N   UNL     1       9.965   1.413  24.151  0.00  0.00    -0.219 NA
ATOM     11  C   UNL     1       9.832   0.974  22.880  0.00  0.00    +0.147 A 
ATOM     12  N   UNL     1      10.188   1.823  21.842  0.00  0.00    -0.341 N 
ATOM     13  H   UNL     1       9.784   1.569  20.948  0.00  0.00    +0.144 HD
ATOM     14  H   UNL     1      10.188   2.797  22.107  0.00  0.00    +0.144 HD
ATOM     15  C   UNL     1       9.327  -0.320  22.669  0.00  0.00    +0.147 A 
ATOM     16  N   UNL     1       9.039  -1.017  21.518  0.00  0.00    -0.231 NA
ATOM     17  C   UNL     1       8.610  -2.188  21.936  0.00  0.00    +0.203 A 
ENDBRANCH   4   6
BRANCH   2  18
ATOM     18  O   UNL     1       8.673  -5.776  26.626  0.00  0.00    -0.386 OA
ATOM     19  H   UNL     1       9.505  -6.001  26.157  0.00  0.00    +0.210 HD
ENDBRANCH   2  18
BRANCH   3  20
ATOM     20  O   UNL     1      10.177  -4.935  24.709  0.00  0.00    -0.385 OA
ATOM     21  H   UNL     1       9.792  -5.779  25.027  0.00  0.00    +0.210 HD
ENDBRANCH   3  20
BRANCH   1  22
ATOM     22  C   UNL     1       5.978  -3.842  26.842  0.00  0.00    +0.103 C 
BRANCH  22  23
ATOM     23  S   UNL     1       4.537  -4.968  26.894  0.00  0.00    -0.158 S 
BRANCH  23  24
ATOM     24  C   UNL     1       5.272  -6.407  26.062  0.00  0.00    +0.066 C 
ATOM     25  C   UNL     1       4.356  -6.870  24.944  0.00  0.00    +0.015 C 
ENDBRANCH  23  24
ENDBRANCH  22  23
ENDBRANCH   1  22
TORSDOF 6
ENDMDL
MODEL 7
REMARK VINA RESULT:      -5.9      1.983      3.333
REMARK  Name = 
REMARK  7 active torsions:
REMARK  status: ('A' for Active; 'I' for Inactive)
REMARK    1  A    between atoms: C_2  and  C_3
REMARK    2  A    between atoms: C_3  and  S_4
REMARK    3  A    between atoms: S_4  and  C_5
REMARK    4  A    between atoms: C_5  and  C_6
REMARK    5  A    between atoms: C_8  and  N_10
REMARK    6  A    between atoms: C_20  and  O_22
REMARK    7  A    between atoms: C_23  and  O_25
REMARK                            x       y       z     vdW  Elec       q    Type
REMARK                         _______ _______ _______ _____ _____    ______ ____
ROOT
ATOM      1  C   UNL     1       9.538   1.383  23.807  0.00  0.00    +0.162 C 
ATOM      2  C   UNL     1       9.055   1.372  22.355  0.00  0.00    +0.177 C 
ATOM      3  C   UNL     1       8.755  -0.100  22.051  0.00  0.00    +0.195 C 
ATOM      4  C   UNL     1       9.071  -0.828  23.364  0.00  0.00    +0.253 C 
ATOM      5  O   UNL     1       9.014   0.180  24.386  0.00  0.00    -0.347 OA
ENDROOT
BRANCH   4   6
ATOM      6  N   UNL     1       8.191  -1.910  23.750  0.00  0.00    -0.286 N 
ATOM      7  C   UNL     1       8.530  -3.107  24.322  0.00  0.00    +0.167 A 
ATOM      8  N   UNL     1       9.760  -3.603  24.551  0.00  0.00    -0.216 NA
ATOM      9  C   UNL     1       9.678  -4.836  25.106  0.00  0.00    +0.225 A 
ATOM     10  N   UNL     1       8.578  -5.533  25.458  0.00  0.00    -0.219 NA
ATOM     11  C   UNL     1       7.368  -4.969  25.246  0.00  0.00    +0.147 A 
ATOM     12  N   UNL     1       6.233  -5.662  25.641  0.00  0.00    -0.341 N 
ATOM     13  H   UNL     1       5.382  -5.348  25.187  0.00  0.00    +0.144 HD
ATOM     14  H   UNL     1       6.385  -6.656  25.734  0.00  0.00    +0.144 HD
ATOM     15  C   UNL     1       7.317  -3.710  24.625  0.00  0.00    +0.147 A 
ATOM     16  N   UNL     1       6.259  -2.919  24.240  0.00  0.00    -0.231 NA
ATOM     17  C   UNL     1       6.817  -1.845  23.725  0.00  0.00    +0.203 A 
ENDBRANCH   4   6
BRANCH   2  18
ATOM     18  O   UNL     1      10.040   1.924  21.485  0.00  0.00    -0.386 OA
ATOM     19  H   UNL     1      10.905   1.732  21.907  0.00  0.00    +0.210 HD
ENDBRANCH   2  18
BRANCH   3  20
ATOM     20  O   UNL     1       9.565  -0.554  20.959  0.00  0.00    -0.385 OA
ATOM     21  H   UNL     1       9.864   0.254  20.490  0.00  0.00    +0.210 HD
ENDBRANCH   3  20
BRANCH   1  22
ATOM     22  C   UNL     1       9.036   2.607  24.578  0.00  0.00    +0.103 C 
BRANCH  22  23
ATOM     23  S   UNL     1       7.521   3.277  23.800  0.00  0.00    -0.158 S 
BRANCH  23  24
ATOM     24  C   UNL     1       8.157   4.905  23.300  0.00  0.00    +0.066 C 
ATOM     25  C   UNL     1       7.295   5.465  22.183  0.00  0.00    +0.015 C 
ENDBRANCH  23  24
ENDBRANCH  22  23
ENDBRANCH   1  22
TORSDOF 6
ENDMDL
MODEL 8
REMARK VINA RESULT:      -5.7      2.695      4.436
REMARK  Name = 
REMARK  7 active torsions:
REMARK  status: ('A' for Active; 'I' for Inactive)
REMARK    1  A    between atoms: C_2  and  C_3
REMARK    2  A    between atoms: C_3  and  S_4
REMARK    3  A    between atoms: S_4  and  C_5
REMARK    4  A    between atoms: C_5  and  C_6
REMARK    5  A    between atoms: C_8  and  N_10
REMARK    6  A    between atoms: C_20  and  O_22
REMARK    7  A    between atoms: C_23  and  O_25
REMARK                            x       y       z     vdW  Elec       q    Type
REMARK                         _______ _______ _______ _____ _____    ______ ____
ROOT
ATOM      1  C   UNL     1       8.278  -1.893  24.509  0.00  0.00    +0.162 C 
ATOM      2  C   UNL     1       8.968  -2.956  23.653  0.00  0.00    +0.177 C 
ATOM      3  C   UNL     1       8.593  -4.291  24.305  0.00  0.00    +0.195 C 
ATOM      4  C   UNL     1       7.694  -3.896  25.483  0.00  0.00    +0.253 C 
ATOM      5  O   UNL     1       7.207  -2.580  25.172  0.00  0.00    -0.347 OA
ENDROOT
BRANCH   4   6
ATOM      6  N   UNL     1       6.553  -4.743  25.759  0.00  0.00    -0.286 N 
ATOM      7  C   UNL     1       6.337  -5.531  26.858  0.00  0.00    +0.167 A 
ATOM      8  N   UNL     1       7.179  -5.793  27.875  0.00  0.00    -0.216 NA
ATOM      9  C   UNL     1       6.607  -6.647  28.757  0.00  0.00    +0.225 A 
ATOM     10  N   UNL     1       5.367  -7.181  28.734  0.00  0.00    -0.219 NA
ATOM     11  C   UNL     1       4.547  -6.850  27.711  0.00  0.00    +0.147 A 
ATOM     12  N   UNL     1       3.258  -7.363  27.701  0.00  0.00    -0.341 N 
ATOM     13  H   UNL     1       2.816  -7.341  26.788  0.00  0.00    +0.144 HD
ATOM     14  H   UNL     1       3.156  -8.197  28.261  0.00  0.00    +0.144 HD
ATOM     15  C   UNL     1       5.044  -6.010  26.701  0.00  0.00    +0.147 A 
ATOM     16  N   UNL     1       4.481  -5.545  25.535  0.00  0.00    -0.231 NA
ATOM     17  C   UNL     1       5.409  -4.783  24.998  0.00  0.00    +0.203 A 
ENDBRANCH   4   6
BRANCH   2  18
ATOM     18  O   UNL     1      10.377  -2.742  23.609  0.00  0.00    -0.386 OA
ATOM     19  H   UNL     1      10.535  -2.175  22.824  0.00  0.00    +0.210 HD
ENDBRANCH   2  18
BRANCH   3  20
ATOM     20  O   UNL     1       9.775  -4.988  24.721  0.00  0.00    -0.385 OA
ATOM     21  H   UNL     1      10.171  -5.357  23.903  0.00  0.00    +0.210 HD
ENDBRANCH   3  20
BRANCH   1  22
ATOM     22  C   UNL     1       7.728  -0.736  23.671  0.00  0.00    +0.103 C 
BRANCH  22  23
ATOM     23  S   UNL     1       8.182   0.870  24.420  0.00  0.00    -0.158 S 
BRANCH  23  24
ATOM     24  C   UNL     1       9.787   1.119  23.603  0.00  0.00    +0.066 C 
ATOM     25  C   UNL     1      10.906   0.726  24.552  0.00  0.00    +0.015 C 
ENDBRANCH  23  24
ENDBRANCH  22  23
ENDBRANCH   1  22
TORSDOF 6
ENDMDL
MODEL 9
REMARK VINA RESULT:      -5.7      2.333      3.569
REMARK  Name = 
REMARK  7 active torsions:
REMARK  status: ('A' for Active; 'I' for Inactive)
REMARK    1  A    between atoms: C_2  and  C_3
REMARK    2  A    between atoms: C_3  and  S_4
REMARK    3  A    between atoms: S_4  and  C_5
REMARK    4  A    between atoms: C_5  and  C_6
REMARK    5  A    between atoms: C_8  and  N_10
REMARK    6  A    between atoms: C_20  and  O_22
REMARK    7  A    between atoms: C_23  and  O_25
REMARK                            x       y       z     vdW  Elec       q    Type
REMARK                         _______ _______ _______ _____ _____    ______ ____
ROOT
ATOM      1  C   UNL     1       8.865   0.478  23.886  0.00  0.00    +0.162 C 
ATOM      2  C   UNL     1       9.094   0.282  22.386  0.00  0.00    +0.177 C 
ATOM      3  C   UNL     1       9.264  -1.230  22.207  0.00  0.00    +0.195 C 
ATOM      4  C   UNL     1       9.100  -1.798  23.623  0.00  0.00    +0.253 C 
ATOM      5  O   UNL     1       8.392  -0.789  24.362  0.00  0.00    -0.347 OA
ENDROOT
BRANCH   4   6
ATOM      6  N   UNL     1       8.377  -3.044  23.757  0.00  0.00    -0.286 N 
ATOM      7  C   UNL     1       7.192  -3.398  23.168  0.00  0.00    +0.167 A 
ATOM      8  N   UNL     1       6.370  -2.634  22.425  0.00  0.00    -0.216 NA
ATOM      9  C   UNL     1       5.278  -3.340  22.048  0.00  0.00    +0.225 A 
ATOM     10  N   UNL     1       4.982  -4.634  22.292  0.00  0.00    -0.219 NA
ATOM     11  C   UNL     1       5.864  -5.368  23.007  0.00  0.00    +0.147 A 
ATOM     12  N   UNL     1       5.587  -6.709  23.228  0.00  0.00    -0.341 N 
ATOM     13  H   UNL     1       6.101  -7.111  24.005  0.00  0.00    +0.144 HD
ATOM     14  H   UNL     1       4.608  -6.935  23.136  0.00  0.00    +0.144 HD
ATOM     15  C   UNL     1       7.015  -4.733  23.501  0.00  0.00    +0.147 A 
ATOM     16  N   UNL     1       8.051  -5.190  24.285  0.00  0.00    -0.231 NA
ATOM     17  C   UNL     1       8.852  -4.156  24.414  0.00  0.00    +0.203 A 
ENDBRANCH   4   6
BRANCH   2  18
ATOM     18  O   UNL     1      10.231   1.019  21.942  0.00  0.00    -0.386 OA
ATOM     19  H   UNL     1      10.466   0.642  21.067  0.00  0.00    +0.210 HD
ENDBRANCH   2  18
BRANCH   3  20
ATOM     20  O   UNL     1      10.548  -1.521  21.641  0.00  0.00    -0.385 OA
ATOM     21  H   UNL     1      10.382  -2.148  20.905  0.00  0.00    +0.210 HD
ENDBRANCH   3  20
BRANCH   1  22
ATOM     22  C   UNL     1       7.838   1.574  24.180  0.00  0.00    +0.103 C 
BRANCH  22  23
ATOM     23  S   UNL     1       8.679   3.152  24.567  0.00  0.00    -0.158 S 
BRANCH  23  24
ATOM     24  C   UNL     1       8.115   4.130  23.142  0.00  0.00    +0.066 C 
ATOM     25  C   UNL     1       7.013   3.379  22.416  0.00  0.00    +0.015 C 
ENDBRANCH  23  24
ENDBRANCH  22  23
ENDBRANCH   1  22
TORSDOF 6
ENDMDL
