MODEL 1
REMARK VINA RESULT:      -5.8      0.000      0.000
REMARK  Name = 
REMARK  8 active torsions:
REMARK  status: ('A' for Active; 'I' for Inactive)
REMARK    1  A    between atoms: C_1  and  C_2
REMARK    2  A    between atoms: C_2  and  C_3
REMARK    3  A    between atoms: C_3  and  C_4
REMARK    4  A    between atoms: C_4  and  C_5
REMARK    5  A    between atoms: C_5  and  C_6
REMARK    6  A    between atoms: C_6  and  C_7
REMARK    7  A    between atoms: C_7  and  C_8
REMARK    8  A    between atoms: C_9  and  O_10
REMARK                            x       y       z     vdW  Elec       q    Type
REMARK                         _______ _______ _______ _____ _____    ______ ____
ROOT
ATOM      1  C   UNL     1       8.110  -4.138  24.585  0.00  0.00    +0.047 C 
ATOM      2  C   UNL     1       7.257  -4.271  23.341  0.00  0.00    +0.212 C 
ATOM      3  O   UNL     1       7.625  -3.816  22.264  0.00  0.00    -0.285 OA
ATOM      4  C   UNL     1       5.995  -4.968  23.536  0.00  0.00    +0.129 A 
ATOM      5  N   UNL     1       5.011  -5.074  22.559  0.00  0.00    -0.243 NA
ATOM      6  C   UNL     1       3.990  -5.754  23.037  0.00  0.00    +0.157 A 
ATOM      7  S   UNL     1       4.152  -6.322  24.650  0.00  0.00    -0.071 S 
ATOM      8  C   UNL     1       5.681  -5.582  24.723  0.00  0.00    +0.093 A 
ATOM      9  C   UNL     1       6.529  -5.593  25.879  0.00  0.00    +0.236 C 
ATOM     10  O   UNL     1       6.304  -6.225  26.906  0.00  0.00    -0.283 OA
ATOM     11  C   UNL     1       7.782  -4.740  25.754  0.00  0.00    +0.172 C 
ENDROOT
BRANCH  11  12
ATOM     12  O   UNL     1       8.564  -4.656  26.899  0.00  0.00    -0.503 OA
ATOM     13  H   UNL     1       8.200  -4.016  27.528  0.00  0.00    +0.292 HD
ENDBRANCH  11  12
BRANCH   1  14
ATOM     14  C   UNL     1       9.359  -3.298  24.374  0.00  0.00    +0.043 C 
BRANCH  14  15
ATOM     15  C   UNL     1       9.078  -1.844  24.750  0.00  0.00    +0.005 C 
BRANCH  15  16
ATOM     16  C   UNL     1       9.968  -0.831  24.022  0.00  0.00    +0.000 C 
BRANCH  16  17
ATOM     17  C   UNL     1      10.210  -1.325  22.591  0.00  0.00    +0.000 C 
BRANCH  17  18
ATOM     18  C   UNL     1       9.431  -0.541  21.537  0.00  0.00    -0.000 C 
BRANCH  18  20
ATOM     19  C   UNL     1       8.340   1.736  21.668  0.00  0.00    +0.004 C 
ATOM     20  C   UNL     1       9.644   0.962  21.736  0.00  0.00    -0.003 C 
ENDBRANCH  18  20
ENDBRANCH  17  18
ENDBRANCH  16  17
ENDBRANCH  15  16
ENDBRANCH  14  15
ENDBRANCH   1  14
TORSDOF 7
ENDMDL
MODEL 2
REMARK VINA RESULT:      -5.8      1.308      2.603
REMARK  Name = 
REMARK  8 active torsions:
REMARK  status: ('A' for Active; 'I' for Inactive)
REMARK    1  A    between atoms: C_1  and  C_2
REMARK    2  A    between atoms: C_2  and  C_3
REMARK    3  A    between atoms: C_3  and  C_4
REMARK    4  A    between atoms: C_4  and  C_5
REMARK    5  A    between atoms: C_5  and  C_6
REMARK    6  A    between atoms: C_6  and  C_7
REMARK    7  A    between atoms: C_7  and  C_8
REMARK    8  A    between atoms: C_9  and  O_10
REMARK                            x       y       z     vdW  Elec       q    Type
REMARK                         _______ _______ _______ _____ _____    ______ ____
ROOT
ATOM      1  C   UNL     1       7.955  -3.985  24.338  0.00  0.00    +0.047 C 
ATOM      2  C   UNL     1       7.591  -4.656  25.646  0.00  0.00    +0.212 C 
ATOM      3  O   UNL     1       8.285  -4.521  26.647  0.00  0.00    -0.285 OA
ATOM      4  C   UNL     1       6.376  -5.455  25.605  0.00  0.00    +0.129 A 
ATOM      5  N   UNL     1       5.944  -6.259  26.654  0.00  0.00    -0.243 NA
ATOM      6  C   UNL     1       4.822  -6.857  26.315  0.00  0.00    +0.157 A 
ATOM      7  S   UNL     1       4.209  -6.481  24.755  0.00  0.00    -0.071 S 
ATOM      8  C   UNL     1       5.554  -5.470  24.506  0.00  0.00    +0.093 A 
ATOM      9  C   UNL     1       5.800  -4.735  23.299  0.00  0.00    +0.236 C 
ATOM     10  O   UNL     1       5.021  -4.661  22.354  0.00  0.00    -0.283 OA
ATOM     11  C   UNL     1       7.140  -4.018  23.256  0.00  0.00    +0.172 C 
ENDROOT
BRANCH  11  12
ATOM     12  O   UNL     1       7.441  -3.386  22.056  0.00  0.00    -0.503 OA
ATOM     13  H   UNL     1       7.893  -2.544  22.205  0.00  0.00    +0.292 HD
ENDBRANCH  11  12
BRANCH   1  14
ATOM     14  C   UNL     1       9.293  -3.263  24.382  0.00  0.00    +0.043 C 
BRANCH  14  15
ATOM     15  C   UNL     1       9.070  -1.762  24.561  0.00  0.00    +0.005 C 
BRANCH  15  16
ATOM     16  C   UNL     1      10.143  -0.892  23.897  0.00  0.00    +0.000 C 
BRANCH  16  17
ATOM     17  C   UNL     1      10.258  -1.290  22.422  0.00  0.00    +0.000 C 
BRANCH  17  18
ATOM     18  C   UNL     1       9.435  -0.406  21.487  0.00  0.00    -0.000 C 
BRANCH  18  20
ATOM     19  C   UNL     1       8.389   1.878  21.770  0.00  0.00    +0.004 C 
ATOM     20  C   UNL     1       9.673   1.070  21.814  0.00  0.00    -0.003 C 
ENDBRANCH  18  20
ENDBRANCH  17  18
ENDBRANCH  16  17
ENDBRANCH  15  16
ENDBRANCH  14  15
ENDBRANCH   1  14
TORSDOF 7
ENDMDL
MODEL 3
REMARK VINA RESULT:      -5.7      3.133      4.690
REMARK  Name = 
REMARK  8 active torsions:
REMARK  status: ('A' for Active; 'I' for Inactive)
REMARK    1  A    between atoms: C_1  and  C_2
REMARK    2  A    between atoms: C_2  and  C_3
REMARK    3  A    between atoms: C_3  and  C_4
REMARK    4  A    between atoms: C_4  and  C_5
REMARK    5  A    between atoms: C_5  and  C_6
REMARK    6  A    between atoms: C_6  and  C_7
REMARK    7  A    between atoms: C_7  and  C_8
REMARK    8  A    between atoms: C_9  and  O_10
REMARK                            x       y       z     vdW  Elec       q    Type
REMARK                         _______ _______ _______ _____ _____    ______ ____
ROOT
ATOM      1  C   UNL     1       8.737  -0.787  22.495  0.00  0.00    +0.047 C 
ATOM      2  C   UNL     1       9.719  -1.842  22.959  0.00  0.00    +0.212 C 
ATOM      3  O   UNL     1      10.870  -1.871  22.537  0.00  0.00    -0.285 OA
ATOM      4  C   UNL     1       9.187  -2.790  23.925  0.00  0.00    +0.129 A 
ATOM      5  N   UNL     1       9.879  -3.911  24.370  0.00  0.00    -0.243 NA
ATOM      6  C   UNL     1       9.135  -4.572  25.231  0.00  0.00    +0.157 A 
ATOM      7  S   UNL     1       7.596  -3.892  25.576  0.00  0.00    -0.071 S 
ATOM      8  C   UNL     1       7.938  -2.641  24.476  0.00  0.00    +0.093 A 
ATOM      9  C   UNL     1       7.034  -1.574  24.159  0.00  0.00    +0.236 C 
ATOM     10  O   UNL     1       5.962  -1.375  24.721  0.00  0.00    -0.283 OA
ATOM     11  C   UNL     1       7.503  -0.659  23.038  0.00  0.00    +0.172 C 
ENDROOT
BRANCH  11  12
ATOM     12  O   UNL     1       6.596   0.319  22.648  0.00  0.00    -0.503 OA
ATOM     13  H   UNL     1       5.786  -0.074  22.293  0.00  0.00    +0.292 HD
ENDBRANCH  11  12
BRANCH   1  14
ATOM     14  C   UNL     1       9.287   0.108  21.395  0.00  0.00    +0.043 C 
BRANCH  14  15
ATOM     15  C   UNL     1       9.446   1.536  21.916  0.00  0.00    +0.005 C 
BRANCH  15  16
ATOM     16  C   UNL     1      10.217   1.633  23.237  0.00  0.00    +0.000 C 
BRANCH  16  17
ATOM     17  C   UNL     1      10.787   3.048  23.374  0.00  0.00    +0.000 C 
BRANCH  17  18
ATOM     18  C   UNL     1       9.752   4.081  23.816  0.00  0.00    -0.000 C 
BRANCH  18  20
ATOM     19  C   UNL     1      11.858   5.444  23.490  0.00  0.00    +0.004 C 
ATOM     20  C   UNL     1      10.381   5.477  23.843  0.00  0.00    -0.003 C 
ENDBRANCH  18  20
ENDBRANCH  17  18
ENDBRANCH  16  17
ENDBRANCH  15  16
ENDBRANCH  14  15
ENDBRANCH   1  14
TORSDOF 7
ENDMDL
MODEL 4
REMARK VINA RESULT:      -5.7      2.347      3.561
REMARK  Name = 
REMARK  8 active torsions:
REMARK  status: ('A' for Active; 'I' for Inactive)
REMARK    1  A    between atoms: C_1  and  C_2
REMARK    2  A    between atoms: C_2  and  C_3
REMARK    3  A    between atoms: C_3  and  C_4
REMARK    4  A    between atoms: C_4  and  C_5
REMARK    5  A    between atoms: C_5  and  C_6
REMARK    6  A    between atoms: C_6  and  C_7
REMARK    7  A    between atoms: C_7  and  C_8
REMARK    8  A    between atoms: C_9  and  O_10
REMARK                            x       y       z     vdW  Elec       q    Type
REMARK                         _______ _______ _______ _____ _____    ______ ____
ROOT
ATOM      1  C   UNL     1       9.677  -0.832  24.292  0.00  0.00    +0.047 C 
ATOM      2  C   UNL     1       9.462  -1.805  23.152  0.00  0.00    +0.212 C 
ATOM      3  O   UNL     1      10.169  -1.780  22.151  0.00  0.00    -0.285 OA
ATOM      4  C   UNL     1       8.371  -2.748  23.350  0.00  0.00    +0.129 A 
ATOM      5  N   UNL     1       7.924  -3.628  22.371  0.00  0.00    -0.243 NA
ATOM      6  C   UNL     1       6.926  -4.342  22.847  0.00  0.00    +0.157 A 
ATOM      7  S   UNL     1       6.485  -4.029  24.477  0.00  0.00    -0.071 S 
ATOM      8  C   UNL     1       7.694  -2.835  24.541  0.00  0.00    +0.093 A 
ATOM      9  C   UNL     1       7.964  -2.019  25.689  0.00  0.00    +0.236 C 
ATOM     10  O   UNL     1       7.436  -2.160  26.787  0.00  0.00    -0.283 OA
ATOM     11  C   UNL     1       8.992  -0.922  25.458  0.00  0.00    +0.172 C 
ENDROOT
BRANCH  11  12
ATOM     12  O   UNL     1       9.192  -0.057  26.527  0.00  0.00    -0.503 OA
ATOM     13  H   UNL     1       8.361   0.136  26.984  0.00  0.00    +0.292 HD
ENDBRANCH  11  12
BRANCH   1  14
ATOM     14  C   UNL     1      10.739   0.215  24.000  0.00  0.00    +0.043 C 
BRANCH  14  15
ATOM     15  C   UNL     1      10.077   1.521  23.562  0.00  0.00    +0.005 C 
BRANCH  15  16
ATOM     16  C   UNL     1      10.061   1.730  22.044  0.00  0.00    +0.000 C 
BRANCH  16  17
ATOM     17  C   UNL     1       8.653   1.432  21.519  0.00  0.00    +0.000 C 
BRANCH  17  18
ATOM     18  C   UNL     1       7.543   1.847  22.483  0.00  0.00    -0.000 C 
BRANCH  18  20
ATOM     19  C   UNL     1       7.431   4.369  22.628  0.00  0.00    +0.004 C 
ATOM     20  C   UNL     1       6.859   3.121  21.979  0.00  0.00    -0.003 C 
ENDBRANCH  18  20
ENDBRANCH  17  18
ENDBRANCH  16  17
ENDBRANCH  15  16
ENDBRANCH  14  15
ENDBRANCH   1  14
TORSDOF 7
ENDMDL
MODEL 5
REMARK VINA RESULT:      -5.7      2.898      4.300
REMARK  Name = 
REMARK  8 active torsions:
REMARK  status: ('A' for Active; 'I' for Inactive)
REMARK    1  A    between atoms: C_1  and  C_2
REMARK    2  A    between atoms: C_2  and  C_3
REMARK    3  A    between atoms: C_3  and  C_4
REMARK    4  A    between atoms: C_4  and  C_5
REMARK    5  A    between atoms: C_5  and  C_6
REMARK    6  A    between atoms: C_6  and  C_7
REMARK    7  A    between atoms: C_7  and  C_8
REMARK    8  A    between atoms: C_9  and  O_10
REMARK                            x       y       z     vdW  Elec       q    Type
REMARK                         _______ _______ _______ _____ _____    ______ ____
ROOT
ATOM      1  C   UNL     1       8.623  -1.267  22.539  0.00  0.00    +0.047 C 
ATOM      2  C   UNL     1       9.597  -2.279  23.106  0.00  0.00    +0.212 C 
ATOM      3  O   UNL     1      10.781  -2.271  22.788  0.00  0.00    -0.285 OA
ATOM      4  C   UNL     1       9.016  -3.233  24.037  0.00  0.00    +0.129 A 
ATOM      5  N   UNL     1       9.705  -4.322  24.559  0.00  0.00    -0.243 NA
ATOM      6  C   UNL     1       8.911  -4.999  25.362  0.00  0.00    +0.157 A 
ATOM      7  S   UNL     1       7.325  -4.371  25.559  0.00  0.00    -0.071 S 
ATOM      8  C   UNL     1       7.718  -3.124  24.473  0.00  0.00    +0.093 A 
ATOM      9  C   UNL     1       6.809  -2.095  24.060  0.00  0.00    +0.236 C 
ATOM     10  O   UNL     1       5.684  -1.929  24.521  0.00  0.00    -0.283 OA
ATOM     11  C   UNL     1       7.342  -1.178  22.970  0.00  0.00    +0.172 C 
ENDROOT
BRANCH  11  12
ATOM     12  O   UNL     1       6.439  -0.240  22.485  0.00  0.00    -0.503 OA
ATOM     13  H   UNL     1       5.599  -0.653  22.240  0.00  0.00    +0.292 HD
ENDBRANCH  11  12
BRANCH   1  14
ATOM     14  C   UNL     1       9.236  -0.367  21.478  0.00  0.00    +0.043 C 
BRANCH  14  15
ATOM     15  C   UNL     1       9.829   0.880  22.132  0.00  0.00    +0.005 C 
BRANCH  15  16
ATOM     16  C   UNL     1       8.949   2.128  22.000  0.00  0.00    +0.000 C 
BRANCH  16  17
ATOM     17  C   UNL     1       8.481   2.552  23.396  0.00  0.00    +0.000 C 
BRANCH  17  18
ATOM     18  C   UNL     1       9.297   1.930  24.527  0.00  0.00    -0.000 C 
BRANCH  18  20
ATOM     19  C   UNL     1       9.087  -0.069  26.062  0.00  0.00    +0.004 C 
ATOM     20  C   UNL     1       8.381   1.132  25.459  0.00  0.00    -0.003 C 
ENDBRANCH  18  20
ENDBRANCH  17  18
ENDBRANCH  16  17
ENDBRANCH  15  16
ENDBRANCH  14  15
ENDBRANCH   1  14
TORSDOF 7
ENDMDL
MODEL 6
REMARK VINA RESULT:      -5.6      2.746      4.209
REMARK  Name = 
REMARK  8 active torsions:
REMARK  status: ('A' for Active; 'I' for Inactive)
REMARK    1  A    between atoms: C_1  and  C_2
REMARK    2  A    between atoms: C_2  and  C_3
REMARK    3  A    between atoms: C_3  and  C_4
REMARK    4  A    between atoms: C_4  and  C_5
REMARK    5  A    between atoms: C_5  and  C_6
REMARK    6  A    between atoms: C_6  and  C_7
REMARK    7  A    between atoms: C_7  and  C_8
REMARK    8  A    between atoms: C_9  and  O_10
REMARK                            x       y       z     vdW  Elec       q    Type
REMARK                         _______ _______ _______ _____ _____    ______ ____
ROOT
ATOM      1  C   UNL     1       7.633  -0.454  24.938  0.00  0.00    +0.047 C 
ATOM      2  C   UNL     1       8.307  -1.490  25.814  0.00  0.00    +0.212 C 
ATOM      3  O   UNL     1       8.902  -1.170  26.838  0.00  0.00    -0.285 OA
ATOM      4  C   UNL     1       8.188  -2.861  25.343  0.00  0.00    +0.129 A 
ATOM      5  N   UNL     1       8.848  -3.938  25.923  0.00  0.00    -0.243 NA
ATOM      6  C   UNL     1       8.545  -5.041  25.272  0.00  0.00    +0.157 A 
ATOM      7  S   UNL     1       7.449  -4.865  23.961  0.00  0.00    -0.071 S 
ATOM      8  C   UNL     1       7.399  -3.193  24.269  0.00  0.00    +0.093 A 
ATOM      9  C   UNL     1       6.637  -2.252  23.501  0.00  0.00    +0.236 C 
ATOM     10  O   UNL     1       5.851  -2.552  22.608  0.00  0.00    -0.283 OA
ATOM     11  C   UNL     1       6.867  -0.796  23.874  0.00  0.00    +0.172 C 
ENDROOT
BRANCH  11  12
ATOM     12  O   UNL     1       6.217   0.135  23.074  0.00  0.00    -0.503 OA
ATOM     13  H   UNL     1       5.590   0.664  23.586  0.00  0.00    +0.292 HD
ENDBRANCH  11  12
BRANCH   1  14
ATOM     14  C   UNL     1       7.884   0.975  25.391  0.00  0.00    +0.043 C 
BRANCH  14  15
ATOM     15  C   UNL     1       9.165   1.508  24.752  0.00  0.00    +0.005 C 
BRANCH  15  16
ATOM     16  C   UNL     1       8.949   2.728  23.850  0.00  0.00    +0.000 C 
BRANCH  16  17
ATOM     17  C   UNL     1       8.825   2.254  22.399  0.00  0.00    +0.000 C 
BRANCH  17  18
ATOM     18  C   UNL     1       9.985   1.369  21.946  0.00  0.00    -0.000 C 
BRANCH  18  20
ATOM     19  C   UNL     1      10.026  -1.153  22.137  0.00  0.00    +0.004 C 
ATOM     20  C   UNL     1       9.451   0.043  21.398  0.00  0.00    -0.003 C 
ENDBRANCH  18  20
ENDBRANCH  17  18
ENDBRANCH  16  17
ENDBRANCH  15  16
ENDBRANCH  14  15
ENDBRANCH   1  14
TORSDOF 7
ENDMDL
MODEL 7
REMARK VINA RESULT:      -5.4      2.809      4.172
REMARK  Name = 
REMARK  8 active torsions:
REMARK  status: ('A' for Active; 'I' for Inactive)
REMARK    1  A    between atoms: C_1  and  C_2
REMARK    2  A    between atoms: C_2  and  C_3
REMARK    3  A    between atoms: C_3  and  C_4
REMARK    4  A    between atoms: C_4  and  C_5
REMARK    5  A    between atoms: C_5  and  C_6
REMARK    6  A    between atoms: C_6  and  C_7
REMARK    7  A    between atoms: C_7  and  C_8
REMARK    8  A    between atoms: C_9  and  O_10
REMARK                            x       y       z     vdW  Elec       q    Type
REMARK                         _______ _______ _______ _____ _____    ______ ____
ROOT
ATOM      1  C   UNL     1       9.647  -1.060  24.014  0.00  0.00    +0.047 C 
ATOM      2  C   UNL     1       8.960  -1.172  25.359  0.00  0.00    +0.212 C 
ATOM      3  O   UNL     1       9.214  -0.394  26.272  0.00  0.00    -0.285 OA
ATOM      4  C   UNL     1       7.997  -2.257  25.465  0.00  0.00    +0.129 A 
ATOM      5  N   UNL     1       7.363  -2.615  26.650  0.00  0.00    -0.243 NA
ATOM      6  C   UNL     1       6.558  -3.632  26.426  0.00  0.00    +0.157 A 
ATOM      7  S   UNL     1       6.490  -4.198  24.806  0.00  0.00    -0.071 S 
ATOM      8  C   UNL     1       7.639  -3.019  24.380  0.00  0.00    +0.093 A 
ATOM      9  C   UNL     1       8.171  -2.848  23.059  0.00  0.00    +0.236 C 
ATOM     10  O   UNL     1       7.782  -3.453  22.065  0.00  0.00    -0.283 OA
ATOM     11  C   UNL     1       9.292  -1.826  22.954  0.00  0.00    +0.172 C 
ENDROOT
BRANCH  11  12
ATOM     12  O   UNL     1       9.889  -1.722  21.705  0.00  0.00    -0.503 OA
ATOM     13  H   UNL     1      10.698  -1.193  21.744  0.00  0.00    +0.292 HD
ENDBRANCH  11  12
BRANCH   1  14
ATOM     14  C   UNL     1      10.734   0.002  23.978  0.00  0.00    +0.043 C 
BRANCH  14  15
ATOM     15  C   UNL     1      10.114   1.376  23.725  0.00  0.00    +0.005 C 
BRANCH  15  16
ATOM     16  C   UNL     1      10.232   1.852  22.273  0.00  0.00    +0.000 C 
BRANCH  16  17
ATOM     17  C   UNL     1       8.910   1.570  21.552  0.00  0.00    +0.000 C 
BRANCH  17  18
ATOM     18  C   UNL     1       7.698   2.204  22.231  0.00  0.00    -0.000 C 
BRANCH  18  20
ATOM     19  C   UNL     1       6.355   1.153  24.099  0.00  0.00    +0.004 C 
ATOM     20  C   UNL     1       6.686   1.122  22.618  0.00  0.00    -0.003 C 
ENDBRANCH  18  20
ENDBRANCH  17  18
ENDBRANCH  16  17
ENDBRANCH  15  16
ENDBRANCH  14  15
ENDBRANCH   1  14
TORSDOF 7
ENDMDL
MODEL 8
REMARK VINA RESULT:      -5.2      3.198      5.555
REMARK  Name = 
REMARK  8 active torsions:
REMARK  status: ('A' for Active; 'I' for Inactive)
REMARK    1  A    between atoms: C_1  and  C_2
REMARK    2  A    between atoms: C_2  and  C_3
REMARK    3  A    between atoms: C_3  and  C_4
REMARK    4  A    between atoms: C_4  and  C_5
REMARK    5  A    between atoms: C_5  and  C_6
REMARK    6  A    between atoms: C_6  and  C_7
REMARK    7  A    between atoms: C_7  and  C_8
REMARK    8  A    between atoms: C_9  and  O_10
REMARK                            x       y       z     vdW  Elec       q    Type
REMARK                         _______ _______ _______ _____ _____    ______ ____
ROOT
ATOM      1  C   UNL     1       8.323  -2.525  25.083  0.00  0.00    +0.047 C 
ATOM      2  C   UNL     1       9.353  -2.298  23.997  0.00  0.00    +0.212 C 
ATOM      3  O   UNL     1      10.266  -3.094  23.807  0.00  0.00    -0.285 OA
ATOM      4  C   UNL     1       9.165  -1.082  23.220  0.00  0.00    +0.129 A 
ATOM      5  N   UNL     1      10.074  -0.621  22.274  0.00  0.00    -0.243 NA
ATOM      6  C   UNL     1       9.628   0.501  21.748  0.00  0.00    +0.157 A 
ATOM      7  S   UNL     1       8.107   1.051  22.325  0.00  0.00    -0.071 S 
ATOM      8  C   UNL     1       8.055  -0.288  23.371  0.00  0.00    +0.093 A 
ATOM      9  C   UNL     1       6.991  -0.550  24.297  0.00  0.00    +0.236 C 
ATOM     10  O   UNL     1       5.950   0.094  24.366  0.00  0.00    -0.283 OA
ATOM     11  C   UNL     1       7.238  -1.726  25.229  0.00  0.00    +0.172 C 
ENDROOT
BRANCH  11  12
ATOM     12  O   UNL     1       6.266  -1.932  26.200  0.00  0.00    -0.503 OA
ATOM     13  H   UNL     1       5.425  -1.524  25.949  0.00  0.00    +0.292 HD
ENDBRANCH  11  12
BRANCH   1  14
ATOM     14  C   UNL     1       8.620  -3.735  25.954  0.00  0.00    +0.043 C 
BRANCH  14  15
ATOM     15  C   UNL     1       7.950  -4.977  25.367  0.00  0.00    +0.005 C 
BRANCH  15  16
ATOM     16  C   UNL     1       6.712  -5.439  26.143  0.00  0.00    +0.000 C 
BRANCH  16  17
ATOM     17  C   UNL     1       5.482  -5.296  25.240  0.00  0.00    +0.000 C 
BRANCH  17  18
ATOM     18  C   UNL     1       5.828  -5.059  23.772  0.00  0.00    -0.000 C 
BRANCH  18  20
ATOM     19  C   UNL     1       5.716  -3.175  22.089  0.00  0.00    +0.004 C 
ATOM     20  C   UNL     1       5.002  -3.896  23.218  0.00  0.00    -0.003 C 
ENDBRANCH  18  20
ENDBRANCH  17  18
ENDBRANCH  16  17
ENDBRANCH  15  16
ENDBRANCH  14  15
ENDBRANCH   1  14
TORSDOF 7
ENDMDL
MODEL 9
REMARK VINA RESULT:      -5.2      1.419      1.704
REMARK  Name = 
REMARK  8 active torsions:
REMARK  status: ('A' for Active; 'I' for Inactive)
REMARK    1  A    between atoms: C_1  and  C_2
REMARK    2  A    between atoms: C_2  and  C_3
REMARK    3  A    between atoms: C_3  and  C_4
REMARK    4  A    between atoms: C_4  and  C_5
REMARK    5  A    between atoms: C_5  and  C_6
REMARK    6  A    between atoms: C_6  and  C_7
REMARK    7  A    between atoms: C_7  and  C_8
REMARK    8  A    between atoms: C_9  and  O_10
REMARK                            x       y       z     vdW  Elec       q    Type
REMARK                         _______ _______ _______ _____ _____    ______ ____
ROOT
ATOM      1  C   UNL     1       7.534  -2.915  24.239  0.00  0.00    +0.047 C 
ATOM      2  C   UNL     1       6.748  -3.860  23.355  0.00  0.00    +0.212 C 
ATOM      3  O   UNL     1       6.736  -3.731  22.136  0.00  0.00    -0.285 OA
ATOM      4  C   UNL     1       6.028  -4.906  24.065  0.00  0.00    +0.129 A 
ATOM      5  N   UNL     1       5.141  -5.786  23.455  0.00  0.00    -0.243 NA
ATOM      6  C   UNL     1       4.647  -6.607  24.357  0.00  0.00    +0.157 A 
ATOM      7  S   UNL     1       5.223  -6.398  25.961  0.00  0.00    -0.071 S 
ATOM      8  C   UNL     1       6.177  -5.101  25.416  0.00  0.00    +0.093 A 
ATOM      9  C   UNL     1       7.022  -4.308  26.261  0.00  0.00    +0.236 C 
ATOM     10  O   UNL     1       7.241  -4.539  27.446  0.00  0.00    -0.283 OA
ATOM     11  C   UNL     1       7.663  -3.112  25.574  0.00  0.00    +0.172 C 
ENDROOT
BRANCH  11  12
ATOM     12  O   UNL     1       8.402  -2.275  26.400  0.00  0.00    -0.503 OA
ATOM     13  H   UNL     1       9.289  -2.123  26.045  0.00  0.00    +0.292 HD
ENDBRANCH  11  12
BRANCH   1  14
ATOM     14  C   UNL     1       8.170  -1.763  23.478  0.00  0.00    +0.043 C 
BRANCH  14  15
ATOM     15  C   UNL     1       9.611  -2.114  23.109  0.00  0.00    +0.005 C 
BRANCH  15  16
ATOM     16  C   UNL     1      10.440  -0.916  22.636  0.00  0.00    +0.000 C 
BRANCH  16  17
ATOM     17  C   UNL     1       9.545   0.006  21.802  0.00  0.00    +0.000 C 
BRANCH  17  18
ATOM     18  C   UNL     1       9.872   1.488  21.969  0.00  0.00    -0.000 C 
BRANCH  18  20
ATOM     19  C   UNL     1       9.280   2.506  24.207  0.00  0.00    +0.004 C 
ATOM     20  C   UNL     1      10.333   1.766  23.402  0.00  0.00    -0.003 C 
ENDBRANCH  18  20
ENDBRANCH  17  18
ENDBRANCH  16  17
ENDBRANCH  15  16
ENDBRANCH  14  15
ENDBRANCH   1  14
TORSDOF 7
ENDMDL
