MODEL 1
REMARK VINA RESULT:      -7.0      0.000      0.000
REMARK  Name = 
REMARK  16 active torsions:
REMARK  status: ('A' for Active; 'I' for Inactive)
REMARK    1  A    between atoms: C_1  and  C_2
REMARK    2  A    between atoms: C_2  and  C_3
REMARK    3  A    between atoms: C_3  and  C_4
REMARK    4  A    between atoms: C_3  and  O_5
REMARK    5  A    between atoms: C_3  and  C_32
REMARK    6  A    between atoms: O_5  and  C_6
REMARK    7  A    between atoms: C_9  and  C_12
REMARK    8  A    between atoms: C_12  and  C_18
REMARK    9  A    between atoms: C_20  and  O_21
REMARK   10  A    between atoms: O_21  and  C_22
REMARK   11  A    between atoms: C_22  and  C_23
REMARK   12  A    between atoms: C_22  and  C_24
REMARK   13  A    between atoms: C_22  and  C_26
REMARK   14  A    between atoms: C_24  and  C_25
REMARK   15  A    between atoms: C_26  and  O_27
REMARK   16  A    between atoms: C_32  and  O_33
REMARK                            x       y       z     vdW  Elec       q    Type
REMARK                         _______ _______ _______ _____ _____    ______ ____
ROOT
ATOM      1  C   UNL     1       8.345  -2.733  24.254  0.00  0.00    +0.021 C 
ATOM      2  C   UNL     1       9.489  -3.809  24.175  0.00  0.00    +0.016 C 
ATOM      3  C   UNL     1       9.292  -4.998  25.121  0.00  0.00    +0.001 C 
ATOM      4  C   UNL     1       9.211  -4.522  26.564  0.00  0.00    +0.000 C 
ATOM      5  C   UNL     1       8.099  -3.498  26.733  0.00  0.00    +0.001 C 
ATOM      6  C   UNL     1       8.266  -2.325  25.768  0.00  0.00    +0.016 C 
ENDROOT
BRANCH   1  10
ATOM      7  C   UNL     1       4.522  -4.561  23.085  0.00  0.00    +0.122 A 
ATOM      8  C   UNL     1       4.560  -3.416  23.859  0.00  0.00    +0.046 A 
ATOM      9  C   UNL     1       5.777  -2.824  24.208  0.00  0.00    +0.008 A 
ATOM     10  C   UNL     1       6.997  -3.276  23.692  0.00  0.00    -0.037 A 
ATOM     11  C   UNL     1       6.916  -4.302  22.729  0.00  0.00    +0.008 A 
ATOM     12  C   UNL     1       5.699  -4.948  22.442  0.00  0.00    +0.046 A 
BRANCH   7  13
ATOM     13  O   UNL     1       3.422  -5.335  22.891  0.00  0.00    -0.475 OA
BRANCH  13  14
ATOM     14  C   UNL     1       2.935  -6.237  23.931  0.00  0.00    +0.203 C 
ATOM     15  C   UNL     1       1.917  -5.568  24.867  0.00  0.00    +0.068 C 
BRANCH  14  17
ATOM     16  C   UNL     1       4.572  -6.653  25.986  0.00  0.00    +0.008 C 
ATOM     17  C   UNL     1       4.027  -7.095  24.635  0.00  0.00    +0.056 C 
ENDBRANCH  14  17
BRANCH  14  18
ATOM     18  C   UNL     1       2.087  -7.281  23.141  0.00  0.00    +0.349 C 
ATOM     19  O   UNL     1       1.353  -7.015  22.204  0.00  0.00    -0.246 OA
BRANCH  18  20
ATOM     20  O   UNL     1       2.239  -8.554  23.586  0.00  0.00    -0.478 OA
ATOM     21  H   UNL     1       1.362  -8.986  23.629  0.00  0.00    +0.295 HD
ENDBRANCH  18  20
ENDBRANCH  14  18
ENDBRANCH  13  14
ENDBRANCH   7  13
ENDBRANCH   1  10
BRANCH   1  22
ATOM     22  C   UNL     1       8.740  -1.422  23.483  0.00  0.00    -0.033 A 
ATOM     23  C   UNL     1       9.119  -1.393  22.135  0.00  0.00    +0.005 A 
ATOM     24  C   UNL     1       9.677  -0.237  21.578  0.00  0.00    +0.004 A 
ATOM     25  C   UNL     1       9.840   0.920  22.346  0.00  0.00    +0.046 A 
ATOM     26  C   UNL     1       9.389   0.956  23.661  0.00  0.00    +0.122 A 
ATOM     27  C   UNL     1       8.844  -0.207  24.199  0.00  0.00    +0.050 A 
BRANCH  26  28
ATOM     28  O   UNL     1       9.615   2.118  24.352  0.00  0.00    -0.475 OA
BRANCH  28  29
ATOM     29  C   UNL     1       8.745   3.271  24.211  0.00  0.00    +0.203 C 
ATOM     30  C   UNL     1       9.525   4.539  23.829  0.00  0.00    +0.068 C 
BRANCH  29  31
ATOM     31  C   UNL     1       8.198   3.563  25.632  0.00  0.00    +0.349 C 
ATOM     32  O   UNL     1       8.128   4.677  26.134  0.00  0.00    -0.246 OA
BRANCH  31  33
ATOM     33  O   UNL     1       7.775   2.454  26.291  0.00  0.00    -0.478 OA
ATOM     34  H   UNL     1       8.556   1.996  26.680  0.00  0.00    +0.295 HD
ENDBRANCH  31  33
ENDBRANCH  29  31
BRANCH  29  35
ATOM     35  C   UNL     1       7.498   3.024  23.325  0.00  0.00    +0.056 C 
ATOM     36  C   UNL     1       7.229   4.114  22.292  0.00  0.00    +0.008 C 
ENDBRANCH  29  35
ENDBRANCH  28  29
ENDBRANCH  26  28
ENDBRANCH   1  22
TORSDOF 12
ENDMDL
MODEL 2
REMARK VINA RESULT:      -6.5      3.093      4.730
REMARK  Name = 
REMARK  16 active torsions:
REMARK  status: ('A' for Active; 'I' for Inactive)
REMARK    1  A    between atoms: C_1  and  C_2
REMARK    2  A    between atoms: C_2  and  C_3
REMARK    3  A    between atoms: C_3  and  C_4
REMARK    4  A    between atoms: C_3  and  O_5
REMARK    5  A    between atoms: C_3  and  C_32
REMARK    6  A    between atoms: O_5  and  C_6
REMARK    7  A    between atoms: C_9  and  C_12
REMARK    8  A    between atoms: C_12  and  C_18
REMARK    9  A    between atoms: C_20  and  O_21
REMARK   10  A    between atoms: O_21  and  C_22
REMARK   11  A    between atoms: C_22  and  C_23
REMARK   12  A    between atoms: C_22  and  C_24
REMARK   13  A    between atoms: C_22  and  C_26
REMARK   14  A    between atoms: C_24  and  C_25
REMARK   15  A    between atoms: C_26  and  O_27
REMARK   16  A    between atoms: C_32  and  O_33
REMARK                            x       y       z     vdW  Elec       q    Type
REMARK                         _______ _______ _______ _____ _____    ______ ____
ROOT
ATOM      1  C   UNL     1       6.870  -3.968  24.000  0.00  0.00    +0.021 C 
ATOM      2  C   UNL     1       6.184  -3.327  22.738  0.00  0.00    +0.016 C 
ATOM      3  C   UNL     1       5.559  -4.348  21.783  0.00  0.00    +0.001 C 
ATOM      4  C   UNL     1       6.613  -5.325  21.284  0.00  0.00    +0.000 C 
ATOM      5  C   UNL     1       7.303  -6.017  22.449  0.00  0.00    +0.001 C 
ATOM      6  C   UNL     1       7.899  -5.006  23.427  0.00  0.00    +0.016 C 
ENDROOT
BRANCH   1  10
ATOM      7  C   UNL     1       4.071  -5.412  27.067  0.00  0.00    +0.122 A 
ATOM      8  C   UNL     1       3.702  -4.431  26.167  0.00  0.00    +0.046 A 
ATOM      9  C   UNL     1       4.586  -3.992  25.178  0.00  0.00    +0.008 A 
ATOM     10  C   UNL     1       5.826  -4.605  24.967  0.00  0.00    -0.037 A 
ATOM     11  C   UNL     1       6.089  -5.748  25.748  0.00  0.00    +0.008 A 
ATOM     12  C   UNL     1       5.233  -6.135  26.796  0.00  0.00    +0.046 A 
BRANCH   7  13
ATOM     13  O   UNL     1       3.384  -5.735  28.194  0.00  0.00    -0.475 OA
BRANCH  13  14
ATOM     14  C   UNL     1       3.618  -5.036  29.454  0.00  0.00    +0.203 C 
ATOM     15  C   UNL     1       2.408  -5.091  30.397  0.00  0.00    +0.068 C 
BRANCH  14  17
ATOM     16  C   UNL     1       3.450  -2.383  29.353  0.00  0.00    +0.008 C 
ATOM     17  C   UNL     1       4.303  -3.644  29.327  0.00  0.00    +0.056 C 
ENDBRANCH  14  17
BRANCH  14  18
ATOM     18  C   UNL     1       4.690  -5.919  30.167  0.00  0.00    +0.349 C 
ATOM     19  O   UNL     1       4.555  -7.103  30.426  0.00  0.00    -0.246 OA
BRANCH  18  20
ATOM     20  O   UNL     1       5.826  -5.246  30.483  0.00  0.00    -0.478 OA
ATOM     21  H   UNL     1       5.748  -4.893  31.392  0.00  0.00    +0.295 HD
ENDBRANCH  18  20
ENDBRANCH  14  18
ENDBRANCH  13  14
ENDBRANCH   7  13
ENDBRANCH   1  10
BRANCH   1  22
ATOM     22  C   UNL     1       7.728  -2.910  24.783  0.00  0.00    -0.033 A 
ATOM     23  C   UNL     1       7.641  -2.703  26.165  0.00  0.00    +0.005 A 
ATOM     24  C   UNL     1       8.259  -1.596  26.759  0.00  0.00    +0.004 A 
ATOM     25  C   UNL     1       8.998  -0.693  25.990  0.00  0.00    +0.046 A 
ATOM     26  C   UNL     1       9.185  -0.920  24.629  0.00  0.00    +0.122 A 
ATOM     27  C   UNL     1       8.555  -2.022  24.057  0.00  0.00    +0.050 A 
BRANCH  26  28
ATOM     28  O   UNL     1       9.897   0.030  23.944  0.00  0.00    -0.475 OA
BRANCH  28  29
ATOM     29  C   UNL     1       9.260   1.212  23.393  0.00  0.00    +0.203 C 
ATOM     30  C   UNL     1       7.727   1.101  23.408  0.00  0.00    +0.068 C 
BRANCH  29  31
ATOM     31  C   UNL     1       9.635   1.230  21.889  0.00  0.00    +0.349 C 
ATOM     32  O   UNL     1       9.362   0.342  21.094  0.00  0.00    -0.246 OA
BRANCH  31  33
ATOM     33  O   UNL     1      10.297   2.352  21.507  0.00  0.00    -0.478 OA
ATOM     34  H   UNL     1       9.752   2.834  20.841  0.00  0.00    +0.295 HD
ENDBRANCH  31  33
ENDBRANCH  29  31
BRANCH  29  35
ATOM     35  C   UNL     1       9.787   2.549  23.973  0.00  0.00    +0.056 C 
ATOM     36  C   UNL     1       8.732   3.393  24.680  0.00  0.00    +0.008 C 
ENDBRANCH  29  35
ENDBRANCH  28  29
ENDBRANCH  26  28
ENDBRANCH   1  22
TORSDOF 12
ENDMDL
MODEL 3
REMARK VINA RESULT:      -6.3      2.705      8.815
REMARK  Name = 
REMARK  16 active torsions:
REMARK  status: ('A' for Active; 'I' for Inactive)
REMARK    1  A    between atoms: C_1  and  C_2
REMARK    2  A    between atoms: C_2  and  C_3
REMARK    3  A    between atoms: C_3  and  C_4
REMARK    4  A    between atoms: C_3  and  O_5
REMARK    5  A    between atoms: C_3  and  C_32
REMARK    6  A    between atoms: O_5  and  C_6
REMARK    7  A    between atoms: C_9  and  C_12
REMARK    8  A    between atoms: C_12  and  C_18
REMARK    9  A    between atoms: C_20  and  O_21
REMARK   10  A    between atoms: O_21  and  C_22
REMARK   11  A    between atoms: C_22  and  C_23
REMARK   12  A    between atoms: C_22  and  C_24
REMARK   13  A    between atoms: C_22  and  C_26
REMARK   14  A    between atoms: C_24  and  C_25
REMARK   15  A    between atoms: C_26  and  O_27
REMARK   16  A    between atoms: C_32  and  O_33
REMARK                            x       y       z     vdW  Elec       q    Type
REMARK                         _______ _______ _______ _____ _____    ______ ____
ROOT
ATOM      1  C   UNL     1       8.109  -0.776  23.690  0.00  0.00    +0.021 C 
ATOM      2  C   UNL     1       8.600  -0.710  25.183  0.00  0.00    +0.016 C 
ATOM      3  C   UNL     1       9.641   0.382  25.449  0.00  0.00    +0.001 C 
ATOM      4  C   UNL     1      10.867   0.172  24.573  0.00  0.00    +0.000 C 
ATOM      5  C   UNL     1      10.481   0.131  23.103  0.00  0.00    +0.001 C 
ATOM      6  C   UNL     1       9.416  -0.931  22.834  0.00  0.00    +0.016 C 
ENDROOT
BRANCH   1  10
ATOM      7  C   UNL     1       6.096   3.029  22.798  0.00  0.00    +0.122 A 
ATOM      8  C   UNL     1       6.975   2.456  21.898  0.00  0.00    +0.046 A 
ATOM      9  C   UNL     1       7.594   1.234  22.174  0.00  0.00    +0.008 A 
ATOM     10  C   UNL     1       7.263   0.473  23.302  0.00  0.00    -0.037 A 
ATOM     11  C   UNL     1       6.203   0.968  24.088  0.00  0.00    +0.008 A 
ATOM     12  C   UNL     1       5.640   2.235  23.852  0.00  0.00    +0.046 A 
BRANCH   7  13
ATOM     13  O   UNL     1       5.632   4.304  22.732  0.00  0.00    -0.475 OA
BRANCH  13  14
ATOM     14  C   UNL     1       6.457   5.436  23.146  0.00  0.00    +0.203 C 
ATOM     15  C   UNL     1       7.205   6.085  21.972  0.00  0.00    +0.068 C 
BRANCH  14  17
ATOM     16  C   UNL     1       8.755   4.770  24.309  0.00  0.00    +0.008 C 
ATOM     17  C   UNL     1       7.302   5.209  24.433  0.00  0.00    +0.056 C 
ENDBRANCH  14  17
BRANCH  14  18
ATOM     18  C   UNL     1       5.412   6.515  23.567  0.00  0.00    +0.349 C 
ATOM     19  O   UNL     1       4.446   6.846  22.899  0.00  0.00    -0.246 OA
BRANCH  18  20
ATOM     20  O   UNL     1       5.663   7.071  24.779  0.00  0.00    -0.478 OA
ATOM     21  H   UNL     1       5.591   6.382  25.470  0.00  0.00    +0.295 HD
ENDBRANCH  18  20
ENDBRANCH  14  18
ENDBRANCH  13  14
ENDBRANCH   7  13
ENDBRANCH   1  10
BRANCH   1  22
ATOM     22  C   UNL     1       7.271  -2.078  23.422  0.00  0.00    -0.033 A 
ATOM     23  C   UNL     1       6.281  -2.180  22.437  0.00  0.00    +0.005 A 
ATOM     24  C   UNL     1       5.420  -3.283  22.406  0.00  0.00    +0.004 A 
ATOM     25  C   UNL     1       5.549  -4.317  23.338  0.00  0.00    +0.046 A 
ATOM     26  C   UNL     1       6.581  -4.294  24.271  0.00  0.00    +0.122 A 
ATOM     27  C   UNL     1       7.422  -3.184  24.290  0.00  0.00    +0.050 A 
BRANCH  26  28
ATOM     28  O   UNL     1       6.617  -5.331  25.166  0.00  0.00    -0.475 OA
BRANCH  28  29
ATOM     29  C   UNL     1       6.043  -5.214  26.493  0.00  0.00    +0.203 C 
ATOM     30  C   UNL     1       5.867  -3.748  26.919  0.00  0.00    +0.068 C 
BRANCH  29  31
ATOM     31  C   UNL     1       7.109  -5.778  27.466  0.00  0.00    +0.349 C 
ATOM     32  O   UNL     1       6.871  -6.195  28.592  0.00  0.00    -0.246 OA
BRANCH  31  33
ATOM     33  O   UNL     1       8.365  -5.789  26.952  0.00  0.00    -0.478 OA
ATOM     34  H   UNL     1       9.013  -5.843  27.692  0.00  0.00    +0.295 HD
ENDBRANCH  31  33
ENDBRANCH  29  31
BRANCH  29  35
ATOM     35  C   UNL     1       4.774  -6.077  26.717  0.00  0.00    +0.056 C 
ATOM     36  C   UNL     1       4.436  -7.017  25.564  0.00  0.00    +0.008 C 
ENDBRANCH  29  35
ENDBRANCH  28  29
ENDBRANCH  26  28
ENDBRANCH   1  22
TORSDOF 12
ENDMDL
MODEL 4
REMARK VINA RESULT:      -6.2      3.070      4.398
REMARK  Name = 
REMARK  16 active torsions:
REMARK  status: ('A' for Active; 'I' for Inactive)
REMARK    1  A    between atoms: C_1  and  C_2
REMARK    2  A    between atoms: C_2  and  C_3
REMARK    3  A    between atoms: C_3  and  C_4
REMARK    4  A    between atoms: C_3  and  O_5
REMARK    5  A    between atoms: C_3  and  C_32
REMARK    6  A    between atoms: O_5  and  C_6
REMARK    7  A    between atoms: C_9  and  C_12
REMARK    8  A    between atoms: C_12  and  C_18
REMARK    9  A    between atoms: C_20  and  O_21
REMARK   10  A    between atoms: O_21  and  C_22
REMARK   11  A    between atoms: C_22  and  C_23
REMARK   12  A    between atoms: C_22  and  C_24
REMARK   13  A    between atoms: C_22  and  C_26
REMARK   14  A    between atoms: C_24  and  C_25
REMARK   15  A    between atoms: C_26  and  O_27
REMARK   16  A    between atoms: C_32  and  O_33
REMARK                            x       y       z     vdW  Elec       q    Type
REMARK                         _______ _______ _______ _____ _____    ______ ____
ROOT
ATOM      1  C   UNL     1       7.193  -3.498  23.188  0.00  0.00    +0.021 C 
ATOM      2  C   UNL     1       5.745  -3.285  22.612  0.00  0.00    +0.016 C 
ATOM      3  C   UNL     1       4.878  -4.549  22.622  0.00  0.00    +0.001 C 
ATOM      4  C   UNL     1       5.537  -5.652  21.808  0.00  0.00    +0.000 C 
ATOM      5  C   UNL     1       6.937  -5.944  22.326  0.00  0.00    +0.001 C 
ATOM      6  C   UNL     1       7.798  -4.683  22.354  0.00  0.00    +0.016 C 
ENDROOT
BRANCH   1  10
ATOM      7  C   UNL     1       6.756  -4.601  27.421  0.00  0.00    +0.122 A 
ATOM      8  C   UNL     1       7.607  -5.298  26.585  0.00  0.00    +0.046 A 
ATOM      9  C   UNL     1       7.762  -4.929  25.246  0.00  0.00    +0.008 A 
ATOM     10  C   UNL     1       7.173  -3.772  24.722  0.00  0.00    -0.037 A 
ATOM     11  C   UNL     1       6.493  -2.955  25.647  0.00  0.00    +0.008 A 
ATOM     12  C   UNL     1       6.271  -3.371  26.973  0.00  0.00    +0.046 A 
BRANCH   7  13
ATOM     13  O   UNL     1       6.362  -5.015  28.654  0.00  0.00    -0.475 OA
BRANCH  13  14
ATOM     14  C   UNL     1       4.987  -5.436  28.910  0.00  0.00    +0.203 C 
ATOM     15  C   UNL     1       4.373  -6.204  27.731  0.00  0.00    +0.068 C 
BRANCH  14  17
ATOM     16  C   UNL     1       2.995  -3.685  28.714  0.00  0.00    +0.008 C 
ATOM     17  C   UNL     1       4.069  -4.358  29.556  0.00  0.00    +0.056 C 
ENDBRANCH  14  17
BRANCH  14  18
ATOM     18  C   UNL     1       5.139  -6.518  30.024  0.00  0.00    +0.349 C 
ATOM     19  O   UNL     1       4.224  -7.192  30.468  0.00  0.00    -0.246 OA
BRANCH  18  20
ATOM     20  O   UNL     1       6.412  -6.663  30.471  0.00  0.00    -0.478 OA
ATOM     21  H   UNL     1       6.740  -5.799  30.793  0.00  0.00    +0.295 HD
ENDBRANCH  18  20
ENDBRANCH  14  18
ENDBRANCH  13  14
ENDBRANCH   7  13
ENDBRANCH   1  10
BRANCH   1  22
ATOM     22  C   UNL     1       8.113  -2.259  22.892  0.00  0.00    -0.033 A 
ATOM     23  C   UNL     1       9.506  -2.269  23.033  0.00  0.00    +0.005 A 
ATOM     24  C   UNL     1      10.235  -1.076  22.977  0.00  0.00    +0.004 A 
ATOM     25  C   UNL     1       9.592   0.144  22.751  0.00  0.00    +0.046 A 
ATOM     26  C   UNL     1       8.221   0.180  22.512  0.00  0.00    +0.122 A 
ATOM     27  C   UNL     1       7.513  -1.017  22.580  0.00  0.00    +0.050 A 
BRANCH  26  28
ATOM     28  O   UNL     1       7.666   1.420  22.330  0.00  0.00    -0.475 OA
BRANCH  28  29
ATOM     29  C   UNL     1       7.225   2.231  23.449  0.00  0.00    +0.203 C 
ATOM     30  C   UNL     1       7.267   1.456  24.775  0.00  0.00    +0.068 C 
BRANCH  29  31
ATOM     31  C   UNL     1       5.719   2.505  23.205  0.00  0.00    +0.349 C 
ATOM     32  O   UNL     1       5.282   3.328  22.413  0.00  0.00    -0.246 OA
BRANCH  31  33
ATOM     33  O   UNL     1       4.896   1.724  23.950  0.00  0.00    -0.478 OA
ATOM     34  H   UNL     1       5.317   0.841  24.072  0.00  0.00    +0.295 HD
ENDBRANCH  31  33
ENDBRANCH  29  31
BRANCH  29  35
ATOM     35  C   UNL     1       7.896   3.626  23.530  0.00  0.00    +0.056 C 
ATOM     36  C   UNL     1       9.300   3.620  24.126  0.00  0.00    +0.008 C 
ENDBRANCH  29  35
ENDBRANCH  28  29
ENDBRANCH  26  28
ENDBRANCH   1  22
TORSDOF 12
ENDMDL
MODEL 5
REMARK VINA RESULT:      -6.2      1.703      2.638
REMARK  Name = 
REMARK  16 active torsions:
REMARK  status: ('A' for Active; 'I' for Inactive)
REMARK    1  A    between atoms: C_1  and  C_2
REMARK    2  A    between atoms: C_2  and  C_3
REMARK    3  A    between atoms: C_3  and  C_4
REMARK    4  A    between atoms: C_3  and  O_5
REMARK    5  A    between atoms: C_3  and  C_32
REMARK    6  A    between atoms: O_5  and  C_6
REMARK    7  A    between atoms: C_9  and  C_12
REMARK    8  A    between atoms: C_12  and  C_18
REMARK    9  A    between atoms: C_20  and  O_21
REMARK   10  A    between atoms: O_21  and  C_22
REMARK   11  A    between atoms: C_22  and  C_23
REMARK   12  A    between atoms: C_22  and  C_24
REMARK   13  A    between atoms: C_22  and  C_26
REMARK   14  A    between atoms: C_24  and  C_25
REMARK   15  A    between atoms: C_26  and  O_27
REMARK   16  A    between atoms: C_32  and  O_33
REMARK                            x       y       z     vdW  Elec       q    Type
REMARK                         _______ _______ _______ _____ _____    ______ ____
ROOT
ATOM      1  C   UNL     1       6.761  -3.727  25.554  0.00  0.00    +0.021 C 
ATOM      2  C   UNL     1       7.409  -4.799  26.506  0.00  0.00    +0.016 C 
ATOM      3  C   UNL     1       6.413  -5.469  27.458  0.00  0.00    +0.001 C 
ATOM      4  C   UNL     1       5.735  -4.428  28.336  0.00  0.00    +0.000 C 
ATOM      5  C   UNL     1       5.051  -3.367  27.487  0.00  0.00    +0.001 C 
ATOM      6  C   UNL     1       6.028  -2.719  26.508  0.00  0.00    +0.016 C 
ENDROOT
BRANCH   1  10
ATOM      7  C   UNL     1       3.808  -5.727  22.985  0.00  0.00    +0.122 A 
ATOM      8  C   UNL     1       3.651  -4.406  23.361  0.00  0.00    +0.046 A 
ATOM      9  C   UNL     1       4.605  -3.766  24.157  0.00  0.00    +0.008 A 
ATOM     10  C   UNL     1       5.814  -4.380  24.503  0.00  0.00    -0.037 A 
ATOM     11  C   UNL     1       6.052  -5.642  23.923  0.00  0.00    +0.008 A 
ATOM     12  C   UNL     1       5.057  -6.315  23.190  0.00  0.00    +0.046 A 
BRANCH   7  13
ATOM     13  O   UNL     1       2.841  -6.497  22.420  0.00  0.00    -0.475 OA
BRANCH  13  14
ATOM     14  C   UNL     1       1.612  -6.821  23.138  0.00  0.00    +0.203 C 
ATOM     15  C   UNL     1       0.452  -5.880  22.783  0.00  0.00    +0.068 C 
BRANCH  14  17
ATOM     16  C   UNL     1       1.340  -6.094  25.682  0.00  0.00    +0.008 C 
ATOM     17  C   UNL     1       1.786  -7.125  24.655  0.00  0.00    +0.056 C 
ENDBRANCH  14  17
BRANCH  14  18
ATOM     18  C   UNL     1       1.183  -8.191  22.527  0.00  0.00    +0.349 C 
ATOM     19  O   UNL     1       1.169  -8.447  21.334  0.00  0.00    -0.246 OA
BRANCH  18  20
ATOM     20  O   UNL     1       0.820  -9.112  23.456  0.00  0.00    -0.478 OA
ATOM     21  H   UNL     1       0.926  -8.726  24.348  0.00  0.00    +0.295 HD
ENDBRANCH  18  20
ENDBRANCH  14  18
ENDBRANCH  13  14
ENDBRANCH   7  13
ENDBRANCH   1  10
BRANCH   1  22
ATOM     22  C   UNL     1       7.861  -2.884  24.813  0.00  0.00    -0.033 A 
ATOM     23  C   UNL     1       8.975  -3.444  24.174  0.00  0.00    +0.005 A 
ATOM     24  C   UNL     1      10.027  -2.630  23.737  0.00  0.00    +0.004 A 
ATOM     25  C   UNL     1       9.974  -1.243  23.902  0.00  0.00    +0.046 A 
ATOM     26  C   UNL     1       8.842  -0.645  24.447  0.00  0.00    +0.122 A 
ATOM     27  C   UNL     1       7.809  -1.473  24.882  0.00  0.00    +0.050 A 
BRANCH  26  28
ATOM     28  O   UNL     1       8.885   0.716  24.601  0.00  0.00    -0.475 OA
BRANCH  28  29
ATOM     29  C   UNL     1       8.422   1.617  23.561  0.00  0.00    +0.203 C 
ATOM     30  C   UNL     1       7.871   0.858  22.344  0.00  0.00    +0.068 C 
BRANCH  29  31
ATOM     31  C   UNL     1       9.688   2.338  23.032  0.00  0.00    +0.349 C 
ATOM     32  O   UNL     1      10.489   2.938  23.735  0.00  0.00    -0.246 OA
BRANCH  31  33
ATOM     33  O   UNL     1       9.852   2.234  21.689  0.00  0.00    -0.478 OA
ATOM     34  H   UNL     1      10.524   2.894  21.398  0.00  0.00    +0.295 HD
ENDBRANCH  31  33
ENDBRANCH  29  31
BRANCH  29  35
ATOM     35  C   UNL     1       7.480   2.740  24.065  0.00  0.00    +0.056 C 
ATOM     36  C   UNL     1       6.890   2.498  25.451  0.00  0.00    +0.008 C 
ENDBRANCH  29  35
ENDBRANCH  28  29
ENDBRANCH  26  28
ENDBRANCH   1  22
TORSDOF 12
ENDMDL
MODEL 6
REMARK VINA RESULT:      -6.2      2.211      9.234
REMARK  Name = 
REMARK  16 active torsions:
REMARK  status: ('A' for Active; 'I' for Inactive)
REMARK    1  A    between atoms: C_1  and  C_2
REMARK    2  A    between atoms: C_2  and  C_3
REMARK    3  A    between atoms: C_3  and  C_4
REMARK    4  A    between atoms: C_3  and  O_5
REMARK    5  A    between atoms: C_3  and  C_32
REMARK    6  A    between atoms: O_5  and  C_6
REMARK    7  A    between atoms: C_9  and  C_12
REMARK    8  A    between atoms: C_12  and  C_18
REMARK    9  A    between atoms: C_20  and  O_21
REMARK   10  A    between atoms: O_21  and  C_22
REMARK   11  A    between atoms: C_22  and  C_23
REMARK   12  A    between atoms: C_22  and  C_24
REMARK   13  A    between atoms: C_22  and  C_26
REMARK   14  A    between atoms: C_24  and  C_25
REMARK   15  A    between atoms: C_26  and  O_27
REMARK   16  A    between atoms: C_32  and  O_33
REMARK                            x       y       z     vdW  Elec       q    Type
REMARK                         _______ _______ _______ _____ _____    ______ ____
ROOT
ATOM      1  C   UNL     1       6.567  -4.529  24.010  0.00  0.00    +0.021 C 
ATOM      2  C   UNL     1       7.419  -5.683  23.366  0.00  0.00    +0.016 C 
ATOM      3  C   UNL     1       7.603  -5.550  21.851  0.00  0.00    +0.001 C 
ATOM      4  C   UNL     1       6.253  -5.532  21.150  0.00  0.00    +0.000 C 
ATOM      5  C   UNL     1       5.376  -4.415  21.695  0.00  0.00    +0.001 C 
ATOM      6  C   UNL     1       5.216  -4.518  23.211  0.00  0.00    +0.016 C 
ENDROOT
BRANCH   1  10
ATOM      7  C   UNL     1       8.614  -0.688  23.394  0.00  0.00    +0.122 A 
ATOM      8  C   UNL     1       7.250  -0.745  23.608  0.00  0.00    +0.046 A 
ATOM      9  C   UNL     1       6.606  -1.966  23.828  0.00  0.00    +0.008 A 
ATOM     10  C   UNL     1       7.317  -3.163  23.971  0.00  0.00    -0.037 A 
ATOM     11  C   UNL     1       8.721  -3.049  23.973  0.00  0.00    +0.008 A 
ATOM     12  C   UNL     1       9.362  -1.833  23.670  0.00  0.00    +0.046 A 
BRANCH   7  13
ATOM     13  O   UNL     1       9.288   0.403  22.943  0.00  0.00    -0.475 OA
BRANCH  13  14
ATOM     14  C   UNL     1       9.871   1.371  23.867  0.00  0.00    +0.203 C 
ATOM     15  C   UNL     1      11.104   0.822  24.600  0.00  0.00    +0.068 C 
BRANCH  14  17
ATOM     16  C   UNL     1       7.734   2.938  24.099  0.00  0.00    +0.008 C 
ATOM     17  C   UNL     1       8.853   2.142  24.757  0.00  0.00    +0.056 C 
ENDBRANCH  14  17
BRANCH  14  18
ATOM     18  C   UNL     1      10.454   2.470  22.925  0.00  0.00    +0.349 C 
ATOM     19  O   UNL     1      11.117   3.424  23.295  0.00  0.00    -0.246 OA
BRANCH  18  20
ATOM     20  O   UNL     1      10.164   2.272  21.614  0.00  0.00    -0.478 OA
ATOM     21  H   UNL     1      10.953   1.913  21.160  0.00  0.00    +0.295 HD
ENDBRANCH  18  20
ENDBRANCH  14  18
ENDBRANCH  13  14
ENDBRANCH   7  13
ENDBRANCH   1  10
BRANCH   1  22
ATOM     22  C   UNL     1       6.178  -4.867  25.495  0.00  0.00    -0.033 A 
ATOM     23  C   UNL     1       7.110  -5.151  26.501  0.00  0.00    +0.005 A 
ATOM     24  C   UNL     1       6.691  -5.667  27.733  0.00  0.00    +0.004 A 
ATOM     25  C   UNL     1       5.335  -5.881  27.994  0.00  0.00    +0.046 A 
ATOM     26  C   UNL     1       4.375  -5.522  27.053  0.00  0.00    +0.122 A 
ATOM     27  C   UNL     1       4.813  -5.018  25.831  0.00  0.00    +0.050 A 
BRANCH  26  28
ATOM     28  O   UNL     1       3.071  -5.794  27.377  0.00  0.00    -0.475 OA
BRANCH  28  29
ATOM     29  C   UNL     1       2.230  -6.618  26.529  0.00  0.00    +0.203 C 
ATOM     30  C   UNL     1       1.176  -5.787  25.780  0.00  0.00    +0.068 C 
BRANCH  29  31
ATOM     31  C   UNL     1       1.409  -7.514  27.491  0.00  0.00    +0.349 C 
ATOM     32  O   UNL     1       0.759  -8.491  27.146  0.00  0.00    -0.246 OA
BRANCH  31  33
ATOM     33  O   UNL     1       1.482  -7.127  28.790  0.00  0.00    -0.478 OA
ATOM     34  H   UNL     1       2.427  -6.978  29.027  0.00  0.00    +0.295 HD
ENDBRANCH  31  33
ENDBRANCH  29  31
BRANCH  29  35
ATOM     35  C   UNL     1       3.011  -7.593  25.612  0.00  0.00    +0.056 C 
ATOM     36  C   UNL     1       2.674  -7.476  24.129  0.00  0.00    +0.008 C 
ENDBRANCH  29  35
ENDBRANCH  28  29
ENDBRANCH  26  28
ENDBRANCH   1  22
TORSDOF 12
ENDMDL
MODEL 7
REMARK VINA RESULT:      -6.2      1.508      2.622
REMARK  Name = 
REMARK  16 active torsions:
REMARK  status: ('A' for Active; 'I' for Inactive)
REMARK    1  A    between atoms: C_1  and  C_2
REMARK    2  A    between atoms: C_2  and  C_3
REMARK    3  A    between atoms: C_3  and  C_4
REMARK    4  A    between atoms: C_3  and  O_5
REMARK    5  A    between atoms: C_3  and  C_32
REMARK    6  A    between atoms: O_5  and  C_6
REMARK    7  A    between atoms: C_9  and  C_12
REMARK    8  A    between atoms: C_12  and  C_18
REMARK    9  A    between atoms: C_20  and  O_21
REMARK   10  A    between atoms: O_21  and  C_22
REMARK   11  A    between atoms: C_22  and  C_23
REMARK   12  A    between atoms: C_22  and  C_24
REMARK   13  A    between atoms: C_22  and  C_26
REMARK   14  A    between atoms: C_24  and  C_25
REMARK   15  A    between atoms: C_26  and  O_27
REMARK   16  A    between atoms: C_32  and  O_33
REMARK                            x       y       z     vdW  Elec       q    Type
REMARK                         _______ _______ _______ _____ _____    ______ ____
ROOT
ATOM      1  C   UNL     1       7.596  -2.697  25.300  0.00  0.00    +0.021 C 
ATOM      2  C   UNL     1       8.880  -3.120  24.496  0.00  0.00    +0.016 C 
ATOM      3  C   UNL     1       9.115  -4.633  24.447  0.00  0.00    +0.001 C 
ATOM      4  C   UNL     1       9.250  -5.196  25.854  0.00  0.00    +0.000 C 
ATOM      5  C   UNL     1       8.025  -4.859  26.690  0.00  0.00    +0.001 C 
ATOM      6  C   UNL     1       7.761  -3.354  26.716  0.00  0.00    +0.016 C 
ENDROOT
BRANCH   1  10
ATOM      7  C   UNL     1       3.928  -4.339  23.518  0.00  0.00    +0.122 A 
ATOM      8  C   UNL     1       3.884  -3.570  24.666  0.00  0.00    +0.046 A 
ATOM      9  C   UNL     1       5.049  -3.030  25.216  0.00  0.00    +0.008 A 
ATOM     10  C   UNL     1       6.287  -3.127  24.571  0.00  0.00    -0.037 A 
ATOM     11  C   UNL     1       6.271  -3.720  23.292  0.00  0.00    +0.008 A 
ATOM     12  C   UNL     1       5.113  -4.334  22.780  0.00  0.00    +0.046 A 
BRANCH   7  13
ATOM     13  O   UNL     1       2.902  -5.094  23.044  0.00  0.00    -0.475 OA
BRANCH  13  14
ATOM     14  C   UNL     1       2.339  -6.189  23.829  0.00  0.00    +0.203 C 
ATOM     15  C   UNL     1       1.318  -5.708  24.871  0.00  0.00    +0.068 C 
BRANCH  14  17
ATOM     16  C   UNL     1       3.923  -7.127  25.748  0.00  0.00    +0.008 C 
ATOM     17  C   UNL     1       3.366  -7.243  24.337  0.00  0.00    +0.056 C 
ENDBRANCH  14  17
BRANCH  14  18
ATOM     18  C   UNL     1       1.475  -6.973  22.793  0.00  0.00    +0.349 C 
ATOM     19  O   UNL     1       1.465  -8.187  22.672  0.00  0.00    -0.246 OA
BRANCH  18  20
ATOM     20  O   UNL     1       0.703  -6.175  22.013  0.00  0.00    -0.478 OA
ATOM     21  H   UNL     1      -0.031  -6.703  21.640  0.00  0.00    +0.295 HD
ENDBRANCH  18  20
ENDBRANCH  14  18
ENDBRANCH  13  14
ENDBRANCH   7  13
ENDBRANCH   1  10
BRANCH   1  22
ATOM     22  C   UNL     1       7.566  -1.147  25.554  0.00  0.00    -0.033 A 
ATOM     23  C   UNL     1       7.501  -0.565  26.826  0.00  0.00    +0.005 A 
ATOM     24  C   UNL     1       7.246   0.804  26.970  0.00  0.00    +0.004 A 
ATOM     25  C   UNL     1       7.079   1.621  25.848  0.00  0.00    +0.046 A 
ATOM     26  C   UNL     1       7.231   1.095  24.569  0.00  0.00    +0.122 A 
ATOM     27  C   UNL     1       7.477  -0.270  24.448  0.00  0.00    +0.050 A 
BRANCH  26  28
ATOM     28  O   UNL     1       7.021   1.959  23.525  0.00  0.00    -0.475 OA
BRANCH  28  29
ATOM     29  C   UNL     1       8.082   2.803  23.009  0.00  0.00    +0.203 C 
ATOM     30  C   UNL     1       7.534   4.053  22.304  0.00  0.00    +0.068 C 
BRANCH  29  31
ATOM     31  C   UNL     1       8.761   1.985  21.881  0.00  0.00    +0.349 C 
ATOM     32  O   UNL     1       8.195   1.146  21.193  0.00  0.00    -0.246 OA
BRANCH  31  33
ATOM     33  O   UNL     1      10.071   2.292  21.698  0.00  0.00    -0.478 OA
ATOM     34  H   UNL     1      10.304   3.054  22.278  0.00  0.00    +0.295 HD
ENDBRANCH  31  33
ENDBRANCH  29  31
BRANCH  29  35
ATOM     35  C   UNL     1       9.204   3.115  24.033  0.00  0.00    +0.056 C 
ATOM     36  C   UNL     1       9.098   4.488  24.689  0.00  0.00    +0.008 C 
ENDBRANCH  29  35
ENDBRANCH  28  29
ENDBRANCH  26  28
ENDBRANCH   1  22
TORSDOF 12
ENDMDL
MODEL 8
REMARK VINA RESULT:      -6.1      1.824      9.232
REMARK  Name = 
REMARK  16 active torsions:
REMARK  status: ('A' for Active; 'I' for Inactive)
REMARK    1  A    between atoms: C_1  and  C_2
REMARK    2  A    between atoms: C_2  and  C_3
REMARK    3  A    between atoms: C_3  and  C_4
REMARK    4  A    between atoms: C_3  and  O_5
REMARK    5  A    between atoms: C_3  and  C_32
REMARK    6  A    between atoms: O_5  and  C_6
REMARK    7  A    between atoms: C_9  and  C_12
REMARK    8  A    between atoms: C_12  and  C_18
REMARK    9  A    between atoms: C_20  and  O_21
REMARK   10  A    between atoms: O_21  and  C_22
REMARK   11  A    between atoms: C_22  and  C_23
REMARK   12  A    between atoms: C_22  and  C_24
REMARK   13  A    between atoms: C_22  and  C_26
REMARK   14  A    between atoms: C_24  and  C_25
REMARK   15  A    between atoms: C_26  and  O_27
REMARK   16  A    between atoms: C_32  and  O_33
REMARK                            x       y       z     vdW  Elec       q    Type
REMARK                         _______ _______ _______ _____ _____    ______ ____
ROOT
ATOM      1  C   UNL     1       6.517  -3.992  25.752  0.00  0.00    +0.021 C 
ATOM      2  C   UNL     1       7.581  -4.321  26.863  0.00  0.00    +0.016 C 
ATOM      3  C   UNL     1       9.025  -4.346  26.353  0.00  0.00    +0.001 C 
ATOM      4  C   UNL     1       9.182  -5.380  25.249  0.00  0.00    +0.000 C 
ATOM      5  C   UNL     1       8.207  -5.111  24.114  0.00  0.00    +0.001 C 
ATOM      6  C   UNL     1       6.766  -5.048  24.618  0.00  0.00    +0.016 C 
ENDROOT
BRANCH   1  10
ATOM      7  C   UNL     1       7.305   0.042  24.193  0.00  0.00    +0.122 A 
ATOM      8  C   UNL     1       6.736  -0.935  23.397  0.00  0.00    +0.046 A 
ATOM      9  C   UNL     1       6.465  -2.208  23.903  0.00  0.00    +0.008 A 
ATOM     10  C   UNL     1       6.630  -2.519  25.258  0.00  0.00    -0.037 A 
ATOM     11  C   UNL     1       6.997  -1.446  26.095  0.00  0.00    +0.008 A 
ATOM     12  C   UNL     1       7.347  -0.188  25.569  0.00  0.00    +0.046 A 
BRANCH   7  13
ATOM     13  O   UNL     1       7.818   1.216  23.741  0.00  0.00    -0.475 OA
BRANCH  13  14
ATOM     14  C   UNL     1       9.054   1.257  22.966  0.00  0.00    +0.203 C 
ATOM     15  C   UNL     1       8.804   1.318  21.453  0.00  0.00    +0.068 C 
BRANCH  14  17
ATOM     16  C   UNL     1      10.910   0.514  24.721  0.00  0.00    +0.008 C 
ATOM     17  C   UNL     1      10.160   0.260  23.421  0.00  0.00    +0.056 C 
ENDBRANCH  14  17
BRANCH  14  18
ATOM     18  C   UNL     1       9.650   2.659  23.304  0.00  0.00    +0.349 C 
ATOM     19  O   UNL     1       9.302   3.355  24.243  0.00  0.00    -0.246 OA
BRANCH  18  20
ATOM     20  O   UNL     1      10.625   3.057  22.447  0.00  0.00    -0.478 OA
ATOM     21  H   UNL     1      11.451   3.208  22.948  0.00  0.00    +0.295 HD
ENDBRANCH  18  20
ENDBRANCH  14  18
ENDBRANCH  13  14
ENDBRANCH   7  13
ENDBRANCH   1  10
BRANCH   1  22
ATOM     22  C   UNL     1       5.056  -4.259  26.266  0.00  0.00    -0.033 A 
ATOM     23  C   UNL     1       4.702  -4.316  27.619  0.00  0.00    +0.005 A 
ATOM     24  C   UNL     1       3.440  -4.783  28.005  0.00  0.00    +0.004 A 
ATOM     25  C   UNL     1       2.499  -5.172  27.048  0.00  0.00    +0.046 A 
ATOM     26  C   UNL     1       2.782  -5.039  25.693  0.00  0.00    +0.122 A 
ATOM     27  C   UNL     1       4.046  -4.580  25.330  0.00  0.00    +0.050 A 
BRANCH  26  28
ATOM     28  O   UNL     1       1.816  -5.472  24.822  0.00  0.00    -0.475 OA
BRANCH  28  29
ATOM     29  C   UNL     1       1.716  -6.864  24.424  0.00  0.00    +0.203 C 
ATOM     30  C   UNL     1       3.031  -7.625  24.651  0.00  0.00    +0.068 C 
BRANCH  29  31
ATOM     31  C   UNL     1       1.533  -6.851  22.885  0.00  0.00    +0.349 C 
ATOM     32  O   UNL     1       1.166  -5.880  22.237  0.00  0.00    -0.246 OA
BRANCH  31  33
ATOM     33  O   UNL     1       1.835  -8.033  22.291  0.00  0.00    -0.478 OA
ATOM     34  H   UNL     1       2.421  -7.861  21.517  0.00  0.00    +0.295 HD
ENDBRANCH  31  33
ENDBRANCH  29  31
BRANCH  29  35
ATOM     35  C   UNL     1       0.473  -7.600  24.987  0.00  0.00    +0.056 C 
ATOM     36  C   UNL     1       0.739  -8.419  26.247  0.00  0.00    +0.008 C 
ENDBRANCH  29  35
ENDBRANCH  28  29
ENDBRANCH  26  28
ENDBRANCH   1  22
TORSDOF 12
ENDMDL
MODEL 9
REMARK VINA RESULT:      -6.1      3.212      5.475
REMARK  Name = 
REMARK  16 active torsions:
REMARK  status: ('A' for Active; 'I' for Inactive)
REMARK    1  A    between atoms: C_1  and  C_2
REMARK    2  A    between atoms: C_2  and  C_3
REMARK    3  A    between atoms: C_3  and  C_4
REMARK    4  A    between atoms: C_3  and  O_5
REMARK    5  A    between atoms: C_3  and  C_32
REMARK    6  A    between atoms: O_5  and  C_6
REMARK    7  A    between atoms: C_9  and  C_12
REMARK    8  A    between atoms: C_12  and  C_18
REMARK    9  A    between atoms: C_20  and  O_21
REMARK   10  A    between atoms: O_21  and  C_22
REMARK   11  A    between atoms: C_22  and  C_23
REMARK   12  A    between atoms: C_22  and  C_24
REMARK   13  A    between atoms: C_22  and  C_26
REMARK   14  A    between atoms: C_24  and  C_25
REMARK   15  A    between atoms: C_26  and  O_27
REMARK   16  A    between atoms: C_32  and  O_33
REMARK                            x       y       z     vdW  Elec       q    Type
REMARK                         _______ _______ _______ _____ _____    ______ ____
ROOT
ATOM      1  C   UNL     1       8.023   1.128  23.869  0.00  0.00    +0.021 C 
ATOM      2  C   UNL     1       7.932   1.591  22.368  0.00  0.00    +0.016 C 
ATOM      3  C   UNL     1       9.205   1.329  21.558  0.00  0.00    +0.001 C 
ATOM      4  C   UNL     1      10.392   2.043  22.186  0.00  0.00    +0.000 C 
ATOM      5  C   UNL     1      10.571   1.622  23.636  0.00  0.00    +0.001 C 
ATOM      6  C   UNL     1       9.294   1.846  24.445  0.00  0.00    +0.016 C 
ENDROOT
BRANCH   1  10
ATOM      7  C   UNL     1       7.735  -3.218  24.460  0.00  0.00    +0.122 A 
ATOM      8  C   UNL     1       7.220  -2.615  23.328  0.00  0.00    +0.046 A 
ATOM      9  C   UNL     1       7.335  -1.236  23.133  0.00  0.00    +0.008 A 
ATOM     10  C   UNL     1       8.081  -0.424  23.995  0.00  0.00    -0.037 A 
ATOM     11  C   UNL     1       8.784  -1.093  25.016  0.00  0.00    +0.008 A 
ATOM     12  C   UNL     1       8.600  -2.468  25.258  0.00  0.00    +0.046 A 
BRANCH   7  13
ATOM     13  O   UNL     1       7.473  -4.493  24.852  0.00  0.00    -0.475 OA
BRANCH  13  14
ATOM     14  C   UNL     1       6.452  -4.785  25.854  0.00  0.00    +0.203 C 
ATOM     15  C   UNL     1       5.543  -5.955  25.451  0.00  0.00    +0.068 C 
BRANCH  14  17
ATOM     16  C   UNL     1       4.471  -3.013  25.755  0.00  0.00    +0.008 C 
ATOM     17  C   UNL     1       5.721  -3.543  26.443  0.00  0.00    +0.056 C 
ENDBRANCH  14  17
BRANCH  14  18
ATOM     18  C   UNL     1       7.272  -5.345  27.058  0.00  0.00    +0.349 C 
ATOM     19  O   UNL     1       6.834  -5.503  28.185  0.00  0.00    -0.246 OA
BRANCH  18  20
ATOM     20  O   UNL     1       8.554  -5.661  26.743  0.00  0.00    -0.478 OA
ATOM     21  H   UNL     1       8.767  -5.297  25.860  0.00  0.00    +0.295 HD
ENDBRANCH  18  20
ENDBRANCH  14  18
ENDBRANCH  13  14
ENDBRANCH   7  13
ENDBRANCH   1  10
BRANCH   1  22
ATOM     22  C   UNL     1       6.812   1.674  24.709  0.00  0.00    -0.033 A 
ATOM     23  C   UNL     1       5.541   1.925  24.175  0.00  0.00    +0.005 A 
ATOM     24  C   UNL     1       4.583   2.622  24.919  0.00  0.00    +0.004 A 
ATOM     25  C   UNL     1       4.863   3.057  26.218  0.00  0.00    +0.046 A 
ATOM     26  C   UNL     1       6.081   2.742  26.814  0.00  0.00    +0.122 A 
ATOM     27  C   UNL     1       7.023   2.055  26.054  0.00  0.00    +0.050 A 
BRANCH  26  28
ATOM     28  O   UNL     1       6.285   3.232  28.078  0.00  0.00    -0.475 OA
BRANCH  28  29
ATOM     29  C   UNL     1       6.152   2.391  29.253  0.00  0.00    +0.203 C 
ATOM     30  C   UNL     1       5.280   3.047  30.335  0.00  0.00    +0.068 C 
BRANCH  29  31
ATOM     31  C   UNL     1       7.567   2.318  29.882  0.00  0.00    +0.349 C 
ATOM     32  O   UNL     1       8.107   3.236  30.485  0.00  0.00    -0.246 OA
BRANCH  31  33
ATOM     33  O   UNL     1       8.172   1.114  29.722  0.00  0.00    -0.478 OA
ATOM     34  H   UNL     1       7.948   0.759  28.830  0.00  0.00    +0.295 HD
ENDBRANCH  31  33
ENDBRANCH  29  31
BRANCH  29  35
ATOM     35  C   UNL     1       5.754   0.925  28.945  0.00  0.00    +0.056 C 
ATOM     36  C   UNL     1       4.323   0.563  29.332  0.00  0.00    +0.008 C 
ENDBRANCH  29  35
ENDBRANCH  28  29
ENDBRANCH  26  28
ENDBRANCH   1  22
TORSDOF 12
ENDMDL
