MODEL 1
REMARK VINA RESULT:      -7.1      0.000      0.000
REMARK  Name = 
REMARK  13 active torsions:
REMARK  status: ('A' for Active; 'I' for Inactive)
REMARK    1  A    between atoms: C_1  and  C_2
REMARK    2  A    between atoms: C_2  and  N_3
REMARK    3  A    between atoms: C_4  and  C_6
REMARK    4  A    between atoms: C_9  and  N_15
REMARK    5  A    between atoms: C_11  and  O_12
REMARK    6  A    between atoms: C_13  and  O_14
REMARK    7  A    between atoms: C_19  and  N_20
REMARK    8  A    between atoms: C_22  and  C_25
REMARK    9  A    between atoms: C_26  and  C_27
REMARK   10  A    between atoms: C_27  and  C_28
REMARK   11  A    between atoms: C_31  and  C_34
REMARK   12  A    between atoms: C_34  and  O_36
REMARK   13  A    between atoms: O_36  and  C_37
REMARK                            x       y       z     vdW  Elec       q    Type
REMARK                         _______ _______ _______ _____ _____    ______ ____
ROOT
ATOM      1  N   UNL     1       5.567  -6.005  25.139  0.00  0.00    -0.285 N 
ATOM      2  C   UNL     1       6.273  -5.126  24.356  0.00  0.00    +0.169 A 
ATOM      3  C   UNL     1       5.877  -5.441  23.061  0.00  0.00    +0.147 A 
ATOM      4  C   UNL     1       6.436  -4.690  22.014  0.00  0.00    +0.148 A 
ATOM      5  N   UNL     1       7.310  -3.709  22.310  0.00  0.00    -0.203 NA
ATOM      6  C   UNL     1       7.630  -3.522  23.608  0.00  0.00    +0.209 A 
ATOM      7  N   UNL     1       4.970  -6.471  23.039  0.00  0.00    -0.231 NA
ATOM      8  N   UNL     1       7.162  -4.174  24.708  0.00  0.00    -0.200 NA
ATOM      9  C   UNL     1       4.822  -6.799  24.303  0.00  0.00    +0.203 A 
ENDROOT
BRANCH   1  13
ATOM     10  C   UNL     1       4.524  -6.799  28.455  0.00  0.00    +0.237 C 
ATOM     11  C   UNL     1       5.000  -5.364  28.725  0.00  0.00    +0.185 C 
ATOM     12  C   UNL     1       5.684  -4.939  27.421  0.00  0.00    +0.196 C 
ATOM     13  C   UNL     1       5.590  -6.200  26.570  0.00  0.00    +0.254 C 
ATOM     14  O   UNL     1       4.430  -6.920  27.032  0.00  0.00    -0.339 OA
BRANCH  10  17
ATOM     15  N   UNL     1       2.259  -7.747  28.607  0.00  0.00    -0.313 N 
ATOM     16  H   UNL     1       2.360  -7.880  27.604  0.00  0.00    +0.149 HD
ATOM     17  C   UNL     1       3.274  -7.111  29.282  0.00  0.00    +0.245 C 
ATOM     18  O   UNL     1       3.229  -6.837  30.480  0.00  0.00    -0.273 OA
BRANCH  15  20
ATOM     19  C   UNL     1       1.114  -9.651  29.677  0.00  0.00    +0.024 C 
ATOM     20  C   UNL     1       1.053  -8.188  29.278  0.00  0.00    +0.101 C 
ENDBRANCH  15  20
ENDBRANCH  10  17
BRANCH  11  21
ATOM     21  O   UNL     1       5.963  -5.265  29.787  0.00  0.00    -0.386 OA
ATOM     22  H   UNL     1       5.538  -4.843  30.559  0.00  0.00    +0.210 HD
ENDBRANCH  11  21
BRANCH  12  23
ATOM     23  O   UNL     1       7.055  -4.586  27.644  0.00  0.00    -0.385 OA
ATOM     24  H   UNL     1       7.544  -5.440  27.635  0.00  0.00    +0.210 HD
ENDBRANCH  12  23
ENDBRANCH   1  13
BRANCH   4  25
ATOM     25  N   UNL     1       6.113  -4.909  20.678  0.00  0.00    -0.341 N 
ATOM     26  H   UNL     1       6.713  -4.403  20.047  0.00  0.00    +0.144 HD
ATOM     27  H   UNL     1       5.110  -4.886  20.506  0.00  0.00    +0.144 HD
ENDBRANCH   4  25
BRANCH   6  28
ATOM     28  C   UNL     1       8.589  -2.477  23.833  0.00  0.00    -0.026 C 
ATOM     29  C   UNL     1       9.424  -1.494  24.018  0.00  0.00    -0.094 C 
BRANCH  29  30
ATOM     30  C   UNL     1      10.399  -0.347  24.234  0.00  0.00    +0.092 C 
BRANCH  30  31
ATOM     31  C   UNL     1       9.677   0.953  24.606  0.00  0.00    +0.001 C 
ATOM     32  C   UNL     1       8.169   0.914  24.307  0.00  0.00    +0.005 C 
ATOM     33  C   UNL     1       7.857   0.939  22.809  0.00  0.00    +0.015 C 
ATOM     34  C   UNL     1       8.543   2.100  22.079  0.00  0.00    +0.098 C 
ATOM     35  C   UNL     1      10.047   2.134  22.380  0.00  0.00    +0.015 C 
ATOM     36  C   UNL     1      10.336   2.138  23.883  0.00  0.00    +0.005 C 
BRANCH  34  37
ATOM     37  C   UNL     1       7.896   3.441  22.425  0.00  0.00    +0.310 C 
ATOM     38  O   UNL     1       8.452   4.363  23.002  0.00  0.00    -0.251 OA
BRANCH  37  39
ATOM     39  O   UNL     1       6.593   3.446  22.034  0.00  0.00    -0.468 OA
ATOM     40  C   UNL     1       5.768   4.322  22.803  0.00  0.00    +0.280 C 
ENDBRANCH  37  39
ENDBRANCH  34  37
ENDBRANCH  30  31
ENDBRANCH  29  30
ENDBRANCH   6  28
TORSDOF 11
ENDMDL
MODEL 2
REMARK VINA RESULT:      -7.0      1.913      2.940
REMARK  Name = 
REMARK  13 active torsions:
REMARK  status: ('A' for Active; 'I' for Inactive)
REMARK    1  A    between atoms: C_1  and  C_2
REMARK    2  A    between atoms: C_2  and  N_3
REMARK    3  A    between atoms: C_4  and  C_6
REMARK    4  A    between atoms: C_9  and  N_15
REMARK    5  A    between atoms: C_11  and  O_12
REMARK    6  A    between atoms: C_13  and  O_14
REMARK    7  A    between atoms: C_19  and  N_20
REMARK    8  A    between atoms: C_22  and  C_25
REMARK    9  A    between atoms: C_26  and  C_27
REMARK   10  A    between atoms: C_27  and  C_28
REMARK   11  A    between atoms: C_31  and  C_34
REMARK   12  A    between atoms: C_34  and  O_36
REMARK   13  A    between atoms: O_36  and  C_37
REMARK                            x       y       z     vdW  Elec       q    Type
REMARK                         _______ _______ _______ _____ _____    ______ ____
ROOT
ATOM      1  N   UNL     1       4.710  -6.071  25.582  0.00  0.00    -0.285 N 
ATOM      2  C   UNL     1       5.586  -5.472  24.712  0.00  0.00    +0.169 A 
ATOM      3  C   UNL     1       5.406  -6.172  23.525  0.00  0.00    +0.147 A 
ATOM      4  C   UNL     1       6.177  -5.777  22.418  0.00  0.00    +0.148 A 
ATOM      5  N   UNL     1       7.036  -4.748  22.558  0.00  0.00    -0.203 NA
ATOM      6  C   UNL     1       7.133  -4.170  23.773  0.00  0.00    +0.209 A 
ATOM      7  N   UNL     1       4.464  -7.163  23.651  0.00  0.00    -0.231 NA
ATOM      8  N   UNL     1       6.448  -4.454  24.915  0.00  0.00    -0.200 NA
ATOM      9  C   UNL     1       4.081  -7.088  24.906  0.00  0.00    +0.203 A 
ENDROOT
BRANCH   1  13
ATOM     10  C   UNL     1       4.128  -4.348  28.650  0.00  0.00    +0.237 C 
ATOM     11  C   UNL     1       5.371  -5.137  29.088  0.00  0.00    +0.185 C 
ATOM     12  C   UNL     1       5.634  -6.105  27.929  0.00  0.00    +0.196 C 
ATOM     13  C   UNL     1       4.472  -5.817  26.985  0.00  0.00    +0.254 C 
ATOM     14  O   UNL     1       4.080  -4.450  27.223  0.00  0.00    -0.339 OA
BRANCH  10  17
ATOM     15  N   UNL     1       4.048  -1.906  28.373  0.00  0.00    -0.313 N 
ATOM     16  H   UNL     1       4.072  -2.122  27.379  0.00  0.00    +0.149 HD
ATOM     17  C   UNL     1       4.142  -2.947  29.265  0.00  0.00    +0.245 C 
ATOM     18  O   UNL     1       4.190  -2.796  30.485  0.00  0.00    -0.273 OA
BRANCH  15  20
ATOM     19  C   UNL     1       5.198   0.274  28.467  0.00  0.00    +0.024 C 
ATOM     20  C   UNL     1       3.956  -0.528  28.811  0.00  0.00    +0.101 C 
ENDBRANCH  15  20
ENDBRANCH  10  17
BRANCH  11  21
ATOM     21  O   UNL     1       5.173  -5.913  30.280  0.00  0.00    -0.386 OA
ATOM     22  H   UNL     1       5.086  -6.854  30.033  0.00  0.00    +0.210 HD
ENDBRANCH  11  21
BRANCH  12  23
ATOM     23  O   UNL     1       5.595  -7.468  28.370  0.00  0.00    -0.385 OA
ATOM     24  H   UNL     1       6.536  -7.756  28.394  0.00  0.00    +0.210 HD
ENDBRANCH  12  23
ENDBRANCH   1  13
BRANCH   4  25
ATOM     25  N   UNL     1       6.081  -6.398  21.176  0.00  0.00    -0.341 N 
ATOM     26  H   UNL     1       5.382  -5.976  20.587  0.00  0.00    +0.144 HD
ATOM     27  H   UNL     1       6.102  -7.413  21.241  0.00  0.00    +0.144 HD
ENDBRANCH   4  25
BRANCH   6  28
ATOM     28  C   UNL     1       8.091  -3.102  23.841  0.00  0.00    -0.026 C 
ATOM     29  C   UNL     1       8.990  -2.158  23.866  0.00  0.00    -0.094 C 
BRANCH  29  30
ATOM     30  C   UNL     1      10.038  -1.058  23.896  0.00  0.00    +0.092 C 
BRANCH  30  31
ATOM     31  C   UNL     1       9.492   0.235  24.511  0.00  0.00    +0.001 C 
ATOM     32  C   UNL     1       8.037   0.529  24.108  0.00  0.00    +0.005 C 
ATOM     33  C   UNL     1       7.894   0.935  22.640  0.00  0.00    +0.015 C 
ATOM     34  C   UNL     1       8.827   2.089  22.250  0.00  0.00    +0.098 C 
ATOM     35  C   UNL     1      10.276   1.791  22.653  0.00  0.00    +0.015 C 
ATOM     36  C   UNL     1      10.400   1.415  24.131  0.00  0.00    +0.005 C 
BRANCH  34  37
ATOM     37  C   UNL     1       8.363   3.414  22.854  0.00  0.00    +0.310 C 
ATOM     38  O   UNL     1       9.086   4.223  23.415  0.00  0.00    -0.251 OA
BRANCH  37  39
ATOM     39  O   UNL     1       7.015   3.544  22.718  0.00  0.00    -0.468 OA
ATOM     40  C   UNL     1       6.580   4.898  22.599  0.00  0.00    +0.280 C 
ENDBRANCH  37  39
ENDBRANCH  34  37
ENDBRANCH  30  31
ENDBRANCH  29  30
ENDBRANCH   6  28
TORSDOF 11
ENDMDL
MODEL 3
REMARK VINA RESULT:      -6.9      4.448      9.678
REMARK  Name = 
REMARK  13 active torsions:
REMARK  status: ('A' for Active; 'I' for Inactive)
REMARK    1  A    between atoms: C_1  and  C_2
REMARK    2  A    between atoms: C_2  and  N_3
REMARK    3  A    between atoms: C_4  and  C_6
REMARK    4  A    between atoms: C_9  and  N_15
REMARK    5  A    between atoms: C_11  and  O_12
REMARK    6  A    between atoms: C_13  and  O_14
REMARK    7  A    between atoms: C_19  and  N_20
REMARK    8  A    between atoms: C_22  and  C_25
REMARK    9  A    between atoms: C_26  and  C_27
REMARK   10  A    between atoms: C_27  and  C_28
REMARK   11  A    between atoms: C_31  and  C_34
REMARK   12  A    between atoms: C_34  and  O_36
REMARK   13  A    between atoms: O_36  and  C_37
REMARK                            x       y       z     vdW  Elec       q    Type
REMARK                         _______ _______ _______ _____ _____    ______ ____
ROOT
ATOM      1  N   UNL     1       8.168   5.322  23.832  0.00  0.00    -0.285 N 
ATOM      2  C   UNL     1       9.100   4.321  23.715  0.00  0.00    +0.169 A 
ATOM      3  C   UNL     1      10.308   4.999  23.616  0.00  0.00    +0.147 A 
ATOM      4  C   UNL     1      11.475   4.227  23.488  0.00  0.00    +0.148 A 
ATOM      5  N   UNL     1      11.368   2.885  23.476  0.00  0.00    -0.203 NA
ATOM      6  C   UNL     1      10.131   2.350  23.554  0.00  0.00    +0.209 A 
ATOM      7  N   UNL     1      10.136   6.361  23.666  0.00  0.00    -0.231 NA
ATOM      8  N   UNL     1       8.932   2.982  23.682  0.00  0.00    -0.200 NA
ATOM      9  C   UNL     1       8.837   6.520  23.776  0.00  0.00    +0.203 A 
ENDROOT
BRANCH   1  13
ATOM     10  C   UNL     1       4.890   4.153  24.609  0.00  0.00    +0.237 C 
ATOM     11  C   UNL     1       4.707   4.290  23.091  0.00  0.00    +0.185 C 
ATOM     12  C   UNL     1       5.984   4.992  22.616  0.00  0.00    +0.196 C 
ATOM     13  C   UNL     1       6.728   5.247  23.922  0.00  0.00    +0.254 C 
ATOM     14  O   UNL     1       6.300   4.224  24.843  0.00  0.00    -0.339 OA
BRANCH  10  17
ATOM     15  N   UNL     1       4.753   2.247  26.157  0.00  0.00    -0.313 N 
ATOM     16  H   UNL     1       5.685   2.541  26.438  0.00  0.00    +0.149 HD
ATOM     17  C   UNL     1       4.141   2.923  25.129  0.00  0.00    +0.245 C 
ATOM     18  O   UNL     1       3.046   2.611  24.664  0.00  0.00    -0.273 OA
BRANCH  15  20
ATOM     19  C   UNL     1       4.890  -0.174  26.607  0.00  0.00    +0.024 C 
ATOM     20  C   UNL     1       4.122   1.119  26.813  0.00  0.00    +0.101 C 
ENDBRANCH  15  20
ENDBRANCH  10  17
BRANCH  11  21
ATOM     21  O   UNL     1       3.584   5.103  22.714  0.00  0.00    -0.386 OA
ATOM     22  H   UNL     1       2.771   4.566  22.775  0.00  0.00    +0.210 HD
ENDBRANCH  11  21
BRANCH  12  23
ATOM     23  O   UNL     1       5.684   6.230  21.960  0.00  0.00    -0.385 OA
ATOM     24  H   UNL     1       4.770   6.121  21.611  0.00  0.00    +0.210 HD
ENDBRANCH  12  23
ENDBRANCH   1  13
BRANCH   4  25
ATOM     25  N   UNL     1      12.742   4.794  23.386  0.00  0.00    -0.341 N 
ATOM     26  H   UNL     1      13.339   4.546  24.159  0.00  0.00    +0.144 HD
ATOM     27  H   UNL     1      12.715   5.769  23.096  0.00  0.00    +0.144 HD
ENDBRANCH   4  25
BRANCH   6  28
ATOM     28  C   UNL     1      10.107   0.916  23.505  0.00  0.00    -0.026 C 
ATOM     29  C   UNL     1      10.038  -0.386  23.486  0.00  0.00    -0.094 C 
BRANCH  29  30
ATOM     30  C   UNL     1       9.957  -1.904  23.464  0.00  0.00    +0.092 C 
BRANCH  30  31
ATOM     31  C   UNL     1       8.534  -2.404  23.737  0.00  0.00    +0.001 C 
ATOM     32  C   UNL     1       7.858  -1.688  24.918  0.00  0.00    +0.005 C 
ATOM     33  C   UNL     1       8.461  -2.067  26.272  0.00  0.00    +0.015 C 
ATOM     34  C   UNL     1       8.516  -3.584  26.493  0.00  0.00    +0.098 C 
ATOM     35  C   UNL     1       9.192  -4.294  25.313  0.00  0.00    +0.015 C 
ATOM     36  C   UNL     1       8.554  -3.922  23.973  0.00  0.00    +0.005 C 
BRANCH  34  37
ATOM     37  C   UNL     1       7.124  -4.165  26.743  0.00  0.00    +0.310 C 
ATOM     38  O   UNL     1       6.162  -3.534  27.155  0.00  0.00    -0.251 OA
BRANCH  37  39
ATOM     39  O   UNL     1       7.120  -5.500  26.480  0.00  0.00    -0.468 OA
ATOM     40  C   UNL     1       5.864  -5.986  26.008  0.00  0.00    +0.280 C 
ENDBRANCH  37  39
ENDBRANCH  34  37
ENDBRANCH  30  31
ENDBRANCH  29  30
ENDBRANCH   6  28
TORSDOF 11
ENDMDL
MODEL 4
REMARK VINA RESULT:      -6.9      2.734      4.477
REMARK  Name = 
REMARK  13 active torsions:
REMARK  status: ('A' for Active; 'I' for Inactive)
REMARK    1  A    between atoms: C_1  and  C_2
REMARK    2  A    between atoms: C_2  and  N_3
REMARK    3  A    between atoms: C_4  and  C_6
REMARK    4  A    between atoms: C_9  and  N_15
REMARK    5  A    between atoms: C_11  and  O_12
REMARK    6  A    between atoms: C_13  and  O_14
REMARK    7  A    between atoms: C_19  and  N_20
REMARK    8  A    between atoms: C_22  and  C_25
REMARK    9  A    between atoms: C_26  and  C_27
REMARK   10  A    between atoms: C_27  and  C_28
REMARK   11  A    between atoms: C_31  and  C_34
REMARK   12  A    between atoms: C_34  and  O_36
REMARK   13  A    between atoms: O_36  and  C_37
REMARK                            x       y       z     vdW  Elec       q    Type
REMARK                         _______ _______ _______ _____ _____    ______ ____
ROOT
ATOM      1  N   UNL     1       4.130  -4.369  24.775  0.00  0.00    -0.285 N 
ATOM      2  C   UNL     1       5.120  -4.187  23.842  0.00  0.00    +0.169 A 
ATOM      3  C   UNL     1       4.979  -5.276  22.990  0.00  0.00    +0.147 A 
ATOM      4  C   UNL     1       5.867  -5.368  21.906  0.00  0.00    +0.148 A 
ATOM      5  N   UNL     1       6.795  -4.406  21.741  0.00  0.00    -0.203 NA
ATOM      6  C   UNL     1       6.842  -3.414  22.655  0.00  0.00    +0.209 A 
ATOM      7  N   UNL     1       3.950  -6.099  23.377  0.00  0.00    -0.231 NA
ATOM      8  N   UNL     1       6.045  -3.210  23.741  0.00  0.00    -0.200 NA
ATOM      9  C   UNL     1       3.475  -5.535  24.465  0.00  0.00    +0.203 A 
ENDROOT
BRANCH   1  13
ATOM     10  C   UNL     1       3.649  -1.587  26.954  0.00  0.00    +0.237 C 
ATOM     11  C   UNL     1       4.590  -2.397  27.857  0.00  0.00    +0.185 C 
ATOM     12  C   UNL     1       4.733  -3.746  27.143  0.00  0.00    +0.196 C 
ATOM     13  C   UNL     1       3.802  -3.589  25.947  0.00  0.00    +0.254 C 
ATOM     14  O   UNL     1       3.745  -2.179  25.655  0.00  0.00    -0.339 OA
BRANCH  10  17
ATOM     15  N   UNL     1       4.878   0.252  28.031  0.00  0.00    -0.313 N 
ATOM     16  H   UNL     1       5.232  -0.481  28.642  0.00  0.00    +0.149 HD
ATOM     17  C   UNL     1       3.946  -0.090  27.080  0.00  0.00    +0.245 C 
ATOM     18  O   UNL     1       3.402   0.723  26.335  0.00  0.00    -0.273 OA
BRANCH  15  20
ATOM     19  C   UNL     1       6.533   1.944  27.338  0.00  0.00    +0.024 C 
ATOM     20  C   UNL     1       5.329   1.618  28.203  0.00  0.00    +0.101 C 
ENDBRANCH  15  20
ENDBRANCH  10  17
BRANCH  11  21
ATOM     21  O   UNL     1       4.064  -2.641  29.171  0.00  0.00    -0.386 OA
ATOM     22  H   UNL     1       4.801  -2.643  29.811  0.00  0.00    +0.210 HD
ENDBRANCH  11  21
BRANCH  12  23
ATOM     23  O   UNL     1       4.298  -4.826  27.979  0.00  0.00    -0.385 OA
ATOM     24  H   UNL     1       3.315  -4.777  27.970  0.00  0.00    +0.210 HD
ENDBRANCH  12  23
ENDBRANCH   1  13
BRANCH   4  25
ATOM     25  N   UNL     1       5.819  -6.409  20.983  0.00  0.00    -0.341 N 
ATOM     26  H   UNL     1       5.232  -6.199  20.193  0.00  0.00    +0.144 HD
ATOM     27  H   UNL     1       5.720  -7.321  21.423  0.00  0.00    +0.144 HD
ENDBRANCH   4  25
BRANCH   6  28
ATOM     28  C   UNL     1       7.877  -2.447  22.421  0.00  0.00    -0.026 C 
ATOM     29  C   UNL     1       8.783  -1.541  22.179  0.00  0.00    -0.094 C 
BRANCH  29  30
ATOM     30  C   UNL     1       9.839  -0.485  21.898  0.00  0.00    +0.092 C 
BRANCH  30  31
ATOM     31  C   UNL     1       9.227   0.915  21.769  0.00  0.00    +0.001 C 
ATOM     32  C   UNL     1      10.214   2.041  22.121  0.00  0.00    +0.005 C 
ATOM     33  C   UNL     1      10.538   2.106  23.615  0.00  0.00    +0.015 C 
ATOM     34  C   UNL     1       9.281   2.167  24.493  0.00  0.00    +0.098 C 
ATOM     35  C   UNL     1       8.301   1.042  24.139  0.00  0.00    +0.015 C 
ATOM     36  C   UNL     1       7.969   1.013  22.645  0.00  0.00    +0.005 C 
BRANCH  34  37
ATOM     37  C   UNL     1       8.594   3.529  24.393  0.00  0.00    +0.310 C 
ATOM     38  O   UNL     1       7.389   3.703  24.288  0.00  0.00    -0.251 OA
BRANCH  37  39
ATOM     39  O   UNL     1       9.523   4.523  24.394  0.00  0.00    -0.468 OA
ATOM     40  C   UNL     1       9.130   5.674  23.647  0.00  0.00    +0.280 C 
ENDBRANCH  37  39
ENDBRANCH  34  37
ENDBRANCH  30  31
ENDBRANCH  29  30
ENDBRANCH   6  28
TORSDOF 11
ENDMDL
MODEL 5
REMARK VINA RESULT:      -6.7      3.801      7.565
REMARK  Name = 
REMARK  13 active torsions:
REMARK  status: ('A' for Active; 'I' for Inactive)
REMARK    1  A    between atoms: C_1  and  C_2
REMARK    2  A    between atoms: C_2  and  N_3
REMARK    3  A    between atoms: C_4  and  C_6
REMARK    4  A    between atoms: C_9  and  N_15
REMARK    5  A    between atoms: C_11  and  O_12
REMARK    6  A    between atoms: C_13  and  O_14
REMARK    7  A    between atoms: C_19  and  N_20
REMARK    8  A    between atoms: C_22  and  C_25
REMARK    9  A    between atoms: C_26  and  C_27
REMARK   10  A    between atoms: C_27  and  C_28
REMARK   11  A    between atoms: C_31  and  C_34
REMARK   12  A    between atoms: C_34  and  O_36
REMARK   13  A    between atoms: O_36  and  C_37
REMARK                            x       y       z     vdW  Elec       q    Type
REMARK                         _______ _______ _______ _____ _____    ______ ____
ROOT
ATOM      1  N   UNL     1       8.517  -1.073  22.275  0.00  0.00    -0.285 N 
ATOM      2  C   UNL     1       7.829  -0.059  22.893  0.00  0.00    +0.169 A 
ATOM      3  C   UNL     1       8.349   1.095  22.320  0.00  0.00    +0.147 A 
ATOM      4  C   UNL     1       7.827   2.325  22.754  0.00  0.00    +0.148 A 
ATOM      5  N   UNL     1       6.854   2.326  23.686  0.00  0.00    -0.203 NA
ATOM      6  C   UNL     1       6.455   1.136  24.181  0.00  0.00    +0.209 A 
ATOM      7  N   UNL     1       9.320   0.813  21.391  0.00  0.00    -0.231 NA
ATOM      8  N   UNL     1       6.875  -0.116  23.847  0.00  0.00    -0.200 NA
ATOM      9  C   UNL     1       9.409  -0.498  21.404  0.00  0.00    +0.203 A 
ENDROOT
BRANCH   1  13
ATOM     10  C   UNL     1       7.226  -4.372  22.684  0.00  0.00    +0.237 C 
ATOM     11  C   UNL     1       8.027  -4.299  23.992  0.00  0.00    +0.185 C 
ATOM     12  C   UNL     1       8.827  -2.997  23.876  0.00  0.00    +0.196 C 
ATOM     13  C   UNL     1       8.455  -2.501  22.483  0.00  0.00    +0.254 C 
ATOM     14  O   UNL     1       7.143  -3.028  22.199  0.00  0.00    -0.339 OA
BRANCH  10  17
ATOM     15  N   UNL     1       5.868  -5.921  24.028  0.00  0.00    -0.313 N 
ATOM     16  H   UNL     1       6.716  -6.020  24.581  0.00  0.00    +0.149 HD
ATOM     17  C   UNL     1       5.917  -5.134  22.902  0.00  0.00    +0.245 C 
ATOM     18  O   UNL     1       4.973  -4.997  22.125  0.00  0.00    -0.273 OA
BRANCH  15  20
ATOM     19  C   UNL     1       4.512  -6.730  25.922  0.00  0.00    +0.024 C 
ATOM     20  C   UNL     1       4.665  -6.629  24.415  0.00  0.00    +0.101 C 
ENDBRANCH  15  20
ENDBRANCH  10  17
BRANCH  11  21
ATOM     21  O   UNL     1       8.957  -5.380  24.162  0.00  0.00    -0.386 OA
ATOM     22  H   UNL     1       9.809  -5.130  23.756  0.00  0.00    +0.210 HD
ENDBRANCH  11  21
BRANCH  12  23
ATOM     23  O   UNL     1      10.237  -3.243  23.959  0.00  0.00    -0.385 OA
ATOM     24  H   UNL     1      10.391  -3.539  24.886  0.00  0.00    +0.210 HD
ENDBRANCH  12  23
ENDBRANCH   1  13
BRANCH   4  25
ATOM     25  N   UNL     1       8.264   3.546  22.250  0.00  0.00    -0.341 N 
ATOM     26  H   UNL     1       9.255   3.557  22.072  0.00  0.00    +0.144 HD
ATOM     27  H   UNL     1       7.857   4.342  22.736  0.00  0.00    +0.144 HD
ENDBRANCH   4  25
BRANCH   6  28
ATOM     28  C   UNL     1       5.437   1.230  25.189  0.00  0.00    -0.026 C 
ATOM     29  C   UNL     1       4.509   1.262  26.104  0.00  0.00    -0.094 C 
BRANCH  29  30
ATOM     30  C   UNL     1       3.427   1.300  27.172  0.00  0.00    +0.092 C 
BRANCH  30  31
ATOM     31  C   UNL     1       3.703   0.300  28.300  0.00  0.00    +0.001 C 
ATOM     32  C   UNL     1       4.460  -0.952  27.826  0.00  0.00    +0.005 C 
ATOM     33  C   UNL     1       3.606  -1.873  26.952  0.00  0.00    +0.015 C 
ATOM     34  C   UNL     1       2.270  -2.242  27.609  0.00  0.00    +0.098 C 
ATOM     35  C   UNL     1       1.517  -0.990  28.079  0.00  0.00    +0.015 C 
ATOM     36  C   UNL     1       2.381  -0.099  28.974  0.00  0.00    +0.005 C 
BRANCH  34  37
ATOM     37  C   UNL     1       2.466  -3.217  28.769  0.00  0.00    +0.310 C 
ATOM     38  O   UNL     1       1.883  -3.162  29.841  0.00  0.00    -0.251 OA
BRANCH  37  39
ATOM     39  O   UNL     1       3.419  -4.136  28.452  0.00  0.00    -0.468 OA
ATOM     40  C   UNL     1       4.335  -4.400  29.514  0.00  0.00    +0.280 C 
ENDBRANCH  37  39
ENDBRANCH  34  37
ENDBRANCH  30  31
ENDBRANCH  29  30
ENDBRANCH   6  28
TORSDOF 11
ENDMDL
MODEL 6
REMARK VINA RESULT:      -6.7      4.515      9.581
REMARK  Name = 
REMARK  13 active torsions:
REMARK  status: ('A' for Active; 'I' for Inactive)
REMARK    1  A    between atoms: C_1  and  C_2
REMARK    2  A    between atoms: C_2  and  N_3
REMARK    3  A    between atoms: C_4  and  C_6
REMARK    4  A    between atoms: C_9  and  N_15
REMARK    5  A    between atoms: C_11  and  O_12
REMARK    6  A    between atoms: C_13  and  O_14
REMARK    7  A    between atoms: C_19  and  N_20
REMARK    8  A    between atoms: C_22  and  C_25
REMARK    9  A    between atoms: C_26  and  C_27
REMARK   10  A    between atoms: C_27  and  C_28
REMARK   11  A    between atoms: C_31  and  C_34
REMARK   12  A    between atoms: C_34  and  O_36
REMARK   13  A    between atoms: O_36  and  C_37
REMARK                            x       y       z     vdW  Elec       q    Type
REMARK                         _______ _______ _______ _____ _____    ______ ____
ROOT
ATOM      1  N   UNL     1       8.120   5.324  23.812  0.00  0.00    -0.285 N 
ATOM      2  C   UNL     1       9.051   4.320  23.721  0.00  0.00    +0.169 A 
ATOM      3  C   UNL     1      10.259   4.996  23.596  0.00  0.00    +0.147 A 
ATOM      4  C   UNL     1      11.425   4.221  23.487  0.00  0.00    +0.148 A 
ATOM      5  N   UNL     1      11.319   2.878  23.515  0.00  0.00    -0.203 NA
ATOM      6  C   UNL     1      10.083   2.346  23.615  0.00  0.00    +0.209 A 
ATOM      7  N   UNL     1      10.087   6.358  23.606  0.00  0.00    -0.231 NA
ATOM      8  N   UNL     1       8.884   2.981  23.729  0.00  0.00    -0.200 NA
ATOM      9  C   UNL     1       8.788   6.520  23.717  0.00  0.00    +0.203 A 
ENDROOT
BRANCH   1  13
ATOM     10  C   UNL     1       4.844   4.158  24.603  0.00  0.00    +0.237 C 
ATOM     11  C   UNL     1       4.652   4.303  23.087  0.00  0.00    +0.185 C 
ATOM     12  C   UNL     1       5.927   5.005  22.607  0.00  0.00    +0.196 C 
ATOM     13  C   UNL     1       6.680   5.252  23.910  0.00  0.00    +0.254 C 
ATOM     14  O   UNL     1       6.256   4.225  24.829  0.00  0.00    -0.339 OA
BRANCH  10  17
ATOM     15  N   UNL     1       4.721   2.234  26.130  0.00  0.00    -0.313 N 
ATOM     16  H   UNL     1       5.661   2.518  26.397  0.00  0.00    +0.149 HD
ATOM     17  C   UNL     1       4.096   2.926  25.121  0.00  0.00    +0.245 C 
ATOM     18  O   UNL     1       2.991   2.628  24.672  0.00  0.00    -0.273 OA
BRANCH  15  20
ATOM     19  C   UNL     1       4.852  -0.193  26.551  0.00  0.00    +0.024 C 
ATOM     20  C   UNL     1       4.095   1.102  26.783  0.00  0.00    +0.101 C 
ENDBRANCH  15  20
ENDBRANCH  10  17
BRANCH  11  21
ATOM     21  O   UNL     1       3.529   5.120  22.721  0.00  0.00    -0.386 OA
ATOM     22  H   UNL     1       3.822   6.050  22.661  0.00  0.00    +0.210 HD
ENDBRANCH  11  21
BRANCH  12  23
ATOM     23  O   UNL     1       5.626   6.247  21.960  0.00  0.00    -0.385 OA
ATOM     24  H   UNL     1       6.260   6.306  21.210  0.00  0.00    +0.210 HD
ENDBRANCH  12  23
ENDBRANCH   1  13
BRANCH   4  25
ATOM     25  N   UNL     1      12.692   4.784  23.363  0.00  0.00    -0.341 N 
ATOM     26  H   UNL     1      12.740   5.468  22.625  0.00  0.00    +0.144 HD
ATOM     27  H   UNL     1      13.438   4.094  23.424  0.00  0.00    +0.144 HD
ENDBRANCH   4  25
BRANCH   6  28
ATOM     28  C   UNL     1      10.058   0.911  23.609  0.00  0.00    -0.026 C 
ATOM     29  C   UNL     1      10.014  -0.391  23.556  0.00  0.00    -0.094 C 
BRANCH  29  30
ATOM     30  C   UNL     1       9.961  -1.909  23.494  0.00  0.00    +0.092 C 
BRANCH  30  31
ATOM     31  C   UNL     1       9.108  -2.498  24.623  0.00  0.00    +0.001 C 
ATOM     32  C   UNL     1       8.886  -4.013  24.485  0.00  0.00    +0.005 C 
ATOM     33  C   UNL     1       7.955  -4.378  23.327  0.00  0.00    +0.015 C 
ATOM     34  C   UNL     1       6.624  -3.618  23.373  0.00  0.00    +0.098 C 
ATOM     35  C   UNL     1       6.851  -2.107  23.510  0.00  0.00    +0.015 C 
ATOM     36  C   UNL     1       7.760  -1.764  24.692  0.00  0.00    +0.005 C 
BRANCH  34  37
ATOM     37  C   UNL     1       5.726  -4.130  24.499  0.00  0.00    +0.310 C 
ATOM     38  O   UNL     1       4.975  -3.438  25.170  0.00  0.00    -0.251 OA
BRANCH  37  39
ATOM     39  O   UNL     1       5.915  -5.465  24.678  0.00  0.00    -0.468 OA
ATOM     40  C   UNL     1       5.801  -5.882  26.039  0.00  0.00    +0.280 C 
ENDBRANCH  37  39
ENDBRANCH  34  37
ENDBRANCH  30  31
ENDBRANCH  29  30
ENDBRANCH   6  28
TORSDOF 11
ENDMDL
MODEL 7
REMARK VINA RESULT:      -6.7      4.570     10.454
REMARK  Name = 
REMARK  13 active torsions:
REMARK  status: ('A' for Active; 'I' for Inactive)
REMARK    1  A    between atoms: C_1  and  C_2
REMARK    2  A    between atoms: C_2  and  N_3
REMARK    3  A    between atoms: C_4  and  C_6
REMARK    4  A    between atoms: C_9  and  N_15
REMARK    5  A    between atoms: C_11  and  O_12
REMARK    6  A    between atoms: C_13  and  O_14
REMARK    7  A    between atoms: C_19  and  N_20
REMARK    8  A    between atoms: C_22  and  C_25
REMARK    9  A    between atoms: C_26  and  C_27
REMARK   10  A    between atoms: C_27  and  C_28
REMARK   11  A    between atoms: C_31  and  C_34
REMARK   12  A    between atoms: C_34  and  O_36
REMARK   13  A    between atoms: O_36  and  C_37
REMARK                            x       y       z     vdW  Elec       q    Type
REMARK                         _______ _______ _______ _____ _____    ______ ____
ROOT
ATOM      1  N   UNL     1       7.925   5.020  24.054  0.00  0.00    -0.285 N 
ATOM      2  C   UNL     1       8.871   4.035  23.917  0.00  0.00    +0.169 A 
ATOM      3  C   UNL     1      10.054   4.735  23.714  0.00  0.00    +0.147 A 
ATOM      4  C   UNL     1      11.229   3.985  23.543  0.00  0.00    +0.148 A 
ATOM      5  N   UNL     1      11.155   2.640  23.592  0.00  0.00    -0.203 NA
ATOM      6  C   UNL     1       9.939   2.083  23.770  0.00  0.00    +0.209 A 
ATOM      7  N   UNL     1       9.853   6.094  23.721  0.00  0.00    -0.231 NA
ATOM      8  N   UNL     1       8.735   2.693  23.949  0.00  0.00    -0.200 NA
ATOM      9  C   UNL     1       8.559   6.229  23.907  0.00  0.00    +0.203 A 
ENDROOT
BRANCH   1  13
ATOM     10  C   UNL     1       4.437   4.802  23.345  0.00  0.00    +0.237 C 
ATOM     11  C   UNL     1       4.384   6.028  24.269  0.00  0.00    +0.185 C 
ATOM     12  C   UNL     1       5.803   6.134  24.839  0.00  0.00    +0.196 C 
ATOM     13  C   UNL     1       6.495   4.917  24.237  0.00  0.00    +0.254 C 
ATOM     14  O   UNL     1       5.814   4.629  23.000  0.00  0.00    -0.339 OA
BRANCH  10  17
ATOM     15  N   UNL     1       3.134   3.798  21.517  0.00  0.00    -0.313 N 
ATOM     16  H   UNL     1       3.663   2.958  21.740  0.00  0.00    +0.149 HD
ATOM     17  C   UNL     1       3.428   4.952  22.203  0.00  0.00    +0.245 C 
ATOM     18  O   UNL     1       2.900   6.037  21.969  0.00  0.00    -0.273 OA
BRANCH  15  20
ATOM     19  C   UNL     1       1.447   2.412  20.369  0.00  0.00    +0.024 C 
ATOM     20  C   UNL     1       2.131   3.764  20.472  0.00  0.00    +0.101 C 
ENDBRANCH  15  20
ENDBRANCH  10  17
BRANCH  11  21
ATOM     21  O   UNL     1       3.472   5.885  25.369  0.00  0.00    -0.386 OA
ATOM     22  H   UNL     1       2.875   6.658  25.386  0.00  0.00    +0.210 HD
ENDBRANCH  11  21
BRANCH  12  23
ATOM     23  O   UNL     1       5.797   6.051  26.270  0.00  0.00    -0.385 OA
ATOM     24  H   UNL     1       5.547   6.952  26.577  0.00  0.00    +0.210 HD
ENDBRANCH  12  23
ENDBRANCH   1  13
BRANCH   4  25
ATOM     25  N   UNL     1      12.473   4.574  23.338  0.00  0.00    -0.341 N 
ATOM     26  H   UNL     1      12.931   4.230  22.511  0.00  0.00    +0.144 HD
ATOM     27  H   UNL     1      13.021   4.645  24.193  0.00  0.00    +0.144 HD
ENDBRANCH   4  25
BRANCH   6  28
ATOM     28  C   UNL     1       9.946   0.647  23.781  0.00  0.00    -0.026 C 
ATOM     29  C   UNL     1       9.902  -0.655  23.805  0.00  0.00    -0.094 C 
BRANCH  29  30
ATOM     30  C   UNL     1       9.851  -2.174  23.834  0.00  0.00    +0.092 C 
BRANCH  30  31
ATOM     31  C   UNL     1       8.443  -2.692  24.147  0.00  0.00    +0.001 C 
ATOM     32  C   UNL     1       7.948  -2.289  25.547  0.00  0.00    +0.005 C 
ATOM     33  C   UNL     1       8.681  -3.021  26.673  0.00  0.00    +0.015 C 
ATOM     34  C   UNL     1       8.675  -4.544  26.494  0.00  0.00    +0.098 C 
ATOM     35  C   UNL     1       9.170  -4.941  25.097  0.00  0.00    +0.015 C 
ATOM     36  C   UNL     1       8.404  -4.220  23.986  0.00  0.00    +0.005 C 
BRANCH  34  37
ATOM     37  C   UNL     1       7.291  -5.134  26.761  0.00  0.00    +0.310 C 
ATOM     38  O   UNL     1       6.750  -5.996  26.084  0.00  0.00    -0.251 OA
BRANCH  37  39
ATOM     39  O   UNL     1       6.724  -4.529  27.840  0.00  0.00    -0.468 OA
ATOM     40  C   UNL     1       5.777  -5.349  28.525  0.00  0.00    +0.280 C 
ENDBRANCH  37  39
ENDBRANCH  34  37
ENDBRANCH  30  31
ENDBRANCH  29  30
ENDBRANCH   6  28
TORSDOF 11
ENDMDL
MODEL 8
REMARK VINA RESULT:      -6.6      3.398      6.534
REMARK  Name = 
REMARK  13 active torsions:
REMARK  status: ('A' for Active; 'I' for Inactive)
REMARK    1  A    between atoms: C_1  and  C_2
REMARK    2  A    between atoms: C_2  and  N_3
REMARK    3  A    between atoms: C_4  and  C_6
REMARK    4  A    between atoms: C_9  and  N_15
REMARK    5  A    between atoms: C_11  and  O_12
REMARK    6  A    between atoms: C_13  and  O_14
REMARK    7  A    between atoms: C_19  and  N_20
REMARK    8  A    between atoms: C_22  and  C_25
REMARK    9  A    between atoms: C_26  and  C_27
REMARK   10  A    between atoms: C_27  and  C_28
REMARK   11  A    between atoms: C_31  and  C_34
REMARK   12  A    between atoms: C_34  and  O_36
REMARK   13  A    between atoms: O_36  and  C_37
REMARK                            x       y       z     vdW  Elec       q    Type
REMARK                         _______ _______ _______ _____ _____    ______ ____
ROOT
ATOM      1  N   UNL     1       4.406  -3.694  25.531  0.00  0.00    -0.285 N 
ATOM      2  C   UNL     1       4.147  -2.427  25.990  0.00  0.00    +0.169 A 
ATOM      3  C   UNL     1       3.015  -2.583  26.780  0.00  0.00    +0.147 A 
ATOM      4  C   UNL     1       2.500  -1.436  27.407  0.00  0.00    +0.148 A 
ATOM      5  N   UNL     1       3.125  -0.257  27.221  0.00  0.00    -0.203 NA
ATOM      6  C   UNL     1       4.202  -0.237  26.408  0.00  0.00    +0.209 A 
ATOM      7  N   UNL     1       2.587  -3.888  26.810  0.00  0.00    -0.231 NA
ATOM      8  N   UNL     1       4.797  -1.269  25.748  0.00  0.00    -0.200 NA
ATOM      9  C   UNL     1       3.434  -4.524  26.032  0.00  0.00    +0.203 A 
ENDROOT
BRANCH   1  13
ATOM     10  C   UNL     1       7.527  -4.014  23.836  0.00  0.00    +0.237 C 
ATOM     11  C   UNL     1       6.638  -3.819  22.599  0.00  0.00    +0.185 C 
ATOM     12  C   UNL     1       5.208  -3.872  23.147  0.00  0.00    +0.196 C 
ATOM     13  C   UNL     1       5.429  -4.165  24.626  0.00  0.00    +0.254 C 
ATOM     14  O   UNL     1       6.727  -3.632  24.959  0.00  0.00    -0.339 OA
BRANCH  10  17
ATOM     15  N   UNL     1       8.864  -2.244  22.772  0.00  0.00    -0.313 N 
ATOM     16  H   UNL     1       8.011  -2.058  22.249  0.00  0.00    +0.149 HD
ATOM     17  C   UNL     1       8.871  -3.307  23.644  0.00  0.00    +0.245 C 
ATOM     18  O   UNL     1       9.864  -3.663  24.275  0.00  0.00    -0.273 OA
BRANCH  15  20
ATOM     19  C   UNL     1       9.745  -0.209  21.693  0.00  0.00    +0.024 C 
ATOM     20  C   UNL     1      10.037  -1.422  22.558  0.00  0.00    +0.101 C 
ENDBRANCH  15  20
ENDBRANCH  10  17
BRANCH  11  21
ATOM     21  O   UNL     1       6.778  -4.857  21.616  0.00  0.00    -0.386 OA
ATOM     22  H   UNL     1       7.299  -4.511  20.865  0.00  0.00    +0.210 HD
ENDBRANCH  11  21
BRANCH  12  23
ATOM     23  O   UNL     1       4.455  -4.927  22.535  0.00  0.00    -0.385 OA
ATOM     24  H   UNL     1       5.120  -5.473  22.057  0.00  0.00    +0.210 HD
ENDBRANCH  12  23
ENDBRANCH   1  13
BRANCH   4  25
ATOM     25  N   UNL     1       1.375  -1.469  28.226  0.00  0.00    -0.341 N 
ATOM     26  H   UNL     1       1.348  -2.286  28.812  0.00  0.00    +0.144 HD
ATOM     27  H   UNL     1       0.523  -1.204  27.735  0.00  0.00    +0.144 HD
ENDBRANCH   4  25
BRANCH   6  28
ATOM     28  C   UNL     1       4.789   1.062  26.242  0.00  0.00    -0.026 C 
ATOM     29  C   UNL     1       5.347   2.225  26.048  0.00  0.00    -0.094 C 
BRANCH  29  30
ATOM     30  C   UNL     1       5.997   3.580  25.822  0.00  0.00    +0.092 C 
BRANCH  30  31
ATOM     31  C   UNL     1       7.512   3.533  26.052  0.00  0.00    +0.001 C 
ATOM     32  C   UNL     1       8.231   4.820  25.614  0.00  0.00    +0.005 C 
ATOM     33  C   UNL     1       8.269   4.995  24.094  0.00  0.00    +0.015 C 
ATOM     34  C   UNL     1       8.830   3.766  23.369  0.00  0.00    +0.098 C 
ATOM     35  C   UNL     1       8.109   2.485  23.808  0.00  0.00    +0.015 C 
ATOM     36  C   UNL     1       8.109   2.315  25.329  0.00  0.00    +0.005 C 
BRANCH  34  37
ATOM     37  C   UNL     1      10.338   3.632  23.577  0.00  0.00    +0.310 C 
ATOM     38  O   UNL     1      10.942   2.576  23.690  0.00  0.00    -0.251 OA
BRANCH  37  39
ATOM     39  O   UNL     1      10.910   4.864  23.664  0.00  0.00    -0.468 OA
ATOM     40  C   UNL     1      12.278   4.890  23.256  0.00  0.00    +0.280 C 
ENDBRANCH  37  39
ENDBRANCH  34  37
ENDBRANCH  30  31
ENDBRANCH  29  30
ENDBRANCH   6  28
TORSDOF 11
ENDMDL
MODEL 9
REMARK VINA RESULT:      -6.6      5.055     10.420
REMARK  Name = 
REMARK  13 active torsions:
REMARK  status: ('A' for Active; 'I' for Inactive)
REMARK    1  A    between atoms: C_1  and  C_2
REMARK    2  A    between atoms: C_2  and  N_3
REMARK    3  A    between atoms: C_4  and  C_6
REMARK    4  A    between atoms: C_9  and  N_15
REMARK    5  A    between atoms: C_11  and  O_12
REMARK    6  A    between atoms: C_13  and  O_14
REMARK    7  A    between atoms: C_19  and  N_20
REMARK    8  A    between atoms: C_22  and  C_25
REMARK    9  A    between atoms: C_26  and  C_27
REMARK   10  A    between atoms: C_27  and  C_28
REMARK   11  A    between atoms: C_31  and  C_34
REMARK   12  A    between atoms: C_34  and  O_36
REMARK   13  A    between atoms: O_36  and  C_37
REMARK                            x       y       z     vdW  Elec       q    Type
REMARK                         _______ _______ _______ _____ _____    ______ ____
ROOT
ATOM      1  N   UNL     1       7.476   5.171  23.848  0.00  0.00    -0.285 N 
ATOM      2  C   UNL     1       8.349   4.113  23.837  0.00  0.00    +0.169 A 
ATOM      3  C   UNL     1       9.574   4.695  23.533  0.00  0.00    +0.147 A 
ATOM      4  C   UNL     1      10.692   3.846  23.456  0.00  0.00    +0.148 A 
ATOM      5  N   UNL     1      10.525   2.529  23.685  0.00  0.00    -0.203 NA
ATOM      6  C   UNL     1       9.277   2.088  23.945  0.00  0.00    +0.209 A 
ATOM      7  N   UNL     1       9.468   6.053  23.360  0.00  0.00    -0.231 NA
ATOM      8  N   UNL     1       8.121   2.800  24.049  0.00  0.00    -0.200 NA
ATOM      9  C   UNL     1       8.190   6.302  23.536  0.00  0.00    +0.203 A 
ENDROOT
BRANCH   1  13
ATOM     10  C   UNL     1       3.970   5.026  23.212  0.00  0.00    +0.237 C 
ATOM     11  C   UNL     1       4.004   6.415  23.865  0.00  0.00    +0.185 C 
ATOM     12  C   UNL     1       5.436   6.550  24.396  0.00  0.00    +0.196 C 
ATOM     13  C   UNL     1       6.046   5.195  24.054  0.00  0.00    +0.254 C 
ATOM     14  O   UNL     1       5.329   4.702  22.904  0.00  0.00    -0.339 OA
BRANCH  10  17
ATOM     15  N   UNL     1       3.068   3.943  21.196  0.00  0.00    -0.313 N 
ATOM     16  H   UNL     1       3.860   3.313  21.306  0.00  0.00    +0.149 HD
ATOM     17  C   UNL     1       2.953   4.999  22.067  0.00  0.00    +0.245 C 
ATOM     18  O   UNL     1       2.077   5.858  21.985  0.00  0.00    -0.273 OA
BRANCH  15  20
ATOM     19  C   UNL     1       1.226   2.531  20.360  0.00  0.00    +0.024 C 
ATOM     20  C   UNL     1       2.122   3.733  20.119  0.00  0.00    +0.101 C 
ENDBRANCH  15  20
ENDBRANCH  10  17
BRANCH  11  21
ATOM     21  O   UNL     1       3.103   6.556  24.974  0.00  0.00    -0.386 OA
ATOM     22  H   UNL     1       3.538   7.085  25.669  0.00  0.00    +0.210 HD
ENDBRANCH  11  21
BRANCH  12  23
ATOM     23  O   UNL     1       5.448   6.762  25.813  0.00  0.00    -0.385 OA
ATOM     24  H   UNL     1       5.153   5.907  26.202  0.00  0.00    +0.210 HD
ENDBRANCH  12  23
ENDBRANCH   1  13
BRANCH   4  25
ATOM     25  N   UNL     1      11.970   4.314  23.165  0.00  0.00    -0.341 N 
ATOM     26  H   UNL     1      12.346   3.909  22.324  0.00  0.00    +0.144 HD
ATOM     27  H   UNL     1      12.570   4.355  23.986  0.00  0.00    +0.144 HD
ENDBRANCH   4  25
BRANCH   6  28
ATOM     28  C   UNL     1       9.185   0.670  24.147  0.00  0.00    -0.026 C 
ATOM     29  C   UNL     1       9.154  -0.621  24.332  0.00  0.00    -0.094 C 
BRANCH  29  30
ATOM     30  C   UNL     1       9.119  -2.125  24.548  0.00  0.00    +0.092 C 
BRANCH  30  31
ATOM     31  C   UNL     1       7.686  -2.645  24.708  0.00  0.00    +0.001 C 
ATOM     32  C   UNL     1       7.619  -4.160  24.965  0.00  0.00    +0.005 C 
ATOM     33  C   UNL     1       7.993  -4.992  23.736  0.00  0.00    +0.015 C 
ATOM     34  C   UNL     1       7.193  -4.599  22.488  0.00  0.00    +0.098 C 
ATOM     35  C   UNL     1       7.265  -3.088  22.235  0.00  0.00    +0.015 C 
ATOM     36  C   UNL     1       6.859  -2.276  23.467  0.00  0.00    +0.005 C 
BRANCH  34  37
ATOM     37  C   UNL     1       5.739  -5.059  22.586  0.00  0.00    +0.310 C 
ATOM     38  O   UNL     1       4.769  -4.404  22.235  0.00  0.00    -0.251 OA
BRANCH  37  39
ATOM     39  O   UNL     1       5.675  -6.290  23.162  0.00  0.00    -0.468 OA
ATOM     40  C   UNL     1       4.562  -6.453  24.041  0.00  0.00    +0.280 C 
ENDBRANCH  37  39
ENDBRANCH  34  37
ENDBRANCH  30  31
ENDBRANCH  29  30
ENDBRANCH   6  28
TORSDOF 11
ENDMDL
