MODEL 1
REMARK VINA RESULT:      -7.2      0.000      0.000
REMARK  Name = 
REMARK  10 active torsions:
REMARK  status: ('A' for Active; 'I' for Inactive)
REMARK    1  A    between atoms: C_2  and  C_3
REMARK    2  A    between atoms: C_2  and  C_5
REMARK    3  A    between atoms: C_2  and  N_27
REMARK    4  A    between atoms: C_3  and  O_4
REMARK    5  A    between atoms: C_5  and  C_6
REMARK    6  A    between atoms: C_6  and  N_7
REMARK    7  A    between atoms: C_13  and  N_14
REMARK    8  A    between atoms: N_17  and  C_18
REMARK    9  A    between atoms: C_18  and  C_19
REMARK   10  A    between atoms: C_30  and  C_32
REMARK                            x       y       z     vdW  Elec       q    Type
REMARK                         _______ _______ _______ _____ _____    ______ ____
ROOT
ATOM      1  N   UNL     1       3.773  -4.606  24.605  0.00  0.00    -0.347 N 
ATOM      2  C   UNL     1       4.827  -4.643  23.714  0.00  0.00    +0.051 A 
ATOM      3  C   UNL     1       5.626  -3.621  23.171  0.00  0.00    +0.049 A 
ATOM      4  C   UNL     1       6.681  -3.952  22.310  0.00  0.00    +0.037 A 
ATOM      5  C   UNL     1       6.927  -5.295  22.015  0.00  0.00    +0.024 A 
ATOM      6  C   UNL     1       6.106  -6.312  22.529  0.00  0.00    +0.012 A 
ATOM      7  C   UNL     1       5.041  -5.984  23.389  0.00  0.00    -0.000 A 
ATOM      8  C   UNL     1       4.046  -6.744  24.062  0.00  0.00    +0.027 A 
ATOM      9  C   UNL     1       3.271  -5.870  24.790  0.00  0.00    +0.087 A 
ENDROOT
BRANCH   4  10
ATOM     10  N   UNL     1       7.522  -2.977  21.722  0.00  0.00    -0.269 N 
ATOM     11  H   UNL     1       7.273  -2.646  20.800  0.00  0.00    +0.156 HD
ATOM     12  C   UNL     1       8.515  -2.272  22.370  0.00  0.00    +0.304 C 
ATOM     13  N   UNL     1       9.124  -1.350  21.545  0.00  0.00    -0.295 N 
ATOM     14  H   UNL     1       9.252  -1.642  20.586  0.00  0.00    +0.151 HD
ATOM     15  O   UNL     1       8.806  -2.363  23.555  0.00  0.00    -0.252 OA
BRANCH  13  16
ATOM     16  C   UNL     1      10.184  -0.539  22.111  0.00  0.00    +0.141 C 
BRANCH  16  17
ATOM     17  C   UNL     1       9.726   0.848  22.477  0.00  0.00    -0.030 A 
ATOM     18  C   UNL     1      10.258   1.508  23.593  0.00  0.00    +0.005 A 
ATOM     19  C   UNL     1       9.777   2.764  23.971  0.00  0.00    +0.000 A 
ATOM     20  C   UNL     1       8.758   3.371  23.240  0.00  0.00    +0.000 A 
ATOM     21  C   UNL     1       8.212   2.720  22.135  0.00  0.00    +0.000 A 
ATOM     22  C   UNL     1       8.691   1.465  21.757  0.00  0.00    +0.005 A 
ENDBRANCH  16  17
ENDBRANCH  13  16
ENDBRANCH   4  10
BRANCH   1  23
ATOM     23  C   UNL     1       3.275  -3.431  25.305  0.00  0.00    +0.124 C 
BRANCH  23  24
ATOM     24  C   UNL     1       3.464  -3.509  26.829  0.00  0.00    +0.049 C 
BRANCH  24  25
ATOM     25  C   UNL     1       4.853  -3.038  27.314  0.00  0.00    +0.115 C 
BRANCH  25  26
ATOM     26  N   UNL     1       5.911  -4.004  27.046  0.00  0.00    -0.331 N 
ATOM     27  C   UNL     1       7.091  -3.731  26.415  0.00  0.00    +0.120 A 
ATOM     28  C   UNL     1       7.742  -4.942  26.307  0.00  0.00    +0.143 A 
ATOM     29  N   UNL     1       6.953  -5.950  26.849  0.00  0.00    -0.231 NA
ATOM     30  C   UNL     1       5.872  -5.349  27.290  0.00  0.00    +0.200 A 
BRANCH  28  31
ATOM     31  C   UNL     1       9.044  -5.183  25.693  0.00  0.00    +0.261 C 
ATOM     32  O   UNL     1       9.217  -5.543  24.533  0.00  0.00    -0.269 OA
ATOM     33  N   UNL     1      10.088  -5.000  26.554  0.00  0.00    -0.324 N 
ATOM     34  H   UNL     1      11.027  -5.197  26.250  0.00  0.00    +0.145 HD
ATOM     35  H   UNL     1       9.887  -4.721  27.507  0.00  0.00    +0.145 HD
ENDBRANCH  28  31
ENDBRANCH  25  26
BRANCH  25  36
ATOM     36  C   UNL     1       5.252  -1.676  26.719  0.00  0.00    +0.181 C 
BRANCH  36  37
ATOM     37  O   UNL     1       5.454  -0.701  27.737  0.00  0.00    -0.393 OA
ATOM     38  H   UNL     1       6.335  -0.309  27.601  0.00  0.00    +0.209 HD
ENDBRANCH  36  37
ENDBRANCH  25  36
ENDBRANCH  24  25
ENDBRANCH  23  24
ENDBRANCH   1  23
TORSDOF 10
ENDMDL
MODEL 2
REMARK VINA RESULT:      -7.0      2.200      4.941
REMARK  Name = 
REMARK  10 active torsions:
REMARK  status: ('A' for Active; 'I' for Inactive)
REMARK    1  A    between atoms: C_2  and  C_3
REMARK    2  A    between atoms: C_2  and  C_5
REMARK    3  A    between atoms: C_2  and  N_27
REMARK    4  A    between atoms: C_3  and  O_4
REMARK    5  A    between atoms: C_5  and  C_6
REMARK    6  A    between atoms: C_6  and  N_7
REMARK    7  A    between atoms: C_13  and  N_14
REMARK    8  A    between atoms: N_17  and  C_18
REMARK    9  A    between atoms: C_18  and  C_19
REMARK   10  A    between atoms: C_30  and  C_32
REMARK                            x       y       z     vdW  Elec       q    Type
REMARK                         _______ _______ _______ _____ _____    ______ ____
ROOT
ATOM      1  N   UNL     1       5.724  -4.070  27.112  0.00  0.00    -0.347 N 
ATOM      2  C   UNL     1       5.777  -2.694  27.002  0.00  0.00    +0.051 A 
ATOM      3  C   UNL     1       6.810  -1.831  26.595  0.00  0.00    +0.049 A 
ATOM      4  C   UNL     1       6.572  -0.451  26.529  0.00  0.00    +0.037 A 
ATOM      5  C   UNL     1       5.307   0.041  26.860  0.00  0.00    +0.024 A 
ATOM      6  C   UNL     1       4.288  -0.819  27.302  0.00  0.00    +0.012 A 
ATOM      7  C   UNL     1       4.524  -2.205  27.376  0.00  0.00    -0.000 A 
ATOM      8  C   UNL     1       3.738  -3.321  27.771  0.00  0.00    +0.027 A 
ATOM      9  C   UNL     1       4.505  -4.452  27.612  0.00  0.00    +0.087 A 
ENDROOT
BRANCH   4  10
ATOM     10  N   UNL     1       7.564   0.478  26.134  0.00  0.00    -0.269 N 
ATOM     11  H   UNL     1       8.397   0.536  26.703  0.00  0.00    +0.156 HD
ATOM     12  C   UNL     1       7.607   1.148  24.930  0.00  0.00    +0.304 C 
ATOM     13  N   UNL     1       8.728   1.943  24.814  0.00  0.00    -0.295 N 
ATOM     14  H   UNL     1       9.023   2.406  25.662  0.00  0.00    +0.151 HD
ATOM     15  O   UNL     1       6.811   1.026  24.008  0.00  0.00    -0.252 OA
BRANCH  13  16
ATOM     16  C   UNL     1       8.893   2.697  23.587  0.00  0.00    +0.141 C 
BRANCH  16  17
ATOM     17  C   UNL     1       9.934   3.780  23.702  0.00  0.00    -0.030 A 
ATOM     18  C   UNL     1       9.589   5.061  24.154  0.00  0.00    +0.005 A 
ATOM     19  C   UNL     1      10.541   6.081  24.188  0.00  0.00    +0.000 A 
ATOM     20  C   UNL     1      11.847   5.834  23.768  0.00  0.00    +0.000 A 
ATOM     21  C   UNL     1      12.199   4.567  23.305  0.00  0.00    +0.000 A 
ATOM     22  C   UNL     1      11.248   3.547  23.270  0.00  0.00    +0.005 A 
ENDBRANCH  16  17
ENDBRANCH  13  16
ENDBRANCH   4  10
BRANCH   1  23
ATOM     23  C   UNL     1       6.762  -5.009  26.714  0.00  0.00    +0.124 C 
BRANCH  23  24
ATOM     24  C   UNL     1       6.899  -5.151  25.189  0.00  0.00    +0.049 C 
BRANCH  24  25
ATOM     25  C   UNL     1       8.331  -4.912  24.662  0.00  0.00    +0.115 C 
BRANCH  25  26
ATOM     26  N   UNL     1       8.434  -3.746  23.794  0.00  0.00    -0.331 N 
ATOM     27  C   UNL     1       9.463  -2.848  23.794  0.00  0.00    +0.120 A 
ATOM     28  C   UNL     1       9.107  -1.877  22.882  0.00  0.00    +0.143 A 
ATOM     29  N   UNL     1       7.859  -2.170  22.345  0.00  0.00    -0.231 NA
ATOM     30  C   UNL     1       7.494  -3.300  22.907  0.00  0.00    +0.200 A 
BRANCH  28  31
ATOM     31  C   UNL     1       9.873  -0.685  22.527  0.00  0.00    +0.261 C 
ATOM     32  O   UNL     1      10.659  -0.110  23.272  0.00  0.00    -0.269 OA
ATOM     33  N   UNL     1       9.611  -0.232  21.267  0.00  0.00    -0.324 N 
ATOM     34  H   UNL     1      10.041   0.618  20.941  0.00  0.00    +0.145 HD
ATOM     35  H   UNL     1       8.938  -0.735  20.701  0.00  0.00    +0.145 HD
ENDBRANCH  28  31
ENDBRANCH  25  26
BRANCH  25  36
ATOM     36  C   UNL     1       9.362  -4.788  25.798  0.00  0.00    +0.181 C 
BRANCH  36  37
ATOM     37  O   UNL     1      10.518  -5.578  25.544  0.00  0.00    -0.393 OA
ATOM     38  H   UNL     1      11.067  -5.099  24.897  0.00  0.00    +0.209 HD
ENDBRANCH  36  37
ENDBRANCH  25  36
ENDBRANCH  24  25
ENDBRANCH  23  24
ENDBRANCH   1  23
TORSDOF 10
ENDMDL
MODEL 3
REMARK VINA RESULT:      -6.7      2.209      6.607
REMARK  Name = 
REMARK  10 active torsions:
REMARK  status: ('A' for Active; 'I' for Inactive)
REMARK    1  A    between atoms: C_2  and  C_3
REMARK    2  A    between atoms: C_2  and  C_5
REMARK    3  A    between atoms: C_2  and  N_27
REMARK    4  A    between atoms: C_3  and  O_4
REMARK    5  A    between atoms: C_5  and  C_6
REMARK    6  A    between atoms: C_6  and  N_7
REMARK    7  A    between atoms: C_13  and  N_14
REMARK    8  A    between atoms: N_17  and  C_18
REMARK    9  A    between atoms: C_18  and  C_19
REMARK   10  A    between atoms: C_30  and  C_32
REMARK                            x       y       z     vdW  Elec       q    Type
REMARK                         _______ _______ _______ _____ _____    ______ ____
ROOT
ATOM      1  N   UNL     1       7.870   1.757  23.846  0.00  0.00    -0.347 N 
ATOM      2  C   UNL     1       8.230   0.573  23.233  0.00  0.00    +0.051 A 
ATOM      3  C   UNL     1       7.776  -0.746  23.414  0.00  0.00    +0.049 A 
ATOM      4  C   UNL     1       8.289  -1.770  22.605  0.00  0.00    +0.037 A 
ATOM      5  C   UNL     1       9.236  -1.459  21.626  0.00  0.00    +0.024 A 
ATOM      6  C   UNL     1       9.714  -0.148  21.471  0.00  0.00    +0.012 A 
ATOM      7  C   UNL     1       9.207   0.883  22.285  0.00  0.00    -0.000 A 
ATOM      8  C   UNL     1       9.467   2.277  22.389  0.00  0.00    +0.027 A 
ATOM      9  C   UNL     1       8.642   2.786  23.366  0.00  0.00    +0.087 A 
ENDROOT
BRANCH   4  10
ATOM     10  N   UNL     1       7.884  -3.120  22.734  0.00  0.00    -0.269 N 
ATOM     11  H   UNL     1       8.437  -3.714  23.337  0.00  0.00    +0.156 HD
ATOM     12  C   UNL     1       6.687  -3.648  22.299  0.00  0.00    +0.304 C 
ATOM     13  N   UNL     1       6.557  -4.983  22.619  0.00  0.00    -0.295 N 
ATOM     14  H   UNL     1       7.405  -5.530  22.557  0.00  0.00    +0.151 HD
ATOM     15  O   UNL     1       5.781  -3.028  21.757  0.00  0.00    -0.252 OA
BRANCH  13  16
ATOM     16  C   UNL     1       5.336  -5.654  22.221  0.00  0.00    +0.141 C 
BRANCH  16  17
ATOM     17  C   UNL     1       4.382  -5.861  23.368  0.00  0.00    -0.030 A 
ATOM     18  C   UNL     1       4.582  -6.898  24.289  0.00  0.00    +0.005 A 
ATOM     19  C   UNL     1       3.655  -7.132  25.306  0.00  0.00    +0.000 A 
ATOM     20  C   UNL     1       2.517  -6.334  25.412  0.00  0.00    +0.000 A 
ATOM     21  C   UNL     1       2.300  -5.307  24.495  0.00  0.00    +0.000 A 
ATOM     22  C   UNL     1       3.226  -5.074  23.477  0.00  0.00    +0.005 A 
ENDBRANCH  16  17
ENDBRANCH  13  16
ENDBRANCH   4  10
BRANCH   1  23
ATOM     23  C   UNL     1       6.801   1.937  24.817  0.00  0.00    +0.124 C 
BRANCH  23  24
ATOM     24  C   UNL     1       7.308   2.022  26.266  0.00  0.00    +0.049 C 
BRANCH  24  25
ATOM     25  C   UNL     1       6.701   0.956  27.207  0.00  0.00    +0.115 C 
BRANCH  25  26
ATOM     26  N   UNL     1       7.122  -0.401  26.881  0.00  0.00    -0.331 N 
ATOM     27  C   UNL     1       6.284  -1.442  26.597  0.00  0.00    +0.120 A 
ATOM     28  C   UNL     1       7.102  -2.540  26.435  0.00  0.00    +0.143 A 
ATOM     29  N   UNL     1       8.428  -2.175  26.639  0.00  0.00    -0.231 NA
ATOM     30  C   UNL     1       8.399  -0.886  26.894  0.00  0.00    +0.200 A 
BRANCH  28  31
ATOM     31  C   UNL     1       6.683  -3.906  26.130  0.00  0.00    +0.261 C 
ATOM     32  O   UNL     1       7.351  -4.721  25.503  0.00  0.00    -0.269 OA
ATOM     33  N   UNL     1       5.432  -4.200  26.589  0.00  0.00    -0.324 N 
ATOM     34  H   UNL     1       5.020  -5.095  26.382  0.00  0.00    +0.145 HD
ATOM     35  H   UNL     1       4.916  -3.482  27.084  0.00  0.00    +0.145 HD
ENDBRANCH  28  31
ENDBRANCH  25  26
BRANCH  25  36
ATOM     36  C   UNL     1       7.008   1.238  28.688  0.00  0.00    +0.181 C 
BRANCH  36  37
ATOM     37  O   UNL     1       7.570   2.534  28.868  0.00  0.00    -0.393 OA
ATOM     38  H   UNL     1       6.870   3.114  29.219  0.00  0.00    +0.209 HD
ENDBRANCH  36  37
ENDBRANCH  25  36
ENDBRANCH  24  25
ENDBRANCH  23  24
ENDBRANCH   1  23
TORSDOF 10
ENDMDL
MODEL 4
REMARK VINA RESULT:      -6.6      2.214      4.814
REMARK  Name = 
REMARK  10 active torsions:
REMARK  status: ('A' for Active; 'I' for Inactive)
REMARK    1  A    between atoms: C_2  and  C_3
REMARK    2  A    between atoms: C_2  and  C_5
REMARK    3  A    between atoms: C_2  and  N_27
REMARK    4  A    between atoms: C_3  and  O_4
REMARK    5  A    between atoms: C_5  and  C_6
REMARK    6  A    between atoms: C_6  and  N_7
REMARK    7  A    between atoms: C_13  and  N_14
REMARK    8  A    between atoms: N_17  and  C_18
REMARK    9  A    between atoms: C_18  and  C_19
REMARK   10  A    between atoms: C_30  and  C_32
REMARK                            x       y       z     vdW  Elec       q    Type
REMARK                         _______ _______ _______ _____ _____    ______ ____
ROOT
ATOM      1  N   UNL     1       5.439  -3.539  26.547  0.00  0.00    -0.347 N 
ATOM      2  C   UNL     1       6.012  -2.297  26.740  0.00  0.00    +0.051 A 
ATOM      3  C   UNL     1       7.210  -1.737  26.262  0.00  0.00    +0.049 A 
ATOM      4  C   UNL     1       7.529  -0.410  26.581  0.00  0.00    +0.037 A 
ATOM      5  C   UNL     1       6.643   0.337  27.361  0.00  0.00    +0.024 A 
ATOM      6  C   UNL     1       5.465  -0.234  27.868  0.00  0.00    +0.012 A 
ATOM      7  C   UNL     1       5.143  -1.569  27.556  0.00  0.00    -0.000 A 
ATOM      8  C   UNL     1       4.064  -2.429  27.895  0.00  0.00    +0.027 A 
ATOM      9  C   UNL     1       4.280  -3.638  27.274  0.00  0.00    +0.087 A 
ENDROOT
BRANCH   4  10
ATOM     10  N   UNL     1       8.719   0.217  26.141  0.00  0.00    -0.269 N 
ATOM     11  H   UNL     1       9.546   0.089  26.707  0.00  0.00    +0.156 HD
ATOM     12  C   UNL     1       8.915   0.796  24.905  0.00  0.00    +0.304 C 
ATOM     13  N   UNL     1      10.200   1.275  24.750  0.00  0.00    -0.295 N 
ATOM     14  H   UNL     1      10.613   1.687  25.575  0.00  0.00    +0.151 HD
ATOM     15  O   UNL     1       8.102   0.837  23.991  0.00  0.00    -0.252 OA
BRANCH  13  16
ATOM     16  C   UNL     1      10.535   1.903  23.488  0.00  0.00    +0.141 C 
BRANCH  16  17
ATOM     17  C   UNL     1      10.604   3.405  23.582  0.00  0.00    -0.030 A 
ATOM     18  C   UNL     1      11.812   4.082  23.369  0.00  0.00    +0.005 A 
ATOM     19  C   UNL     1      11.886   5.467  23.530  0.00  0.00    +0.000 A 
ATOM     20  C   UNL     1      10.756   6.189  23.910  0.00  0.00    +0.000 A 
ATOM     21  C   UNL     1       9.552   5.525  24.136  0.00  0.00    +0.000 A 
ATOM     22  C   UNL     1       9.476   4.141  23.976  0.00  0.00    +0.005 A 
ENDBRANCH  16  17
ENDBRANCH  13  16
ENDBRANCH   4  10
BRANCH   1  23
ATOM     23  C   UNL     1       5.933  -4.589  25.668  0.00  0.00    +0.124 C 
BRANCH  23  24
ATOM     24  C   UNL     1       4.881  -5.079  24.660  0.00  0.00    +0.049 C 
BRANCH  24  25
ATOM     25  C   UNL     1       5.324  -4.963  23.184  0.00  0.00    +0.115 C 
BRANCH  25  26
ATOM     26  N   UNL     1       6.200  -3.825  22.936  0.00  0.00    -0.331 N 
ATOM     27  C   UNL     1       7.565  -3.860  22.942  0.00  0.00    +0.120 A 
ATOM     28  C   UNL     1       7.969  -2.557  22.745  0.00  0.00    +0.143 A 
ATOM     29  N   UNL     1       6.858  -1.729  22.641  0.00  0.00    -0.231 NA
ATOM     30  C   UNL     1       5.818  -2.525  22.750  0.00  0.00    +0.200 A 
BRANCH  28  31
ATOM     31  C   UNL     1       9.344  -2.067  22.684  0.00  0.00    +0.261 C 
ATOM     32  O   UNL     1      10.234  -2.377  23.467  0.00  0.00    -0.269 OA
ATOM     33  N   UNL     1       9.554  -1.180  21.667  0.00  0.00    -0.324 N 
ATOM     34  H   UNL     1      10.452  -0.735  21.569  0.00  0.00    +0.145 HD
ATOM     35  H   UNL     1       8.778  -0.944  21.061  0.00  0.00    +0.145 HD
ENDBRANCH  28  31
ENDBRANCH  25  26
BRANCH  25  36
ATOM     36  C   UNL     1       6.007  -6.245  22.674  0.00  0.00    +0.181 C 
BRANCH  36  37
ATOM     37  O   UNL     1       5.886  -6.376  21.262  0.00  0.00    -0.393 OA
ATOM     38  H   UNL     1       6.732  -6.100  20.866  0.00  0.00    +0.209 HD
ENDBRANCH  36  37
ENDBRANCH  25  36
ENDBRANCH  24  25
ENDBRANCH  23  24
ENDBRANCH   1  23
TORSDOF 10
ENDMDL
MODEL 5
REMARK VINA RESULT:      -6.6      2.237      4.658
REMARK  Name = 
REMARK  10 active torsions:
REMARK  status: ('A' for Active; 'I' for Inactive)
REMARK    1  A    between atoms: C_2  and  C_3
REMARK    2  A    between atoms: C_2  and  C_5
REMARK    3  A    between atoms: C_2  and  N_27
REMARK    4  A    between atoms: C_3  and  O_4
REMARK    5  A    between atoms: C_5  and  C_6
REMARK    6  A    between atoms: C_6  and  N_7
REMARK    7  A    between atoms: C_13  and  N_14
REMARK    8  A    between atoms: N_17  and  C_18
REMARK    9  A    between atoms: C_18  and  C_19
REMARK   10  A    between atoms: C_30  and  C_32
REMARK                            x       y       z     vdW  Elec       q    Type
REMARK                         _______ _______ _______ _____ _____    ______ ____
ROOT
ATOM      1  N   UNL     1       4.604  -4.377  26.195  0.00  0.00    -0.347 N 
ATOM      2  C   UNL     1       4.818  -3.013  26.189  0.00  0.00    +0.051 A 
ATOM      3  C   UNL     1       5.230  -2.138  25.167  0.00  0.00    +0.049 A 
ATOM      4  C   UNL     1       5.319  -0.764  25.429  0.00  0.00    +0.037 A 
ATOM      5  C   UNL     1       4.987  -0.286  26.699  0.00  0.00    +0.024 A 
ATOM      6  C   UNL     1       4.612  -1.165  27.728  0.00  0.00    +0.012 A 
ATOM      7  C   UNL     1       4.527  -2.547  27.472  0.00  0.00    -0.000 A 
ATOM      8  C   UNL     1       4.191  -3.678  28.264  0.00  0.00    +0.027 A 
ATOM      9  C   UNL     1       4.261  -4.791  27.458  0.00  0.00    +0.087 A 
ENDROOT
BRANCH   4  10
ATOM     10  N   UNL     1       5.731   0.174  24.452  0.00  0.00    -0.269 N 
ATOM     11  H   UNL     1       5.009   0.620  23.903  0.00  0.00    +0.156 HD
ATOM     12  C   UNL     1       6.998   0.705  24.329  0.00  0.00    +0.304 C 
ATOM     13  N   UNL     1       7.078   1.638  23.316  0.00  0.00    -0.295 N 
ATOM     14  H   UNL     1       6.532   1.432  22.491  0.00  0.00    +0.151 HD
ATOM     15  O   UNL     1       7.953   0.466  25.056  0.00  0.00    -0.252 OA
BRANCH  13  16
ATOM     16  C   UNL     1       8.360   2.275  23.089  0.00  0.00    +0.141 C 
BRANCH  16  17
ATOM     17  C   UNL     1       8.266   3.778  23.047  0.00  0.00    -0.030 A 
ATOM     18  C   UNL     1       7.299   4.414  22.256  0.00  0.00    +0.005 A 
ATOM     19  C   UNL     1       7.264   5.807  22.163  0.00  0.00    +0.000 A 
ATOM     20  C   UNL     1       8.196   6.578  22.855  0.00  0.00    +0.000 A 
ATOM     21  C   UNL     1       9.170   5.956  23.635  0.00  0.00    +0.000 A 
ATOM     22  C   UNL     1       9.207   4.565  23.728  0.00  0.00    +0.005 A 
ENDBRANCH  16  17
ENDBRANCH  13  16
ENDBRANCH   4  10
BRANCH   1  23
ATOM     23  C   UNL     1       4.668  -5.267  25.045  0.00  0.00    +0.124 C 
BRANCH  23  24
ATOM     24  C   UNL     1       6.107  -5.614  24.628  0.00  0.00    +0.049 C 
BRANCH  24  25
ATOM     25  C   UNL     1       6.553  -4.956  23.303  0.00  0.00    +0.115 C 
BRANCH  25  26
ATOM     26  N   UNL     1       7.700  -4.070  23.462  0.00  0.00    -0.331 N 
ATOM     27  C   UNL     1       7.944  -2.951  22.718  0.00  0.00    +0.120 A 
ATOM     28  C   UNL     1       9.164  -2.478  23.151  0.00  0.00    +0.143 A 
ATOM     29  N   UNL     1       9.670  -3.315  24.138  0.00  0.00    -0.231 NA
ATOM     30  C   UNL     1       8.761  -4.250  24.303  0.00  0.00    +0.200 A 
BRANCH  28  31
ATOM     31  C   UNL     1       9.873  -1.302  22.655  0.00  0.00    +0.261 C 
ATOM     32  O   UNL     1      10.535  -0.537  23.348  0.00  0.00    -0.269 OA
ATOM     33  N   UNL     1       9.708  -1.100  21.314  0.00  0.00    -0.324 N 
ATOM     34  H   UNL     1      10.105  -0.284  20.879  0.00  0.00    +0.145 HD
ATOM     35  H   UNL     1       9.135  -1.752  20.793  0.00  0.00    +0.145 HD
ENDBRANCH  28  31
ENDBRANCH  25  26
BRANCH  25  36
ATOM     36  C   UNL     1       6.863  -5.992  22.208  0.00  0.00    +0.181 C 
BRANCH  36  37
ATOM     37  O   UNL     1       5.694  -6.340  21.473  0.00  0.00    -0.393 OA
ATOM     38  H   UNL     1       4.923  -6.019  21.974  0.00  0.00    +0.209 HD
ENDBRANCH  36  37
ENDBRANCH  25  36
ENDBRANCH  24  25
ENDBRANCH  23  24
ENDBRANCH   1  23
TORSDOF 10
ENDMDL
MODEL 6
REMARK VINA RESULT:      -6.5      2.053      3.521
REMARK  Name = 
REMARK  10 active torsions:
REMARK  status: ('A' for Active; 'I' for Inactive)
REMARK    1  A    between atoms: C_2  and  C_3
REMARK    2  A    between atoms: C_2  and  C_5
REMARK    3  A    between atoms: C_2  and  N_27
REMARK    4  A    between atoms: C_3  and  O_4
REMARK    5  A    between atoms: C_5  and  C_6
REMARK    6  A    between atoms: C_6  and  N_7
REMARK    7  A    between atoms: C_13  and  N_14
REMARK    8  A    between atoms: N_17  and  C_18
REMARK    9  A    between atoms: C_18  and  C_19
REMARK   10  A    between atoms: C_30  and  C_32
REMARK                            x       y       z     vdW  Elec       q    Type
REMARK                         _______ _______ _______ _____ _____    ______ ____
ROOT
ATOM      1  N   UNL     1       5.656  -4.042  26.817  0.00  0.00    -0.347 N 
ATOM      2  C   UNL     1       6.782  -3.896  26.031  0.00  0.00    +0.051 A 
ATOM      3  C   UNL     1       7.067  -3.029  24.961  0.00  0.00    +0.049 A 
ATOM      4  C   UNL     1       8.334  -3.062  24.363  0.00  0.00    +0.037 A 
ATOM      5  C   UNL     1       9.296  -3.951  24.848  0.00  0.00    +0.024 A 
ATOM      6  C   UNL     1       8.998  -4.842  25.892  0.00  0.00    +0.012 A 
ATOM      7  C   UNL     1       7.725  -4.817  26.492  0.00  0.00    -0.000 A 
ATOM      8  C   UNL     1       7.110  -5.560  27.536  0.00  0.00    +0.027 A 
ATOM      9  C   UNL     1       5.835  -5.072  27.704  0.00  0.00    +0.087 A 
ENDROOT
BRANCH   4  10
ATOM     10  N   UNL     1       8.690  -2.223  23.280  0.00  0.00    -0.269 N 
ATOM     11  H   UNL     1       8.311  -2.453  22.372  0.00  0.00    +0.156 HD
ATOM     12  C   UNL     1       9.319  -1.000  23.380  0.00  0.00    +0.304 C 
ATOM     13  N   UNL     1       9.482  -0.394  22.152  0.00  0.00    -0.295 N 
ATOM     14  H   UNL     1       9.701  -1.015  21.386  0.00  0.00    +0.151 HD
ATOM     15  O   UNL     1       9.644  -0.440  24.419  0.00  0.00    -0.252 OA
BRANCH  13  16
ATOM     16  C   UNL     1      10.126   0.904  22.124  0.00  0.00    +0.141 C 
BRANCH  16  17
ATOM     17  C   UNL     1       9.160   2.041  22.331  0.00  0.00    -0.030 A 
ATOM     18  C   UNL     1       9.442   3.063  23.248  0.00  0.00    +0.005 A 
ATOM     19  C   UNL     1       8.510   4.075  23.491  0.00  0.00    +0.000 A 
ATOM     20  C   UNL     1       7.287   4.074  22.823  0.00  0.00    +0.000 A 
ATOM     21  C   UNL     1       6.990   3.056  21.918  0.00  0.00    +0.000 A 
ATOM     22  C   UNL     1       7.920   2.045  21.675  0.00  0.00    +0.005 A 
ENDBRANCH  16  17
ENDBRANCH  13  16
ENDBRANCH   4  10
BRANCH   1  23
ATOM     23  C   UNL     1       4.462  -3.210  26.777  0.00  0.00    +0.124 C 
BRANCH  23  24
ATOM     24  C   UNL     1       3.174  -4.011  26.525  0.00  0.00    +0.049 C 
BRANCH  24  25
ATOM     25  C   UNL     1       2.830  -4.194  25.030  0.00  0.00    +0.115 C 
BRANCH  25  26
ATOM     26  N   UNL     1       3.818  -4.986  24.308  0.00  0.00    -0.331 N 
ATOM     27  C   UNL     1       4.512  -4.572  23.206  0.00  0.00    +0.120 A 
ATOM     28  C   UNL     1       5.263  -5.660  22.813  0.00  0.00    +0.143 A 
ATOM     29  N   UNL     1       5.012  -6.735  23.656  0.00  0.00    -0.231 NA
ATOM     30  C   UNL     1       4.151  -6.290  24.543  0.00  0.00    +0.200 A 
BRANCH  28  31
ATOM     31  C   UNL     1       6.169  -5.729  21.670  0.00  0.00    +0.261 C 
ATOM     32  O   UNL     1       5.823  -5.668  20.495  0.00  0.00    -0.269 OA
ATOM     33  N   UNL     1       7.475  -5.906  22.028  0.00  0.00    -0.324 N 
ATOM     34  H   UNL     1       8.177  -6.027  21.317  0.00  0.00    +0.145 HD
ATOM     35  H   UNL     1       7.703  -5.969  23.013  0.00  0.00    +0.145 HD
ENDBRANCH  28  31
ENDBRANCH  25  26
BRANCH  25  36
ATOM     36  C   UNL     1       1.437  -4.811  24.819  0.00  0.00    +0.181 C 
BRANCH  36  37
ATOM     37  O   UNL     1       1.040  -4.753  23.453  0.00  0.00    -0.393 OA
ATOM     38  H   UNL     1       1.037  -5.664  23.107  0.00  0.00    +0.209 HD
ENDBRANCH  36  37
ENDBRANCH  25  36
ENDBRANCH  24  25
ENDBRANCH  23  24
ENDBRANCH   1  23
TORSDOF 10
ENDMDL
MODEL 7
REMARK VINA RESULT:      -6.4      2.172      4.178
REMARK  Name = 
REMARK  10 active torsions:
REMARK  status: ('A' for Active; 'I' for Inactive)
REMARK    1  A    between atoms: C_2  and  C_3
REMARK    2  A    between atoms: C_2  and  C_5
REMARK    3  A    between atoms: C_2  and  N_27
REMARK    4  A    between atoms: C_3  and  O_4
REMARK    5  A    between atoms: C_5  and  C_6
REMARK    6  A    between atoms: C_6  and  N_7
REMARK    7  A    between atoms: C_13  and  N_14
REMARK    8  A    between atoms: N_17  and  C_18
REMARK    9  A    between atoms: C_18  and  C_19
REMARK   10  A    between atoms: C_30  and  C_32
REMARK                            x       y       z     vdW  Elec       q    Type
REMARK                         _______ _______ _______ _____ _____    ______ ____
ROOT
ATOM      1  N   UNL     1       4.048  -3.708  25.091  0.00  0.00    -0.347 N 
ATOM      2  C   UNL     1       4.739  -2.589  25.512  0.00  0.00    +0.051 A 
ATOM      3  C   UNL     1       5.391  -1.570  24.794  0.00  0.00    +0.049 A 
ATOM      4  C   UNL     1       5.981  -0.505  25.488  0.00  0.00    +0.037 A 
ATOM      5  C   UNL     1       5.903  -0.470  26.882  0.00  0.00    +0.024 A 
ATOM      6  C   UNL     1       5.283  -1.506  27.599  0.00  0.00    +0.012 A 
ATOM      7  C   UNL     1       4.694  -2.581  26.908  0.00  0.00    -0.000 A 
ATOM      8  C   UNL     1       4.010  -3.759  27.313  0.00  0.00    +0.027 A 
ATOM      9  C   UNL     1       3.637  -4.440  26.177  0.00  0.00    +0.087 A 
ENDROOT
BRANCH   4  10
ATOM     10  N   UNL     1       6.659   0.551  24.833  0.00  0.00    -0.269 N 
ATOM     11  H   UNL     1       6.149   1.412  24.692  0.00  0.00    +0.156 HD
ATOM     12  C   UNL     1       8.011   0.599  24.568  0.00  0.00    +0.304 C 
ATOM     13  N   UNL     1       8.385   1.783  23.969  0.00  0.00    -0.295 N 
ATOM     14  H   UNL     1       7.725   2.162  23.304  0.00  0.00    +0.151 HD
ATOM     15  O   UNL     1       8.837  -0.249  24.879  0.00  0.00    -0.252 OA
BRANCH  13  16
ATOM     16  C   UNL     1       9.787   1.960  23.645  0.00  0.00    +0.141 C 
BRANCH  16  17
ATOM     17  C   UNL     1      10.216   3.404  23.671  0.00  0.00    -0.030 A 
ATOM     18  C   UNL     1      11.535   3.766  23.365  0.00  0.00    +0.005 A 
ATOM     19  C   UNL     1      11.946   5.097  23.463  0.00  0.00    +0.000 A 
ATOM     20  C   UNL     1      11.045   6.078  23.871  0.00  0.00    +0.000 A 
ATOM     21  C   UNL     1       9.734   5.729  24.191  0.00  0.00    +0.000 A 
ATOM     22  C   UNL     1       9.323   4.400  24.094  0.00  0.00    +0.005 A 
ENDBRANCH  16  17
ENDBRANCH  13  16
ENDBRANCH   4  10
BRANCH   1  23
ATOM     23  C   UNL     1       3.735  -4.062  23.714  0.00  0.00    +0.124 C 
BRANCH  23  24
ATOM     24  C   UNL     1       4.616  -5.195  23.165  0.00  0.00    +0.049 C 
BRANCH  24  25
ATOM     25  C   UNL     1       5.805  -4.706  22.307  0.00  0.00    +0.115 C 
BRANCH  25  26
ATOM     26  N   UNL     1       6.991  -4.395  23.096  0.00  0.00    -0.331 N 
ATOM     27  C   UNL     1       7.385  -5.055  24.225  0.00  0.00    +0.120 A 
ATOM     28  C   UNL     1       8.499  -4.379  24.678  0.00  0.00    +0.143 A 
ATOM     29  N   UNL     1       8.768  -3.302  23.842  0.00  0.00    -0.231 NA
ATOM     30  C   UNL     1       7.851  -3.351  22.902  0.00  0.00    +0.200 A 
BRANCH  28  31
ATOM     31  C   UNL     1       9.286  -4.689  25.869  0.00  0.00    +0.261 C 
ATOM     32  O   UNL     1       9.073  -4.234  26.987  0.00  0.00    -0.269 OA
ATOM     33  N   UNL     1      10.331  -5.530  25.619  0.00  0.00    -0.324 N 
ATOM     34  H   UNL     1      10.975  -5.762  26.358  0.00  0.00    +0.145 HD
ATOM     35  H   UNL     1      10.472  -5.861  24.672  0.00  0.00    +0.145 HD
ENDBRANCH  28  31
ENDBRANCH  25  26
BRANCH  25  36
ATOM     36  C   UNL     1       6.182  -5.707  21.201  0.00  0.00    +0.181 C 
BRANCH  36  37
ATOM     37  O   UNL     1       6.249  -7.038  21.702  0.00  0.00    -0.393 OA
ATOM     38  H   UNL     1       6.998  -7.083  22.324  0.00  0.00    +0.209 HD
ENDBRANCH  36  37
ENDBRANCH  25  36
ENDBRANCH  24  25
ENDBRANCH  23  24
ENDBRANCH   1  23
TORSDOF 10
ENDMDL
MODEL 8
REMARK VINA RESULT:      -6.4      2.025      4.080
REMARK  Name = 
REMARK  10 active torsions:
REMARK  status: ('A' for Active; 'I' for Inactive)
REMARK    1  A    between atoms: C_2  and  C_3
REMARK    2  A    between atoms: C_2  and  C_5
REMARK    3  A    between atoms: C_2  and  N_27
REMARK    4  A    between atoms: C_3  and  O_4
REMARK    5  A    between atoms: C_5  and  C_6
REMARK    6  A    between atoms: C_6  and  N_7
REMARK    7  A    between atoms: C_13  and  N_14
REMARK    8  A    between atoms: N_17  and  C_18
REMARK    9  A    between atoms: C_18  and  C_19
REMARK   10  A    between atoms: C_30  and  C_32
REMARK                            x       y       z     vdW  Elec       q    Type
REMARK                         _______ _______ _______ _____ _____    ______ ____
ROOT
ATOM      1  N   UNL     1       3.181  -5.520  24.786  0.00  0.00    -0.347 N 
ATOM      2  C   UNL     1       3.535  -4.390  25.497  0.00  0.00    +0.051 A 
ATOM      3  C   UNL     1       4.238  -3.233  25.119  0.00  0.00    +0.049 A 
ATOM      4  C   UNL     1       4.416  -2.198  26.047  0.00  0.00    +0.037 A 
ATOM      5  C   UNL     1       3.882  -2.332  27.331  0.00  0.00    +0.024 A 
ATOM      6  C   UNL     1       3.211  -3.503  27.718  0.00  0.00    +0.012 A 
ATOM      7  C   UNL     1       3.035  -4.548  26.791  0.00  0.00    -0.000 A 
ATOM      8  C   UNL     1       2.425  -5.830  26.853  0.00  0.00    +0.027 A 
ATOM      9  C   UNL     1       2.543  -6.412  25.611  0.00  0.00    +0.087 A 
ENDROOT
BRANCH   4  10
ATOM     10  N   UNL     1       5.118  -1.008  25.740  0.00  0.00    -0.269 N 
ATOM     11  H   UNL     1       4.569  -0.196  25.496  0.00  0.00    +0.156 HD
ATOM     12  C   UNL     1       6.462  -0.787  25.957  0.00  0.00    +0.304 C 
ATOM     13  N   UNL     1       6.844   0.492  25.607  0.00  0.00    -0.295 N 
ATOM     14  H   UNL     1       6.394   0.871  24.786  0.00  0.00    +0.151 HD
ATOM     15  O   UNL     1       7.248  -1.572  26.470  0.00  0.00    -0.252 OA
BRANCH  13  16
ATOM     16  C   UNL     1       8.236   0.852  25.794  0.00  0.00    +0.141 C 
BRANCH  16  17
ATOM     17  C   UNL     1       8.943   1.147  24.497  0.00  0.00    -0.030 A 
ATOM     18  C   UNL     1       9.526   2.401  24.268  0.00  0.00    +0.005 A 
ATOM     19  C   UNL     1      10.116   2.693  23.036  0.00  0.00    +0.000 A 
ATOM     20  C   UNL     1      10.125   1.739  22.021  0.00  0.00    +0.000 A 
ATOM     21  C   UNL     1       9.537   0.493  22.233  0.00  0.00    +0.000 A 
ATOM     22  C   UNL     1       8.947   0.200  23.462  0.00  0.00    +0.005 A 
ENDBRANCH  16  17
ENDBRANCH  13  16
ENDBRANCH   4  10
BRANCH   1  23
ATOM     23  C   UNL     1       3.387  -5.745  23.362  0.00  0.00    +0.124 C 
BRANCH  23  24
ATOM     24  C   UNL     1       4.812  -6.210  23.023  0.00  0.00    +0.049 C 
BRANCH  24  25
ATOM     25  C   UNL     1       5.668  -5.141  22.308  0.00  0.00    +0.115 C 
BRANCH  25  26
ATOM     26  N   UNL     1       6.822  -4.714  23.088  0.00  0.00    -0.331 N 
ATOM     27  C   UNL     1       7.302  -5.345  24.201  0.00  0.00    +0.120 A 
ATOM     28  C   UNL     1       8.339  -4.557  24.654  0.00  0.00    +0.143 A 
ATOM     29  N   UNL     1       8.477  -3.442  23.835  0.00  0.00    -0.231 NA
ATOM     30  C   UNL     1       7.559  -3.577  22.905  0.00  0.00    +0.200 A 
BRANCH  28  31
ATOM     31  C   UNL     1       9.171  -4.797  25.830  0.00  0.00    +0.261 C 
ATOM     32  O   UNL     1       8.961  -4.331  26.945  0.00  0.00    -0.269 OA
ATOM     33  N   UNL     1      10.256  -5.584  25.570  0.00  0.00    -0.324 N 
ATOM     34  H   UNL     1      10.929  -5.764  26.297  0.00  0.00    +0.145 HD
ATOM     35  H   UNL     1      10.392  -5.926  24.626  0.00  0.00    +0.145 HD
ENDBRANCH  28  31
ENDBRANCH  25  26
BRANCH  25  36
ATOM     36  C   UNL     1       6.141  -5.602  20.918  0.00  0.00    +0.181 C 
BRANCH  36  37
ATOM     37  O   UNL     1       5.806  -4.654  19.910  0.00  0.00    -0.393 OA
ATOM     38  H   UNL     1       6.589  -4.094  19.758  0.00  0.00    +0.209 HD
ENDBRANCH  36  37
ENDBRANCH  25  36
ENDBRANCH  24  25
ENDBRANCH  23  24
ENDBRANCH   1  23
TORSDOF 10
ENDMDL
MODEL 9
REMARK VINA RESULT:      -6.4      2.927      7.930
REMARK  Name = 
REMARK  10 active torsions:
REMARK  status: ('A' for Active; 'I' for Inactive)
REMARK    1  A    between atoms: C_2  and  C_3
REMARK    2  A    between atoms: C_2  and  C_5
REMARK    3  A    between atoms: C_2  and  N_27
REMARK    4  A    between atoms: C_3  and  O_4
REMARK    5  A    between atoms: C_5  and  C_6
REMARK    6  A    between atoms: C_6  and  N_7
REMARK    7  A    between atoms: C_13  and  N_14
REMARK    8  A    between atoms: N_17  and  C_18
REMARK    9  A    between atoms: C_18  and  C_19
REMARK   10  A    between atoms: C_30  and  C_32
REMARK                            x       y       z     vdW  Elec       q    Type
REMARK                         _______ _______ _______ _____ _____    ______ ____
ROOT
ATOM      1  N   UNL     1       7.254   3.565  25.514  0.00  0.00    -0.347 N 
ATOM      2  C   UNL     1       6.920   2.489  26.312  0.00  0.00    +0.051 A 
ATOM      3  C   UNL     1       6.636   1.147  25.998  0.00  0.00    +0.049 A 
ATOM      4  C   UNL     1       6.371   0.237  27.031  0.00  0.00    +0.037 A 
ATOM      5  C   UNL     1       6.403   0.679  28.356  0.00  0.00    +0.024 A 
ATOM      6  C   UNL     1       6.651   2.026  28.665  0.00  0.00    +0.012 A 
ATOM      7  C   UNL     1       6.912   2.945  27.631  0.00  0.00    -0.000 A 
ATOM      8  C   UNL     1       7.190   4.338  27.596  0.00  0.00    +0.027 A 
ATOM      9  C   UNL     1       7.382   4.695  26.281  0.00  0.00    +0.087 A 
ENDROOT
BRANCH   4  10
ATOM     10  N   UNL     1       6.072  -1.125  26.791  0.00  0.00    -0.269 N 
ATOM     11  H   UNL     1       5.097  -1.391  26.784  0.00  0.00    +0.156 HD
ATOM     12  C   UNL     1       6.962  -2.079  26.345  0.00  0.00    +0.304 C 
ATOM     13  N   UNL     1       6.360  -3.305  26.151  0.00  0.00    -0.295 N 
ATOM     14  H   UNL     1       5.647  -3.551  26.823  0.00  0.00    +0.151 HD
ATOM     15  O   UNL     1       8.139  -1.892  26.066  0.00  0.00    -0.252 OA
BRANCH  13  16
ATOM     16  C   UNL     1       7.191  -4.394  25.676  0.00  0.00    +0.141 C 
BRANCH  16  17
ATOM     17  C   UNL     1       6.795  -4.876  24.305  0.00  0.00    -0.030 A 
ATOM     18  C   UNL     1       5.447  -4.938  23.929  0.00  0.00    +0.005 A 
ATOM     19  C   UNL     1       5.081  -5.455  22.684  0.00  0.00    +0.000 A 
ATOM     20  C   UNL     1       6.057  -5.919  21.805  0.00  0.00    +0.000 A 
ATOM     21  C   UNL     1       7.401  -5.874  22.173  0.00  0.00    +0.000 A 
ATOM     22  C   UNL     1       7.768  -5.359  23.416  0.00  0.00    +0.005 A 
ENDBRANCH  16  17
ENDBRANCH  13  16
ENDBRANCH   4  10
BRANCH   1  23
ATOM     23  C   UNL     1       7.498   3.533  24.079  0.00  0.00    +0.124 C 
BRANCH  23  24
ATOM     24  C   UNL     1       8.893   4.047  23.690  0.00  0.00    +0.049 C 
BRANCH  24  25
ATOM     25  C   UNL     1      10.014   2.993  23.834  0.00  0.00    +0.115 C 
BRANCH  25  26
ATOM     26  N   UNL     1       9.729   1.753  23.123  0.00  0.00    -0.331 N 
ATOM     27  C   UNL     1       9.551   0.530  23.704  0.00  0.00    +0.120 A 
ATOM     28  C   UNL     1       9.390  -0.356  22.659  0.00  0.00    +0.143 A 
ATOM     29  N   UNL     1       9.490   0.320  21.449  0.00  0.00    -0.231 NA
ATOM     30  C   UNL     1       9.682   1.580  21.768  0.00  0.00    +0.200 A 
BRANCH  28  31
ATOM     31  C   UNL     1       9.180  -1.798  22.759  0.00  0.00    +0.261 C 
ATOM     32  O   UNL     1       8.393  -2.441  22.073  0.00  0.00    -0.269 OA
ATOM     33  N   UNL     1       9.935  -2.385  23.733  0.00  0.00    -0.324 N 
ATOM     34  H   UNL     1       9.825  -3.367  23.928  0.00  0.00    +0.145 HD
ATOM     35  H   UNL     1      10.555  -1.803  24.284  0.00  0.00    +0.145 HD
ENDBRANCH  28  31
ENDBRANCH  25  26
BRANCH  25  36
ATOM     36  C   UNL     1      11.385   3.528  23.386  0.00  0.00    +0.181 C 
BRANCH  36  37
ATOM     37  O   UNL     1      11.307   4.891  22.982  0.00  0.00    -0.393 OA
ATOM     38  H   UNL     1      11.783   5.424  23.644  0.00  0.00    +0.209 HD
ENDBRANCH  36  37
ENDBRANCH  25  36
ENDBRANCH  24  25
ENDBRANCH  23  24
ENDBRANCH   1  23
TORSDOF 10
ENDMDL
