MODEL 1
REMARK VINA RESULT:      -7.7      0.000      0.000
REMARK  Name = 
REMARK  10 active torsions:
REMARK  status: ('A' for Active; 'I' for Inactive)
REMARK    1  A    between atoms: C_8  and  C_10
REMARK    2  A    between atoms: C_11  and  O_12
REMARK    3  A    between atoms: C_11  and  C_17
REMARK    4  A    between atoms: O_12  and  C_13
REMARK    5  A    between atoms: C_13  and  C_15
REMARK    6  A    between atoms: C_15  and  C_16
REMARK    7  A    between atoms: C_17  and  C_19
REMARK    8  A    between atoms: C_21  and  C_22
REMARK    9  A    between atoms: C_24  and  O_25
REMARK   10  A    between atoms: C_28  and  C_29
REMARK                            x       y       z     vdW  Elec       q    Type
REMARK                         _______ _______ _______ _____ _____    ______ ____
ROOT
ATOM      1  C   UNL     1       8.800   1.398  25.231  0.00  0.00    +0.194 C 
ATOM      2  F   UNL     1       7.466   1.575  25.435  0.00  0.00    -0.241 F 
ATOM      3  C   UNL     1       9.190   1.774  23.834  0.00  0.00    -0.020 C 
ATOM      4  C   UNL     1       8.683   0.872  22.677  0.00  0.00    +0.047 C 
ATOM      5  C   UNL     1       9.753   0.821  21.566  0.00  0.00    +0.023 C 
ATOM      6  C   UNL     1       7.539   1.665  21.984  0.00  0.00    -0.009 C 
ATOM      7  C   UNL     1       7.227   2.947  22.264  0.00  0.00    +0.047 C 
ATOM      8  C   UNL     1       7.985   3.660  23.330  0.00  0.00    +0.179 C 
ATOM      9  O   UNL     1       7.542   4.665  23.895  0.00  0.00    -0.288 OA
ATOM     10  C   UNL     1       8.211  -0.606  23.116  0.00  0.00    +0.153 C 
ATOM     11  F   UNL     1       6.874  -0.666  22.733  0.00  0.00    -0.238 F 
ATOM     12  C   UNL     1       8.194  -0.936  24.646  0.00  0.00    +0.037 C 
ATOM     13  C   UNL     1       8.520  -2.461  25.029  0.00  0.00    +0.006 C 
ATOM     14  C   UNL     1       7.847  -3.639  24.076  0.00  0.00    +0.021 C 
ATOM     15  C   UNL     1       8.466  -5.036  23.737  0.00  0.00    +0.016 C 
ATOM     16  C   UNL     1       7.817  -3.025  22.649  0.00  0.00    +0.045 C 
ATOM     17  C   UNL     1       6.655  -3.954  25.034  0.00  0.00    +0.180 C 
ATOM     18  C   UNL     1       7.469  -4.015  26.439  0.00  0.00    +0.038 C 
ATOM     19  C   UNL     1       8.752  -4.910  26.603  0.00  0.00    +0.012 C 
ATOM     20  C   UNL     1       8.016  -2.626  26.483  0.00  0.00    +0.012 C 
ATOM     21  C   UNL     1       8.871  -1.882  22.528  0.00  0.00    +0.154 C 
ATOM     22  C   UNL     1       9.349   3.099  23.618  0.00  0.00    +0.054 C 
ATOM     23  C   UNL     1       9.133  -0.050  25.468  0.00  0.00    +0.048 C 
ENDROOT
BRANCH  17  24
ATOM     24  C   UNL     1       5.766  -5.225  24.943  0.00  0.00    +0.192 C 
ATOM     25  O   UNL     1       5.357  -5.635  23.852  0.00  0.00    -0.292 OA
BRANCH  24  26
ATOM     26  C   UNL     1       5.524  -6.001  26.221  0.00  0.00    +0.187 C 
ATOM     27 CL   UNL     1       4.182  -7.142  26.023  0.00  0.00    -0.117 Cl
ENDBRANCH  24  26
ENDBRANCH  17  24
BRANCH  21  28
ATOM     28  O   UNL     1       9.443  -1.892  21.235  0.00  0.00    -0.389 OA
ATOM     29  H   UNL     1       9.378  -2.826  20.934  0.00  0.00    +0.210 HD
ENDBRANCH  21  28
BRANCH  17  30
ATOM     30  O   UNL     1       5.813  -2.776  24.824  0.00  0.00    -0.449 OA
BRANCH  30  31
ATOM     31  C   UNL     1       4.587  -2.619  25.377  0.00  0.00    +0.308 C 
ATOM     32  O   UNL     1       3.565  -3.017  24.854  0.00  0.00    -0.251 OA
BRANCH  31  33
ATOM     33  C   UNL     1       4.683  -1.772  26.627  0.00  0.00    +0.117 C 
ATOM     34  C   UNL     1       4.950  -0.313  26.296  0.00  0.00    +0.015 C 
ENDBRANCH  31  33
ENDBRANCH  30  31
ENDBRANCH  17  30
TORSDOF 6
ENDMDL
MODEL 2
REMARK VINA RESULT:      -7.2      3.078      6.834
REMARK  Name = 
REMARK  10 active torsions:
REMARK  status: ('A' for Active; 'I' for Inactive)
REMARK    1  A    between atoms: C_8  and  C_10
REMARK    2  A    between atoms: C_11  and  O_12
REMARK    3  A    between atoms: C_11  and  C_17
REMARK    4  A    between atoms: O_12  and  C_13
REMARK    5  A    between atoms: C_13  and  C_15
REMARK    6  A    between atoms: C_15  and  C_16
REMARK    7  A    between atoms: C_17  and  C_19
REMARK    8  A    between atoms: C_21  and  C_22
REMARK    9  A    between atoms: C_24  and  O_25
REMARK   10  A    between atoms: C_28  and  C_29
REMARK                            x       y       z     vdW  Elec       q    Type
REMARK                         _______ _______ _______ _____ _____    ______ ____
ROOT
ATOM      1  C   UNL     1       6.398  -3.537  21.964  0.00  0.00    +0.194 C 
ATOM      2  F   UNL     1       5.246  -2.815  22.005  0.00  0.00    -0.241 F 
ATOM      3  C   UNL     1       6.483  -4.488  23.120  0.00  0.00    -0.020 C 
ATOM      4  C   UNL     1       6.669  -3.884  24.537  0.00  0.00    +0.047 C 
ATOM      5  C   UNL     1       7.548  -4.830  25.382  0.00  0.00    +0.023 C 
ATOM      6  C   UNL     1       5.289  -4.014  25.242  0.00  0.00    -0.009 C 
ATOM      7  C   UNL     1       4.239  -4.692  24.736  0.00  0.00    +0.047 C 
ATOM      8  C   UNL     1       4.369  -5.333  23.397  0.00  0.00    +0.179 C 
ATOM      9  O   UNL     1       3.387  -5.638  22.713  0.00  0.00    -0.288 OA
ATOM     10  C   UNL     1       7.222  -2.370  24.571  0.00  0.00    +0.153 C 
ATOM     11  F   UNL     1       6.223  -1.655  25.226  0.00  0.00    -0.238 F 
ATOM     12  C   UNL     1       7.397  -1.632  23.202  0.00  0.00    +0.037 C 
ATOM     13  C   UNL     1       8.601  -0.573  23.134  0.00  0.00    +0.006 C 
ATOM     14  C   UNL     1       8.827   0.398  24.459  0.00  0.00    +0.021 C 
ATOM     15  C   UNL     1      10.190   0.961  24.985  0.00  0.00    +0.016 C 
ATOM     16  C   UNL     1       8.437  -0.490  25.672  0.00  0.00    +0.045 C 
ATOM     17  C   UNL     1       8.084   1.639  23.872  0.00  0.00    +0.180 C 
ATOM     18  C   UNL     1       8.739   1.647  22.385  0.00  0.00    +0.038 C 
ATOM     19  C   UNL     1      10.297   1.604  22.177  0.00  0.00    +0.012 C 
ATOM     20  C   UNL     1       8.294   0.307  21.899  0.00  0.00    +0.012 C 
ATOM     21  C   UNL     1       8.543  -2.000  25.297  0.00  0.00    +0.154 C 
ATOM     22  C   UNL     1       5.780  -5.633  22.975  0.00  0.00    +0.054 C 
ATOM     23  C   UNL     1       7.562  -2.585  22.016  0.00  0.00    +0.048 C 
ENDROOT
BRANCH  17  24
ATOM     24  C   UNL     1       8.189   3.080  24.446  0.00  0.00    +0.192 C 
ATOM     25  O   UNL     1       8.081   3.288  25.658  0.00  0.00    -0.292 OA
BRANCH  24  26
ATOM     26  C   UNL     1       8.546   4.192  23.481  0.00  0.00    +0.187 C 
ATOM     27 CL   UNL     1      10.160   4.837  23.832  0.00  0.00    -0.117 Cl
ENDBRANCH  24  26
ENDBRANCH  17  24
BRANCH  21  28
ATOM     28  O   UNL     1       9.011  -2.739  26.407  0.00  0.00    -0.389 OA
ATOM     29  H   UNL     1       8.414  -3.518  26.465  0.00  0.00    +0.210 HD
ENDBRANCH  21  28
BRANCH  17  30
ATOM     30  O   UNL     1       6.692   1.197  23.965  0.00  0.00    -0.449 OA
BRANCH  30  31
ATOM     31  C   UNL     1       5.632   1.982  23.660  0.00  0.00    +0.308 C 
ATOM     32  O   UNL     1       5.489   2.517  22.578  0.00  0.00    -0.251 OA
BRANCH  31  33
ATOM     33  C   UNL     1       4.770   2.195  24.885  0.00  0.00    +0.117 C 
ATOM     34  C   UNL     1       5.174   1.269  26.022  0.00  0.00    +0.015 C 
ENDBRANCH  31  33
ENDBRANCH  30  31
ENDBRANCH  17  30
TORSDOF 6
ENDMDL
MODEL 3
REMARK VINA RESULT:      -7.1      2.173      4.284
REMARK  Name = 
REMARK  10 active torsions:
REMARK  status: ('A' for Active; 'I' for Inactive)
REMARK    1  A    between atoms: C_8  and  C_10
REMARK    2  A    between atoms: C_11  and  O_12
REMARK    3  A    between atoms: C_11  and  C_17
REMARK    4  A    between atoms: O_12  and  C_13
REMARK    5  A    between atoms: C_13  and  C_15
REMARK    6  A    between atoms: C_15  and  C_16
REMARK    7  A    between atoms: C_17  and  C_19
REMARK    8  A    between atoms: C_21  and  C_22
REMARK    9  A    between atoms: C_24  and  O_25
REMARK   10  A    between atoms: C_28  and  C_29
REMARK                            x       y       z     vdW  Elec       q    Type
REMARK                         _______ _______ _______ _____ _____    ______ ____
ROOT
ATOM      1  C   UNL     1       7.445   2.785  22.255  0.00  0.00    +0.194 C 
ATOM      2  F   UNL     1       8.785   2.622  22.424  0.00  0.00    -0.241 F 
ATOM      3  C   UNL     1       6.851   3.589  23.372  0.00  0.00    -0.020 C 
ATOM      4  C   UNL     1       6.802   2.940  24.781  0.00  0.00    +0.047 C 
ATOM      5  C   UNL     1       5.527   3.407  25.513  0.00  0.00    +0.023 C 
ATOM      6  C   UNL     1       7.921   3.633  25.611  0.00  0.00    -0.009 C 
ATOM      7  C   UNL     1       8.627   4.702  25.189  0.00  0.00    +0.047 C 
ATOM      8  C   UNL     1       8.367   5.249  23.829  0.00  0.00    +0.179 C 
ATOM      9  O   UNL     1       9.188   5.955  23.233  0.00  0.00    -0.288 OA
ATOM     10  C   UNL     1       6.946   1.334  24.801  0.00  0.00    +0.153 C 
ATOM     11  F   UNL     1       8.084   1.101  25.567  0.00  0.00    -0.238 F 
ATOM     12  C   UNL     1       7.236   0.615  23.441  0.00  0.00    +0.037 C 
ATOM     13  C   UNL     1       6.609  -0.854  23.286  0.00  0.00    +0.006 C 
ATOM     14  C   UNL     1       6.690  -1.852  24.608  0.00  0.00    +0.021 C 
ATOM     15  C   UNL     1       5.651  -2.950  25.017  0.00  0.00    +0.016 C 
ATOM     16  C   UNL     1       6.544  -0.903  25.830  0.00  0.00    +0.045 C 
ATOM     17  C   UNL     1       7.943  -2.648  24.128  0.00  0.00    +0.180 C 
ATOM     18  C   UNL     1       7.502  -2.909  22.586  0.00  0.00    +0.038 C 
ATOM     19  C   UNL     1       6.102  -3.530  22.229  0.00  0.00    +0.012 C 
ATOM     20  C   UNL     1       7.380  -1.499  22.109  0.00  0.00    +0.012 C 
ATOM     21  C   UNL     1       5.843   0.424  25.407  0.00  0.00    +0.154 C 
ATOM     22  C   UNL     1       7.011   4.927  23.265  0.00  0.00    +0.054 C 
ATOM     23  C   UNL     1       6.797   1.428  22.220  0.00  0.00    +0.048 C 
ENDROOT
BRANCH  17  24
ATOM     24  C   UNL     1       8.405  -4.006  24.726  0.00  0.00    +0.192 C 
ATOM     25  O   UNL     1       8.590  -4.988  24.001  0.00  0.00    -0.292 OA
BRANCH  24  26
ATOM     26  C   UNL     1       8.735  -4.041  26.204  0.00  0.00    +0.187 C 
ATOM     27 CL   UNL     1       7.743  -5.248  27.044  0.00  0.00    -0.117 Cl
ENDBRANCH  24  26
ENDBRANCH  17  24
BRANCH  21  28
ATOM     28  O   UNL     1       5.000   0.874  26.448  0.00  0.00    -0.389 OA
ATOM     29  H   UNL     1       4.169   0.358  26.344  0.00  0.00    +0.210 HD
ENDBRANCH  21  28
BRANCH  17  30
ATOM     30  O   UNL     1       8.998  -1.658  24.342  0.00  0.00    -0.449 OA
BRANCH  30  31
ATOM     31  C   UNL     1      10.118  -1.577  23.586  0.00  0.00    +0.308 C 
ATOM     32  O   UNL     1      10.755  -2.550  23.232  0.00  0.00    -0.251 OA
BRANCH  31  33
ATOM     33  C   UNL     1      10.512  -0.130  23.389  0.00  0.00    +0.117 C 
ATOM     34  C   UNL     1      10.916   0.525  24.700  0.00  0.00    +0.015 C 
ENDBRANCH  31  33
ENDBRANCH  30  31
ENDBRANCH  17  30
TORSDOF 6
ENDMDL
MODEL 4
REMARK VINA RESULT:      -6.8      2.013      3.920
REMARK  Name = 
REMARK  10 active torsions:
REMARK  status: ('A' for Active; 'I' for Inactive)
REMARK    1  A    between atoms: C_8  and  C_10
REMARK    2  A    between atoms: C_11  and  O_12
REMARK    3  A    between atoms: C_11  and  C_17
REMARK    4  A    between atoms: O_12  and  C_13
REMARK    5  A    between atoms: C_13  and  C_15
REMARK    6  A    between atoms: C_15  and  C_16
REMARK    7  A    between atoms: C_17  and  C_19
REMARK    8  A    between atoms: C_21  and  C_22
REMARK    9  A    between atoms: C_24  and  O_25
REMARK   10  A    between atoms: C_28  and  C_29
REMARK                            x       y       z     vdW  Elec       q    Type
REMARK                         _______ _______ _______ _____ _____    ______ ____
ROOT
ATOM      1  C   UNL     1       7.452   0.433  22.503  0.00  0.00    +0.194 C 
ATOM      2  F   UNL     1       8.448  -0.441  22.194  0.00  0.00    -0.241 F 
ATOM      3  C   UNL     1       7.891   1.405  23.555  0.00  0.00    -0.020 C 
ATOM      4  C   UNL     1       8.134   0.857  24.987  0.00  0.00    +0.047 C 
ATOM      5  C   UNL     1       7.727   1.929  26.019  0.00  0.00    +0.023 C 
ATOM      6  C   UNL     1       9.678   0.807  25.169  0.00  0.00    -0.009 C 
ATOM      7  C   UNL     1      10.563   1.325  24.293  0.00  0.00    +0.047 C 
ATOM      8  C   UNL     1      10.058   1.955  23.042  0.00  0.00    +0.179 C 
ATOM      9  O   UNL     1      10.772   2.110  22.045  0.00  0.00    -0.288 OA
ATOM     10  C   UNL     1       7.445  -0.565  25.303  0.00  0.00    +0.153 C 
ATOM     11  F   UNL     1       8.511  -1.400  25.622  0.00  0.00    -0.238 F 
ATOM     12  C   UNL     1       6.716  -1.295  24.125  0.00  0.00    +0.037 C 
ATOM     13  C   UNL     1       5.442  -2.178  24.540  0.00  0.00    +0.006 C 
ATOM     14  C   UNL     1       5.570  -3.087  25.921  0.00  0.00    +0.021 C 
ATOM     15  C   UNL     1       4.416  -3.447  26.915  0.00  0.00    +0.016 C 
ATOM     16  C   UNL     1       6.463  -2.241  26.870  0.00  0.00    +0.045 C 
ATOM     17  C   UNL     1       5.904  -4.428  25.196  0.00  0.00    +0.180 C 
ATOM     18  C   UNL     1       4.779  -4.371  24.025  0.00  0.00    +0.038 C 
ATOM     19  C   UNL     1       3.263  -4.116  24.359  0.00  0.00    +0.012 C 
ATOM     20  C   UNL     1       5.191  -3.114  23.332  0.00  0.00    +0.012 C 
ATOM     21  C   UNL     1       6.421  -0.737  26.458  0.00  0.00    +0.154 C 
ATOM     22  C   UNL     1       8.636   2.440  23.107  0.00  0.00    +0.054 C 
ATOM     23  C   UNL     1       6.270  -0.348  23.009  0.00  0.00    +0.048 C 
ENDROOT
BRANCH  17  24
ATOM     24  C   UNL     1       5.827  -5.831  25.861  0.00  0.00    +0.192 C 
ATOM     25  O   UNL     1       6.444  -6.072  26.904  0.00  0.00    -0.292 OA
BRANCH  24  26
ATOM     26  C   UNL     1       4.878  -6.842  25.252  0.00  0.00    +0.187 C 
ATOM     27 CL   UNL     1       3.493  -7.132  26.321  0.00  0.00    -0.117 Cl
ENDBRANCH  24  26
ENDBRANCH  17  24
BRANCH  21  28
ATOM     28  O   UNL     1       6.462   0.078  27.612  0.00  0.00    -0.389 OA
ATOM     29  H   UNL     1       7.219  -0.264  28.139  0.00  0.00    +0.210 HD
ENDBRANCH  21  28
BRANCH  17  30
ATOM     30  O   UNL     1       7.285  -4.181  24.781  0.00  0.00    -0.449 OA
BRANCH  30  31
ATOM     31  C   UNL     1       8.048  -5.090  24.127  0.00  0.00    +0.308 C 
ATOM     32  O   UNL     1       7.692  -5.648  23.108  0.00  0.00    -0.251 OA
BRANCH  31  33
ATOM     33  C   UNL     1       9.299  -5.391  24.924  0.00  0.00    +0.117 C 
ATOM     34  C   UNL     1       9.318  -4.636  26.243  0.00  0.00    +0.015 C 
ENDBRANCH  31  33
ENDBRANCH  30  31
ENDBRANCH  17  30
TORSDOF 6
ENDMDL
MODEL 5
REMARK VINA RESULT:      -6.8      2.543      4.821
REMARK  Name = 
REMARK  10 active torsions:
REMARK  status: ('A' for Active; 'I' for Inactive)
REMARK    1  A    between atoms: C_8  and  C_10
REMARK    2  A    between atoms: C_11  and  O_12
REMARK    3  A    between atoms: C_11  and  C_17
REMARK    4  A    between atoms: O_12  and  C_13
REMARK    5  A    between atoms: C_13  and  C_15
REMARK    6  A    between atoms: C_15  and  C_16
REMARK    7  A    between atoms: C_17  and  C_19
REMARK    8  A    between atoms: C_21  and  C_22
REMARK    9  A    between atoms: C_24  and  O_25
REMARK   10  A    between atoms: C_28  and  C_29
REMARK                            x       y       z     vdW  Elec       q    Type
REMARK                         _______ _______ _______ _____ _____    ______ ____
ROOT
ATOM      1  C   UNL     1       7.752  -3.148  22.593  0.00  0.00    +0.194 C 
ATOM      2  F   UNL     1       8.654  -3.733  23.427  0.00  0.00    -0.241 F 
ATOM      3  C   UNL     1       7.896  -1.656  22.600  0.00  0.00    -0.020 C 
ATOM      4  C   UNL     1       7.498  -0.899  23.895  0.00  0.00    +0.047 C 
ATOM      5  C   UNL     1       6.890   0.468  23.520  0.00  0.00    +0.023 C 
ATOM      6  C   UNL     1       8.834  -0.481  24.573  0.00  0.00    -0.009 C 
ATOM      7  C   UNL     1      10.049  -0.615  24.004  0.00  0.00    +0.047 C 
ATOM      8  C   UNL     1      10.151  -1.240  22.656  0.00  0.00    +0.179 C 
ATOM      9  O   UNL     1      11.203  -1.731  22.233  0.00  0.00    -0.288 OA
ATOM     10  C   UNL     1       6.543  -1.719  24.902  0.00  0.00    +0.153 C 
ATOM     11  F   UNL     1       7.277  -1.800  26.081  0.00  0.00    -0.238 F 
ATOM     12  C   UNL     1       6.217  -3.207  24.542  0.00  0.00    +0.037 C 
ATOM     13  C   UNL     1       4.767  -3.727  24.993  0.00  0.00    +0.006 C 
ATOM     14  C   UNL     1       4.232  -3.263  26.492  0.00  0.00    +0.021 C 
ATOM     15  C   UNL     1       2.748  -2.995  26.915  0.00  0.00    +0.016 C 
ATOM     16  C   UNL     1       4.811  -1.836  26.695  0.00  0.00    +0.045 C 
ATOM     17  C   UNL     1       4.618  -4.591  27.216  0.00  0.00    +0.180 C 
ATOM     18  C   UNL     1       4.040  -5.650  26.128  0.00  0.00    +0.038 C 
ATOM     19  C   UNL     1       2.564  -5.550  25.592  0.00  0.00    +0.012 C 
ATOM     20  C   UNL     1       4.859  -5.272  24.938  0.00  0.00    +0.012 C 
ATOM     21  C   UNL     1       5.146  -1.185  25.318  0.00  0.00    +0.154 C 
ATOM     22  C   UNL     1       8.896  -1.171  21.831  0.00  0.00    +0.054 C 
ATOM     23  C   UNL     1       6.367  -3.516  23.050  0.00  0.00    +0.048 C 
ENDROOT
BRANCH  17  24
ATOM     24  C   UNL     1       4.094  -5.014  28.616  0.00  0.00    +0.192 C 
ATOM     25  O   UNL     1       3.528  -6.100  28.780  0.00  0.00    -0.292 OA
BRANCH  24  26
ATOM     26  C   UNL     1       4.410  -4.104  29.785  0.00  0.00    +0.187 C 
ATOM     27 CL   UNL     1       2.925  -3.434  30.484  0.00  0.00    -0.117 Cl
ENDBRANCH  24  26
ENDBRANCH  17  24
BRANCH  21  28
ATOM     28  O   UNL     1       4.864   0.200  25.361  0.00  0.00    -0.389 OA
ATOM     29  H   UNL     1       4.881   0.435  26.316  0.00  0.00    +0.210 HD
ENDBRANCH  21  28
BRANCH  17  30
ATOM     30  O   UNL     1       6.073  -4.457  27.280  0.00  0.00    -0.449 OA
BRANCH  30  31
ATOM     31  C   UNL     1       6.916  -5.498  27.475  0.00  0.00    +0.308 C 
ATOM     32  O   UNL     1       6.875  -6.215  28.456  0.00  0.00    -0.251 OA
BRANCH  31  33
ATOM     33  C   UNL     1       7.969  -5.528  26.388  0.00  0.00    +0.117 C 
ATOM     34  C   UNL     1       9.006  -4.434  26.583  0.00  0.00    +0.015 C 
ENDBRANCH  31  33
ENDBRANCH  30  31
ENDBRANCH  17  30
TORSDOF 6
ENDMDL
MODEL 6
REMARK VINA RESULT:      -6.5      2.936      6.783
REMARK  Name = 
REMARK  10 active torsions:
REMARK  status: ('A' for Active; 'I' for Inactive)
REMARK    1  A    between atoms: C_8  and  C_10
REMARK    2  A    between atoms: C_11  and  O_12
REMARK    3  A    between atoms: C_11  and  C_17
REMARK    4  A    between atoms: O_12  and  C_13
REMARK    5  A    between atoms: C_13  and  C_15
REMARK    6  A    between atoms: C_15  and  C_16
REMARK    7  A    between atoms: C_17  and  C_19
REMARK    8  A    between atoms: C_21  and  C_22
REMARK    9  A    between atoms: C_24  and  O_25
REMARK   10  A    between atoms: C_28  and  C_29
REMARK                            x       y       z     vdW  Elec       q    Type
REMARK                         _______ _______ _______ _____ _____    ______ ____
ROOT
ATOM      1  C   UNL     1       6.132  -3.793  22.080  0.00  0.00    +0.194 C 
ATOM      2  F   UNL     1       5.016  -3.015  22.097  0.00  0.00    -0.241 F 
ATOM      3  C   UNL     1       6.140  -4.754  23.230  0.00  0.00    -0.020 C 
ATOM      4  C   UNL     1       6.319  -4.170  24.656  0.00  0.00    +0.047 C 
ATOM      5  C   UNL     1       7.128  -5.164  25.516  0.00  0.00    +0.023 C 
ATOM      6  C   UNL     1       4.916  -4.236  25.325  0.00  0.00    -0.009 C 
ATOM      7  C   UNL     1       3.847  -4.857  24.787  0.00  0.00    +0.047 C 
ATOM      8  C   UNL     1       3.980  -5.495  23.447  0.00  0.00    +0.179 C 
ATOM      9  O   UNL     1       3.002  -5.747  22.736  0.00  0.00    -0.288 OA
ATOM     10  C   UNL     1       6.945  -2.686  24.716  0.00  0.00    +0.153 C 
ATOM     11  F   UNL     1       5.966  -1.926  25.350  0.00  0.00    -0.238 F 
ATOM     12  C   UNL     1       7.191  -1.948  23.357  0.00  0.00    +0.037 C 
ATOM     13  C   UNL     1       8.448  -0.951  23.328  0.00  0.00    +0.006 C 
ATOM     14  C   UNL     1       8.688   0.000  24.666  0.00  0.00    +0.021 C 
ATOM     15  C   UNL     1      10.063   0.491  25.231  0.00  0.00    +0.016 C 
ATOM     16  C   UNL     1       8.223  -0.876  25.862  0.00  0.00    +0.045 C 
ATOM     17  C   UNL     1       8.023   1.280  24.070  0.00  0.00    +0.180 C 
ATOM     18  C   UNL     1       8.715   1.265  22.601  0.00  0.00    +0.038 C 
ATOM     19  C   UNL     1      10.275   1.146  22.432  0.00  0.00    +0.012 C 
ATOM     20  C   UNL     1       8.217  -0.048  22.092  0.00  0.00    +0.012 C 
ATOM     21  C   UNL     1       8.264  -2.386  25.478  0.00  0.00    +0.154 C 
ATOM     22  C   UNL     1       5.385  -5.862  23.058  0.00  0.00    +0.054 C 
ATOM     23  C   UNL     1       7.340  -2.901  22.169  0.00  0.00    +0.048 C 
ENDROOT
BRANCH  17  24
ATOM     24  C   UNL     1       8.184   2.710  24.657  0.00  0.00    +0.192 C 
ATOM     25  O   UNL     1       8.611   3.637  23.961  0.00  0.00    -0.292 OA
BRANCH  24  26
ATOM     26  C   UNL     1       7.685   2.946  26.068  0.00  0.00    +0.187 C 
ATOM     27 CL   UNL     1       6.891   4.526  26.201  0.00  0.00    -0.117 Cl
ENDBRANCH  24  26
ENDBRANCH  17  24
BRANCH  21  28
ATOM     28  O   UNL     1       8.666  -3.155  26.594  0.00  0.00    -0.389 OA
ATOM     29  H   UNL     1       9.058  -3.973  26.213  0.00  0.00    +0.210 HD
ENDBRANCH  21  28
BRANCH  17  30
ATOM     30  O   UNL     1       6.609   0.908  24.124  0.00  0.00    -0.449 OA
BRANCH  30  31
ATOM     31  C   UNL     1       5.593   1.792  23.988  0.00  0.00    +0.308 C 
ATOM     32  O   UNL     1       4.694   1.904  24.798  0.00  0.00    -0.251 OA
BRANCH  31  33
ATOM     33  C   UNL     1       5.678   2.482  22.644  0.00  0.00    +0.117 C 
ATOM     34  C   UNL     1       5.225   3.931  22.728  0.00  0.00    +0.015 C 
ENDBRANCH  31  33
ENDBRANCH  30  31
ENDBRANCH  17  30
TORSDOF 6
ENDMDL
MODEL 7
REMARK VINA RESULT:      -6.4      3.098      6.851
REMARK  Name = 
REMARK  10 active torsions:
REMARK  status: ('A' for Active; 'I' for Inactive)
REMARK    1  A    between atoms: C_8  and  C_10
REMARK    2  A    between atoms: C_11  and  O_12
REMARK    3  A    between atoms: C_11  and  C_17
REMARK    4  A    between atoms: O_12  and  C_13
REMARK    5  A    between atoms: C_13  and  C_15
REMARK    6  A    between atoms: C_15  and  C_16
REMARK    7  A    between atoms: C_17  and  C_19
REMARK    8  A    between atoms: C_21  and  C_22
REMARK    9  A    between atoms: C_24  and  O_25
REMARK   10  A    between atoms: C_28  and  C_29
REMARK                            x       y       z     vdW  Elec       q    Type
REMARK                         _______ _______ _______ _____ _____    ______ ____
ROOT
ATOM      1  C   UNL     1       5.373  -3.352  24.251  0.00  0.00    +0.194 C 
ATOM      2  F   UNL     1       4.987  -2.691  25.377  0.00  0.00    -0.241 F 
ATOM      3  C   UNL     1       6.369  -4.426  24.568  0.00  0.00    -0.020 C 
ATOM      4  C   UNL     1       7.780  -3.985  25.041  0.00  0.00    +0.047 C 
ATOM      5  C   UNL     1       8.830  -4.983  24.510  0.00  0.00    +0.023 C 
ATOM      6  C   UNL     1       7.823  -4.258  26.572  0.00  0.00    -0.009 C 
ATOM      7  C   UNL     1       6.864  -4.918  27.252  0.00  0.00    +0.047 C 
ATOM      8  C   UNL     1       5.655  -5.392  26.522  0.00  0.00    +0.179 C 
ATOM      9  O   UNL     1       4.597  -5.659  27.101  0.00  0.00    -0.288 OA
ATOM     10  C   UNL     1       8.176  -2.462  24.690  0.00  0.00    +0.153 C 
ATOM     11  F   UNL     1       8.408  -1.874  25.930  0.00  0.00    -0.238 F 
ATOM     12  C   UNL     1       7.078  -1.561  24.031  0.00  0.00    +0.037 C 
ATOM     13  C   UNL     1       7.617  -0.449  23.007  0.00  0.00    +0.006 C 
ATOM     14  C   UNL     1       8.993   0.370  23.438  0.00  0.00    +0.021 C 
ATOM     15  C   UNL     1      10.092   0.928  22.473  0.00  0.00    +0.016 C 
ATOM     16  C   UNL     1       9.846  -0.671  24.214  0.00  0.00    +0.045 C 
ATOM     17  C   UNL     1       8.259   1.636  23.979  0.00  0.00    +0.180 C 
ATOM     18  C   UNL     1       7.194   1.848  22.771  0.00  0.00    +0.038 C 
ATOM     19  C   UNL     1       7.658   1.899  21.270  0.00  0.00    +0.012 C 
ATOM     20  C   UNL     1       6.450   0.555  22.853  0.00  0.00    +0.012 C 
ATOM     21  C   UNL     1       9.420  -2.120  23.827  0.00  0.00    +0.154 C 
ATOM     22  C   UNL     1       5.842  -5.577  25.042  0.00  0.00    +0.054 C 
ATOM     23  C   UNL     1       5.994  -2.361  23.304  0.00  0.00    +0.048 C 
ENDROOT
BRANCH  17  24
ATOM     24  C   UNL     1       8.947   3.003  24.252  0.00  0.00    +0.192 C 
ATOM     25  O   UNL     1      10.136   3.060  24.578  0.00  0.00    -0.292 OA
BRANCH  24  26
ATOM     26  C   UNL     1       8.140   4.257  23.984  0.00  0.00    +0.187 C 
ATOM     27 CL   UNL     1       9.193   5.587  23.470  0.00  0.00    -0.117 Cl
ENDBRANCH  24  26
ENDBRANCH  17  24
BRANCH  21  28
ATOM     28  O   UNL     1      10.555  -2.962  23.797  0.00  0.00    -0.389 OA
ATOM     29  H   UNL     1      11.327  -2.353  23.842  0.00  0.00    +0.210 HD
ENDBRANCH  21  28
BRANCH  17  30
ATOM     30  O   UNL     1       7.717   1.125  25.239  0.00  0.00    -0.449 OA
BRANCH  30  31
ATOM     31  C   UNL     1       6.981   1.868  26.098  0.00  0.00    +0.308 C 
ATOM     32  O   UNL     1       7.463   2.498  27.018  0.00  0.00    -0.251 OA
BRANCH  31  33
ATOM     33  C   UNL     1       5.505   1.672  25.824  0.00  0.00    +0.117 C 
ATOM     34  C   UNL     1       4.982   0.394  26.459  0.00  0.00    +0.015 C 
ENDBRANCH  31  33
ENDBRANCH  30  31
ENDBRANCH  17  30
TORSDOF 6
ENDMDL
MODEL 8
REMARK VINA RESULT:      -6.4      3.263      6.986
REMARK  Name = 
REMARK  10 active torsions:
REMARK  status: ('A' for Active; 'I' for Inactive)
REMARK    1  A    between atoms: C_8  and  C_10
REMARK    2  A    between atoms: C_11  and  O_12
REMARK    3  A    between atoms: C_11  and  C_17
REMARK    4  A    between atoms: O_12  and  C_13
REMARK    5  A    between atoms: C_13  and  C_15
REMARK    6  A    between atoms: C_15  and  C_16
REMARK    7  A    between atoms: C_17  and  C_19
REMARK    8  A    between atoms: C_21  and  C_22
REMARK    9  A    between atoms: C_24  and  O_25
REMARK   10  A    between atoms: C_28  and  C_29
REMARK                            x       y       z     vdW  Elec       q    Type
REMARK                         _______ _______ _______ _____ _____    ______ ____
ROOT
ATOM      1  C   UNL     1       3.328  -4.156  24.760  0.00  0.00    +0.194 C 
ATOM      2  F   UNL     1       2.997  -2.967  25.335  0.00  0.00    -0.241 F 
ATOM      3  C   UNL     1       3.530  -5.221  25.795  0.00  0.00    -0.020 C 
ATOM      4  C   UNL     1       4.764  -5.094  26.728  0.00  0.00    +0.047 C 
ATOM      5  C   UNL     1       5.299  -6.503  27.057  0.00  0.00    +0.023 C 
ATOM      6  C   UNL     1       4.212  -4.630  28.107  0.00  0.00    -0.009 C 
ATOM      7  C   UNL     1       2.901  -4.554  28.413  0.00  0.00    +0.047 C 
ATOM      8  C   UNL     1       1.894  -4.890  27.368  0.00  0.00    +0.179 C 
ATOM      9  O   UNL     1       0.722  -4.503  27.432  0.00  0.00    -0.288 OA
ATOM     10  C   UNL     1       5.933  -4.124  26.191  0.00  0.00    +0.153 C 
ATOM     11  F   UNL     1       6.043  -3.143  27.171  0.00  0.00    -0.238 F 
ATOM     12  C   UNL     1       5.664  -3.327  24.870  0.00  0.00    +0.037 C 
ATOM     13  C   UNL     1       6.952  -3.053  23.952  0.00  0.00    +0.006 C 
ATOM     14  C   UNL     1       8.353  -2.622  24.727  0.00  0.00    +0.021 C 
ATOM     15  C   UNL     1       9.814  -2.959  24.276  0.00  0.00    +0.016 C 
ATOM     16  C   UNL     1       8.318  -3.402  26.070  0.00  0.00    +0.045 C 
ATOM     17  C   UNL     1       8.205  -1.088  24.478  0.00  0.00    +0.180 C 
ATOM     18  C   UNL     1       7.790  -1.124  22.908  0.00  0.00    +0.038 C 
ATOM     19  C   UNL     1       8.643  -1.923  21.855  0.00  0.00    +0.012 C 
ATOM     20  C   UNL     1       6.526  -1.915  22.992  0.00  0.00    +0.012 C 
ATOM     21  C   UNL     1       7.378  -4.640  25.955  0.00  0.00    +0.154 C 
ATOM     22  C   UNL     1       2.397  -5.784  26.269  0.00  0.00    +0.054 C 
ATOM     23  C   UNL     1       4.600  -3.973  23.979  0.00  0.00    +0.048 C 
ENDROOT
BRANCH  17  24
ATOM     24  C   UNL     1       9.354  -0.055  24.643  0.00  0.00    +0.192 C 
ATOM     25  O   UNL     1      10.127  -0.115  25.605  0.00  0.00    -0.292 OA
BRANCH  24  26
ATOM     26  C   UNL     1       9.561   0.944  23.524  0.00  0.00    +0.187 C 
ATOM     27 CL   UNL     1       9.614   2.600  24.157  0.00  0.00    -0.117 Cl
ENDBRANCH  24  26
ENDBRANCH  17  24
BRANCH  21  28
ATOM     28  O   UNL     1       7.911  -5.718  26.699  0.00  0.00    -0.389 OA
ATOM     29  H   UNL     1       7.780  -5.467  27.641  0.00  0.00    +0.210 HD
ENDBRANCH  21  28
BRANCH  17  30
ATOM     30  O   UNL     1       7.138  -0.757  25.423  0.00  0.00    -0.449 OA
BRANCH  30  31
ATOM     31  C   UNL     1       6.757   0.509  25.714  0.00  0.00    +0.308 C 
ATOM     32  O   UNL     1       7.251   1.164  26.610  0.00  0.00    -0.251 OA
BRANCH  31  33
ATOM     33  C   UNL     1       5.563   0.902  24.871  0.00  0.00    +0.117 C 
ATOM     34  C   UNL     1       5.923   1.972  23.853  0.00  0.00    +0.015 C 
ENDBRANCH  31  33
ENDBRANCH  30  31
ENDBRANCH  17  30
TORSDOF 6
ENDMDL
MODEL 9
REMARK VINA RESULT:      -6.4      2.201      4.036
REMARK  Name = 
REMARK  10 active torsions:
REMARK  status: ('A' for Active; 'I' for Inactive)
REMARK    1  A    between atoms: C_8  and  C_10
REMARK    2  A    between atoms: C_11  and  O_12
REMARK    3  A    between atoms: C_11  and  C_17
REMARK    4  A    between atoms: O_12  and  C_13
REMARK    5  A    between atoms: C_13  and  C_15
REMARK    6  A    between atoms: C_15  and  C_16
REMARK    7  A    between atoms: C_17  and  C_19
REMARK    8  A    between atoms: C_21  and  C_22
REMARK    9  A    between atoms: C_24  and  O_25
REMARK   10  A    between atoms: C_28  and  C_29
REMARK                            x       y       z     vdW  Elec       q    Type
REMARK                         _______ _______ _______ _____ _____    ______ ____
ROOT
ATOM      1  C   UNL     1       9.360  -1.645  22.800  0.00  0.00    +0.194 C 
ATOM      2  F   UNL     1      10.063  -2.273  23.782  0.00  0.00    -0.241 F 
ATOM      3  C   UNL     1       9.072  -0.220  23.166  0.00  0.00    -0.020 C 
ATOM      4  C   UNL     1       8.076   0.038  24.329  0.00  0.00    +0.047 C 
ATOM      5  C   UNL     1       7.270   1.319  24.033  0.00  0.00    +0.023 C 
ATOM      6  C   UNL     1       8.942   0.477  25.544  0.00  0.00    -0.009 C 
ATOM      7  C   UNL     1      10.263   0.739  25.480  0.00  0.00    +0.047 C 
ATOM      8  C   UNL     1      10.972   0.567  24.181  0.00  0.00    +0.179 C 
ATOM      9  O   UNL     1      12.197   0.422  24.112  0.00  0.00    -0.288 OA
ATOM     10  C   UNL     1       7.112  -1.201  24.694  0.00  0.00    +0.153 C 
ATOM     11  F   UNL     1       7.410  -1.488  26.022  0.00  0.00    -0.238 F 
ATOM     12  C   UNL     1       7.351  -2.552  23.940  0.00  0.00    +0.037 C 
ATOM     13  C   UNL     1       6.039  -3.438  23.673  0.00  0.00    +0.006 C 
ATOM     14  C   UNL     1       4.934  -3.539  24.905  0.00  0.00    +0.021 C 
ATOM     15  C   UNL     1       3.381  -3.684  24.760  0.00  0.00    +0.016 C 
ATOM     16  C   UNL     1       4.993  -2.153  25.604  0.00  0.00    +0.045 C 
ATOM     17  C   UNL     1       5.414  -4.927  25.434  0.00  0.00    +0.180 C 
ATOM     18  C   UNL     1       5.546  -5.708  24.016  0.00  0.00    +0.038 C 
ATOM     19  C   UNL     1       4.363  -5.728  22.980  0.00  0.00    +0.012 C 
ATOM     20  C   UNL     1       6.571  -4.855  23.344  0.00  0.00    +0.012 C 
ATOM     21  C   UNL     1       5.565  -1.078  24.631  0.00  0.00    +0.154 C 
ATOM     22  C   UNL     1      10.092   0.643  22.965  0.00  0.00    +0.054 C 
ATOM     23  C   UNL     1       8.063  -2.378  22.596  0.00  0.00    +0.048 C 
ENDROOT
BRANCH  17  24
ATOM     24  C   UNL     1       4.599  -5.830  26.401  0.00  0.00    +0.192 C 
ATOM     25  O   UNL     1       4.141  -5.378  27.456  0.00  0.00    -0.292 OA
BRANCH  24  26
ATOM     26  C   UNL     1       4.288  -7.240  25.944  0.00  0.00    +0.187 C 
ATOM     27 CL   UNL     1       2.552  -7.436  25.640  0.00  0.00    -0.117 Cl
ENDBRANCH  24  26
ENDBRANCH  17  24
BRANCH  21  28
ATOM     28  O   UNL     1       4.911   0.158  24.842  0.00  0.00    -0.389 OA
ATOM     29  H   UNL     1       5.202   0.731  24.097  0.00  0.00    +0.210 HD
ENDBRANCH  21  28
BRANCH  17  30
ATOM     30  O   UNL     1       6.669  -4.553  26.087  0.00  0.00    -0.449 OA
BRANCH  30  31
ATOM     31  C   UNL     1       7.505  -5.442  26.674  0.00  0.00    +0.308 C 
ATOM     32  O   UNL     1       7.347  -5.860  27.804  0.00  0.00    -0.251 OA
BRANCH  31  33
ATOM     33  C   UNL     1       8.699  -5.703  25.782  0.00  0.00    +0.117 C 
ATOM     34  C   UNL     1       9.751  -4.614  25.920  0.00  0.00    +0.015 C 
ENDBRANCH  31  33
ENDBRANCH  30  31
ENDBRANCH  17  30
TORSDOF 6
ENDMDL
