MODEL 1
REMARK VINA RESULT:      -7.5      0.000      0.000
REMARK  Name = 
REMARK  9 active torsions:
REMARK  status: ('A' for Active; 'I' for Inactive)
REMARK    1  A    between atoms: C_4  and  C_5
REMARK    2  A    between atoms: C_4  and  C_6
REMARK    3  A    between atoms: CA_7  and  C_30
REMARK    4  A    between atoms: CA_12  and  N_14
REMARK    5  A    between atoms: C_15  and  C_17
REMARK    6  A    between atoms: C_18  and  O_19
REMARK    7  A    between atoms: O_19  and  C_20
REMARK    8  A    between atoms: C_20  and  C_21
REMARK    9  A    between atoms: C_30  and  O_31
REMARK                            x       y       z     vdW  Elec       q    Type
REMARK                         _______ _______ _______ _____ _____    ______ ____
ROOT
ATOM      1  N   UNL     1       8.348  -3.048  24.587  0.00  0.00    -0.298 N 
ATOM      2  H   UNL     1       7.439  -2.637  24.396  0.00  0.00    +0.150 HD
ATOM      3  C   UNL     1       8.385  -4.424  24.673  0.00  0.00    +0.249 C 
ATOM      4  O   UNL     1       9.433  -5.050  24.753  0.00  0.00    -0.270 OA
ENDROOT
BRANCH   1   6
ATOM      5  C   UNL     1       9.684  -1.280  23.290  0.00  0.00    +0.165 C 
ATOM      6  CA  UNL     1       9.557  -2.179  24.555  0.00  0.00    +0.190 C 
ATOM      7  C   UNL     1       9.579  -0.817  25.326  0.00  0.00    +0.240 C 
ATOM      8  O   UNL     1       9.413  -0.368  26.432  0.00  0.00    -0.273 OA
ATOM      9  N   UNL     1       9.802  -0.104  24.171  0.00  0.00    -0.271 N 
ATOM     10  CA  UNL     1       8.932   1.046  23.873  0.00  0.00    +0.201 C 
ATOM     11  C   UNL     1       7.640   0.493  23.225  0.00  0.00    +0.042 C 
ATOM     12  C   UNL     1       6.620   0.031  24.284  0.00  0.00    +0.025 C 
ATOM     13  C   UNL     1       6.903   1.460  22.293  0.00  0.00    +0.025 C 
ATOM     14  S   UNL     1       8.175  -1.008  22.280  0.00  0.00    -0.127 S 
BRANCH  10  15
ATOM     15  C   UNL     1       9.749   2.040  23.023  0.00  0.00    +0.327 C 
ATOM     16  OXT UNL     1      10.242   1.785  21.933  0.00  0.00    -0.249 OA
BRANCH  15  17
ATOM     17  O   UNL     1       9.802   3.288  23.552  0.00  0.00    -0.479 OA
ATOM     18  H   UNL     1       8.893   3.642  23.646  0.00  0.00    +0.295 HD
ENDBRANCH  15  17
ENDBRANCH  10  15
ENDBRANCH   1   6
BRANCH   3  19
ATOM     19  C   UNL     1       7.061  -5.132  24.664  0.00  0.00    +0.086 A 
ATOM     20  C   UNL     1       6.481  -5.580  25.898  0.00  0.00    -0.002 A 
ATOM     21  C   UNL     1       5.290  -6.345  25.836  0.00  0.00    -0.017 A 
ATOM     22  C   UNL     1       4.707  -6.868  27.004  0.00  0.00    +0.008 A 
ATOM     23  C   UNL     1       5.272  -6.638  28.253  0.00  0.00    +0.001 A 
ATOM     24  C   UNL     1       6.409  -5.850  28.353  0.00  0.00    +0.001 A 
ATOM     25  C   UNL     1       4.681  -6.596  24.604  0.00  0.00    +0.012 A 
ATOM     26  C   UNL     1       5.240  -6.131  23.415  0.00  0.00    +0.047 A 
ATOM     27  C   UNL     1       6.998  -5.324  27.198  0.00  0.00    +0.009 A 
ATOM     28  C   UNL     1       6.436  -5.417  23.426  0.00  0.00    +0.133 A 
BRANCH  28  29
ATOM     29  O   UNL     1       7.057  -4.976  22.282  0.00  0.00    -0.491 OA
BRANCH  29  30
ATOM     30  C   UNL     1       6.253  -4.330  21.293  0.00  0.00    +0.226 C 
ATOM     31  C   UNL     1       5.566  -3.143  21.943  0.00  0.00    +0.048 C 
ENDBRANCH  29  30
ENDBRANCH  28  29
ENDBRANCH   3  19
TORSDOF 6
ENDMDL
MODEL 2
REMARK VINA RESULT:      -7.4      1.727      3.277
REMARK  Name = 
REMARK  9 active torsions:
REMARK  status: ('A' for Active; 'I' for Inactive)
REMARK    1  A    between atoms: C_4  and  C_5
REMARK    2  A    between atoms: C_4  and  C_6
REMARK    3  A    between atoms: CA_7  and  C_30
REMARK    4  A    between atoms: CA_12  and  N_14
REMARK    5  A    between atoms: C_15  and  C_17
REMARK    6  A    between atoms: C_18  and  O_19
REMARK    7  A    between atoms: O_19  and  C_20
REMARK    8  A    between atoms: C_20  and  C_21
REMARK    9  A    between atoms: C_30  and  O_31
REMARK                            x       y       z     vdW  Elec       q    Type
REMARK                         _______ _______ _______ _____ _____    ______ ____
ROOT
ATOM      1  N   UNL     1       7.323  -2.864  23.410  0.00  0.00    -0.298 N 
ATOM      2  H   UNL     1       6.819  -2.280  24.070  0.00  0.00    +0.150 HD
ATOM      3  C   UNL     1       7.089  -4.220  23.499  0.00  0.00    +0.249 C 
ATOM      4  O   UNL     1       7.517  -5.016  22.675  0.00  0.00    -0.270 OA
ENDROOT
BRANCH   1   6
ATOM      5  C   UNL     1       7.854  -0.684  22.162  0.00  0.00    +0.165 C 
ATOM      6  CA  UNL     1       8.086  -2.217  22.308  0.00  0.00    +0.190 C 
ATOM      7  C   UNL     1       9.583  -1.807  22.508  0.00  0.00    +0.240 C 
ATOM      8  O   UNL     1      10.645  -2.280  22.826  0.00  0.00    -0.273 OA
ATOM      9  N   UNL     1       9.311  -0.482  22.258  0.00  0.00    -0.271 N 
ATOM     10  CA  UNL     1       9.786   0.529  23.218  0.00  0.00    +0.201 C 
ATOM     11  C   UNL     1       8.758   0.587  24.374  0.00  0.00    +0.042 C 
ATOM     12  C   UNL     1       9.025  -0.502  25.432  0.00  0.00    +0.025 C 
ATOM     13  C   UNL     1       8.682   1.921  25.123  0.00  0.00    +0.025 C 
ATOM     14  S   UNL     1       7.123   0.208  23.590  0.00  0.00    -0.127 S 
BRANCH  10  15
ATOM     15  C   UNL     1      10.009   1.841  22.439  0.00  0.00    +0.327 C 
ATOM     16  OXT UNL     1      10.760   2.740  22.788  0.00  0.00    -0.249 OA
BRANCH  15  17
ATOM     17  O   UNL     1       9.358   1.881  21.250  0.00  0.00    -0.479 OA
ATOM     18  H   UNL     1       9.933   2.300  20.576  0.00  0.00    +0.295 HD
ENDBRANCH  15  17
ENDBRANCH  10  15
ENDBRANCH   1   6
BRANCH   3  19
ATOM     19  C   UNL     1       6.273  -4.684  24.671  0.00  0.00    +0.086 A 
ATOM     20  C   UNL     1       4.987  -5.284  24.455  0.00  0.00    -0.002 A 
ATOM     21  C   UNL     1       4.201  -5.601  25.591  0.00  0.00    -0.017 A 
ATOM     22  C   UNL     1       2.906  -6.131  25.447  0.00  0.00    +0.008 A 
ATOM     23  C   UNL     1       2.366  -6.374  24.189  0.00  0.00    +0.001 A 
ATOM     24  C   UNL     1       3.130  -6.122  23.059  0.00  0.00    +0.001 A 
ATOM     25  C   UNL     1       4.704  -5.382  26.876  0.00  0.00    +0.012 A 
ATOM     26  C   UNL     1       5.966  -4.825  27.072  0.00  0.00    +0.047 A 
ATOM     27  C   UNL     1       4.420  -5.596  23.189  0.00  0.00    +0.009 A 
ATOM     28  C   UNL     1       6.752  -4.453  25.983  0.00  0.00    +0.133 A 
BRANCH  28  29
ATOM     29  O   UNL     1       7.984  -3.855  26.116  0.00  0.00    -0.491 OA
BRANCH  29  30
ATOM     30  C   UNL     1       9.061  -4.652  26.611  0.00  0.00    +0.226 C 
ATOM     31  C   UNL     1       9.929  -5.060  25.435  0.00  0.00    +0.048 C 
ENDBRANCH  29  30
ENDBRANCH  28  29
ENDBRANCH   3  19
TORSDOF 6
ENDMDL
MODEL 3
REMARK VINA RESULT:      -7.1      2.892      8.417
REMARK  Name = 
REMARK  9 active torsions:
REMARK  status: ('A' for Active; 'I' for Inactive)
REMARK    1  A    between atoms: C_4  and  C_5
REMARK    2  A    between atoms: C_4  and  C_6
REMARK    3  A    between atoms: CA_7  and  C_30
REMARK    4  A    between atoms: CA_12  and  N_14
REMARK    5  A    between atoms: C_15  and  C_17
REMARK    6  A    between atoms: C_18  and  O_19
REMARK    7  A    between atoms: O_19  and  C_20
REMARK    8  A    between atoms: C_20  and  C_21
REMARK    9  A    between atoms: C_30  and  O_31
REMARK                            x       y       z     vdW  Elec       q    Type
REMARK                         _______ _______ _______ _____ _____    ______ ____
ROOT
ATOM      1  N   UNL     1       9.969   1.208  23.661  0.00  0.00    -0.298 N 
ATOM      2  H   UNL     1       9.791   1.491  24.620  0.00  0.00    +0.150 HD
ATOM      3  C   UNL     1       9.853   2.197  22.706  0.00  0.00    +0.249 C 
ATOM      4  O   UNL     1      10.180   2.026  21.540  0.00  0.00    -0.270 OA
ENDROOT
BRANCH   1   6
ATOM      5  C   UNL     1      10.152  -1.223  24.463  0.00  0.00    +0.165 C 
ATOM      6  CA  UNL     1      10.520  -0.149  23.397  0.00  0.00    +0.190 C 
ATOM      7  C   UNL     1       9.801  -1.122  22.405  0.00  0.00    +0.240 C 
ATOM      8  O   UNL     1       9.412  -1.173  21.265  0.00  0.00    -0.273 OA
ATOM      9  N   UNL     1       9.612  -2.070  23.384  0.00  0.00    -0.271 N 
ATOM     10  CA  UNL     1       8.262  -2.625  23.579  0.00  0.00    +0.201 C 
ATOM     11  C   UNL     1       7.476  -1.627  24.462  0.00  0.00    +0.042 C 
ATOM     12  C   UNL     1       6.857  -0.488  23.628  0.00  0.00    +0.025 C 
ATOM     13  C   UNL     1       6.340  -2.233  25.293  0.00  0.00    +0.025 C 
ATOM     14  S   UNL     1       8.741  -0.868  25.582  0.00  0.00    -0.127 S 
BRANCH  10  15
ATOM     15  C   UNL     1       8.423  -4.052  24.140  0.00  0.00    +0.327 C 
ATOM     16  OXT UNL     1       7.575  -4.930  24.067  0.00  0.00    -0.249 OA
BRANCH  15  17
ATOM     17  O   UNL     1       9.654  -4.295  24.656  0.00  0.00    -0.479 OA
ATOM     18  H   UNL     1       9.563  -4.758  25.515  0.00  0.00    +0.295 HD
ENDBRANCH  15  17
ENDBRANCH  10  15
ENDBRANCH   1   6
BRANCH   3  19
ATOM     19  C   UNL     1       9.299   3.514  23.168  0.00  0.00    +0.086 A 
ATOM     20  C   UNL     1       7.891   3.774  23.061  0.00  0.00    -0.002 A 
ATOM     21  C   UNL     1       7.425   5.069  23.399  0.00  0.00    -0.017 A 
ATOM     22  C   UNL     1       6.068   5.408  23.255  0.00  0.00    +0.008 A 
ATOM     23  C   UNL     1       5.142   4.480  22.793  0.00  0.00    +0.001 A 
ATOM     24  C   UNL     1       5.557   3.189  22.502  0.00  0.00    +0.001 A 
ATOM     25  C   UNL     1       8.318   6.033  23.876  0.00  0.00    +0.012 A 
ATOM     26  C   UNL     1       9.678   5.759  24.001  0.00  0.00    +0.047 A 
ATOM     27  C   UNL     1       6.905   2.840  22.642  0.00  0.00    +0.009 A 
ATOM     28  C   UNL     1      10.186   4.514  23.634  0.00  0.00    +0.133 A 
BRANCH  28  29
ATOM     29  O   UNL     1      11.524   4.203  23.691  0.00  0.00    -0.491 OA
BRANCH  29  30
ATOM     30  C   UNL     1      12.460   5.281  23.666  0.00  0.00    +0.226 C 
ATOM     31  C   UNL     1      12.994   5.413  22.252  0.00  0.00    +0.048 C 
ENDBRANCH  29  30
ENDBRANCH  28  29
ENDBRANCH   3  19
TORSDOF 6
ENDMDL
MODEL 4
REMARK VINA RESULT:      -7.1      1.832      3.480
REMARK  Name = 
REMARK  9 active torsions:
REMARK  status: ('A' for Active; 'I' for Inactive)
REMARK    1  A    between atoms: C_4  and  C_5
REMARK    2  A    between atoms: C_4  and  C_6
REMARK    3  A    between atoms: CA_7  and  C_30
REMARK    4  A    between atoms: CA_12  and  N_14
REMARK    5  A    between atoms: C_15  and  C_17
REMARK    6  A    between atoms: C_18  and  O_19
REMARK    7  A    between atoms: O_19  and  C_20
REMARK    8  A    between atoms: C_20  and  C_21
REMARK    9  A    between atoms: C_30  and  O_31
REMARK                            x       y       z     vdW  Elec       q    Type
REMARK                         _______ _______ _______ _____ _____    ______ ____
ROOT
ATOM      1  N   UNL     1       7.353  -2.247  26.077  0.00  0.00    -0.298 N 
ATOM      2  H   UNL     1       6.517  -2.105  25.518  0.00  0.00    +0.150 HD
ATOM      3  C   UNL     1       7.748  -3.557  26.253  0.00  0.00    +0.249 C 
ATOM      4  O   UNL     1       8.810  -3.858  26.779  0.00  0.00    -0.270 OA
ENDROOT
BRANCH   1   6
ATOM      5  C   UNL     1       9.390  -0.776  25.552  0.00  0.00    +0.165 C 
ATOM      6  CA  UNL     1       8.169  -1.067  26.472  0.00  0.00    +0.190 C 
ATOM      7  C   UNL     1       7.726   0.379  26.068  0.00  0.00    +0.240 C 
ATOM      8  O   UNL     1       6.786   1.128  26.162  0.00  0.00    -0.273 OA
ATOM      9  N   UNL     1       8.887   0.596  25.363  0.00  0.00    -0.271 N 
ATOM     10  CA  UNL     1       8.791   1.091  23.979  0.00  0.00    +0.201 C 
ATOM     11  C   UNL     1       8.524  -0.132  23.069  0.00  0.00    +0.042 C 
ATOM     12  C   UNL     1       7.026  -0.491  23.016  0.00  0.00    +0.025 C 
ATOM     13  C   UNL     1       8.997   0.010  21.619  0.00  0.00    +0.025 C 
ATOM     14  S   UNL     1       9.404  -1.544  23.884  0.00  0.00    -0.127 S 
BRANCH  10  15
ATOM     15  C   UNL     1      10.072   1.895  23.683  0.00  0.00    +0.327 C 
ATOM     16  OXT UNL     1      11.193   1.586  24.059  0.00  0.00    -0.249 OA
BRANCH  15  17
ATOM     17  O   UNL     1       9.866   2.958  22.865  0.00  0.00    -0.479 OA
ATOM     18  H   UNL     1       9.385   3.659  23.353  0.00  0.00    +0.295 HD
ENDBRANCH  15  17
ENDBRANCH  10  15
ENDBRANCH   1   6
BRANCH   3  19
ATOM     19  C   UNL     1       6.800  -4.615  25.765  0.00  0.00    +0.086 A 
ATOM     20  C   UNL     1       6.700  -4.893  24.361  0.00  0.00    -0.002 A 
ATOM     21  C   UNL     1       5.712  -5.814  23.933  0.00  0.00    -0.017 A 
ATOM     22  C   UNL     1       5.519  -6.081  22.566  0.00  0.00    +0.008 A 
ATOM     23  C   UNL     1       6.301  -5.463  21.596  0.00  0.00    +0.001 A 
ATOM     24  C   UNL     1       7.310  -4.595  21.986  0.00  0.00    +0.001 A 
ATOM     25  C   UNL     1       4.907  -6.466  24.871  0.00  0.00    +0.012 A 
ATOM     26  C   UNL     1       5.034  -6.208  26.234  0.00  0.00    +0.047 A 
ATOM     27  C   UNL     1       7.512  -4.322  23.343  0.00  0.00    +0.009 A 
ATOM     28  C   UNL     1       5.959  -5.273  26.695  0.00  0.00    +0.133 A 
BRANCH  28  29
ATOM     29  O   UNL     1       6.095  -4.943  28.023  0.00  0.00    -0.491 OA
BRANCH  29  30
ATOM     30  C   UNL     1       4.917  -4.574  28.741  0.00  0.00    +0.226 C 
ATOM     31  C   UNL     1       4.490  -3.194  28.275  0.00  0.00    +0.048 C 
ENDBRANCH  29  30
ENDBRANCH  28  29
ENDBRANCH   3  19
TORSDOF 6
ENDMDL
MODEL 5
REMARK VINA RESULT:      -6.8      2.599      8.077
REMARK  Name = 
REMARK  9 active torsions:
REMARK  status: ('A' for Active; 'I' for Inactive)
REMARK    1  A    between atoms: C_4  and  C_5
REMARK    2  A    between atoms: C_4  and  C_6
REMARK    3  A    between atoms: CA_7  and  C_30
REMARK    4  A    between atoms: CA_12  and  N_14
REMARK    5  A    between atoms: C_15  and  C_17
REMARK    6  A    between atoms: C_18  and  O_19
REMARK    7  A    between atoms: O_19  and  C_20
REMARK    8  A    between atoms: C_20  and  C_21
REMARK    9  A    between atoms: C_30  and  O_31
REMARK                            x       y       z     vdW  Elec       q    Type
REMARK                         _______ _______ _______ _____ _____    ______ ____
ROOT
ATOM      1  N   UNL     1       9.529   0.292  24.470  0.00  0.00    -0.298 N 
ATOM      2  H   UNL     1       9.192   0.637  25.364  0.00  0.00    +0.150 HD
ATOM      3  C   UNL     1       9.653   1.229  23.466  0.00  0.00    +0.249 C 
ATOM      4  O   UNL     1      10.181   0.976  22.392  0.00  0.00    -0.270 OA
ENDROOT
BRANCH   1   6
ATOM      5  C   UNL     1       9.144  -2.173  25.076  0.00  0.00    +0.165 C 
ATOM      6  CA  UNL     1      10.036  -1.105  24.379  0.00  0.00    +0.190 C 
ATOM      7  C   UNL     1       9.781  -1.964  23.096  0.00  0.00    +0.240 C 
ATOM      8  O   UNL     1       9.953  -1.934  21.904  0.00  0.00    -0.273 OA
ATOM      9  N   UNL     1       9.096  -2.922  23.807  0.00  0.00    -0.271 N 
ATOM     10  CA  UNL     1       7.769  -3.344  23.328  0.00  0.00    +0.201 C 
ATOM     11  C   UNL     1       6.743  -2.302  23.834  0.00  0.00    +0.042 C 
ATOM     12  C   UNL     1       6.660  -1.078  22.902  0.00  0.00    +0.025 C 
ATOM     13  C   UNL     1       5.311  -2.820  24.012  0.00  0.00    +0.025 C 
ATOM     14  S   UNL     1       7.408  -1.716  25.461  0.00  0.00    -0.127 S 
BRANCH  10  15
ATOM     15  C   UNL     1       7.549  -4.798  23.788  0.00  0.00    +0.327 C 
ATOM     16  OXT UNL     1       7.651  -5.189  24.942  0.00  0.00    -0.249 OA
BRANCH  15  17
ATOM     17  O   UNL     1       7.127  -5.621  22.795  0.00  0.00    -0.479 OA
ATOM     18  H   UNL     1       6.400  -6.187  23.126  0.00  0.00    +0.295 HD
ENDBRANCH  15  17
ENDBRANCH  10  15
ENDBRANCH   1   6
BRANCH   3  19
ATOM     19  C   UNL     1       9.102   2.596  23.753  0.00  0.00    +0.086 A 
ATOM     20  C   UNL     1       9.974   3.736  23.741  0.00  0.00    -0.002 A 
ATOM     21  C   UNL     1       9.438   4.989  24.130  0.00  0.00    -0.017 A 
ATOM     22  C   UNL     1      10.255   6.132  24.202  0.00  0.00    +0.008 A 
ATOM     23  C   UNL     1      11.605   6.070  23.878  0.00  0.00    +0.001 A 
ATOM     24  C   UNL     1      12.149   4.870  23.444  0.00  0.00    +0.001 A 
ATOM     25  C   UNL     1       8.085   5.102  24.457  0.00  0.00    +0.012 A 
ATOM     26  C   UNL     1       7.242   3.992  24.438  0.00  0.00    +0.047 A 
ATOM     27  C   UNL     1      11.346   3.726  23.368  0.00  0.00    +0.009 A 
ATOM     28  C   UNL     1       7.738   2.732  24.108  0.00  0.00    +0.133 A 
BRANCH  28  29
ATOM     29  O   UNL     1       6.966   1.595  24.118  0.00  0.00    -0.491 OA
BRANCH  29  30
ATOM     30  C   UNL     1       5.573   1.739  24.403  0.00  0.00    +0.226 C 
ATOM     31  C   UNL     1       5.339   1.327  25.845  0.00  0.00    +0.048 C 
ENDBRANCH  29  30
ENDBRANCH  28  29
ENDBRANCH   3  19
TORSDOF 6
ENDMDL
MODEL 6
REMARK VINA RESULT:      -6.8      2.342      7.131
REMARK  Name = 
REMARK  9 active torsions:
REMARK  status: ('A' for Active; 'I' for Inactive)
REMARK    1  A    between atoms: C_4  and  C_5
REMARK    2  A    between atoms: C_4  and  C_6
REMARK    3  A    between atoms: CA_7  and  C_30
REMARK    4  A    between atoms: CA_12  and  N_14
REMARK    5  A    between atoms: C_15  and  C_17
REMARK    6  A    between atoms: C_18  and  O_19
REMARK    7  A    between atoms: O_19  and  C_20
REMARK    8  A    between atoms: C_20  and  C_21
REMARK    9  A    between atoms: C_30  and  O_31
REMARK                            x       y       z     vdW  Elec       q    Type
REMARK                         _______ _______ _______ _____ _____    ______ ____
ROOT
ATOM      1  N   UNL     1       8.405  -2.228  25.256  0.00  0.00    -0.298 N 
ATOM      2  H   UNL     1       8.071  -2.069  24.310  0.00  0.00    +0.150 HD
ATOM      3  C   UNL     1       8.787  -1.105  25.960  0.00  0.00    +0.249 C 
ATOM      4  O   UNL     1       9.069  -1.140  27.150  0.00  0.00    -0.270 OA
ENDROOT
BRANCH   1   6
ATOM      5  C   UNL     1       6.805  -4.009  26.182  0.00  0.00    +0.165 C 
ATOM      6  CA  UNL     1       8.266  -3.584  25.854  0.00  0.00    +0.190 C 
ATOM      7  C   UNL     1       8.261  -4.859  24.947  0.00  0.00    +0.240 C 
ATOM      8  O   UNL     1       8.930  -5.411  24.109  0.00  0.00    -0.273 OA
ATOM      9  N   UNL     1       7.006  -5.225  25.373  0.00  0.00    -0.271 N 
ATOM     10  CA  UNL     1       5.980  -5.535  24.364  0.00  0.00    +0.201 C 
ATOM     11  C   UNL     1       5.375  -4.191  23.892  0.00  0.00    +0.042 C 
ATOM     12  C   UNL     1       6.226  -3.536  22.786  0.00  0.00    +0.025 C 
ATOM     13  C   UNL     1       3.939  -4.263  23.360  0.00  0.00    +0.025 C 
ATOM     14  S   UNL     1       5.443  -3.081  25.373  0.00  0.00    -0.127 S 
BRANCH  10  15
ATOM     15  C   UNL     1       4.996  -6.541  24.993  0.00  0.00    +0.327 C 
ATOM     16  OXT UNL     1       4.557  -6.469  26.132  0.00  0.00    -0.249 OA
BRANCH  15  17
ATOM     17  O   UNL     1       4.568  -7.493  24.127  0.00  0.00    -0.479 OA
ATOM     18  H   UNL     1       5.257  -7.653  23.449  0.00  0.00    +0.295 HD
ENDBRANCH  15  17
ENDBRANCH  10  15
ENDBRANCH   1   6
BRANCH   3  19
ATOM     19  C   UNL     1       8.843   0.183  25.189  0.00  0.00    +0.086 A 
ATOM     20  C   UNL     1       7.998   1.280  25.567  0.00  0.00    -0.002 A 
ATOM     21  C   UNL     1       7.998   2.434  24.744  0.00  0.00    -0.017 A 
ATOM     22  C   UNL     1       7.146   3.518  25.022  0.00  0.00    +0.008 A 
ATOM     23  C   UNL     1       6.292   3.496  26.119  0.00  0.00    +0.001 A 
ATOM     24  C   UNL     1       6.306   2.403  26.972  0.00  0.00    +0.001 A 
ATOM     25  C   UNL     1       8.845   2.505  23.635  0.00  0.00    +0.012 A 
ATOM     26  C   UNL     1       9.681   1.443  23.296  0.00  0.00    +0.047 A 
ATOM     27  C   UNL     1       7.149   1.319  26.706  0.00  0.00    +0.009 A 
ATOM     28  C   UNL     1       9.677   0.270  24.049  0.00  0.00    +0.133 A 
BRANCH  28  29
ATOM     29  O   UNL     1      10.445  -0.826  23.734  0.00  0.00    -0.491 OA
BRANCH  29  30
ATOM     30  C   UNL     1      10.554  -1.190  22.357  0.00  0.00    +0.226 C 
ATOM     31  C   UNL     1       9.175  -1.584  21.861  0.00  0.00    +0.048 C 
ENDBRANCH  29  30
ENDBRANCH  28  29
ENDBRANCH   3  19
TORSDOF 6
ENDMDL
MODEL 7
REMARK VINA RESULT:      -6.8      2.701      4.016
REMARK  Name = 
REMARK  9 active torsions:
REMARK  status: ('A' for Active; 'I' for Inactive)
REMARK    1  A    between atoms: C_4  and  C_5
REMARK    2  A    between atoms: C_4  and  C_6
REMARK    3  A    between atoms: CA_7  and  C_30
REMARK    4  A    between atoms: CA_12  and  N_14
REMARK    5  A    between atoms: C_15  and  C_17
REMARK    6  A    between atoms: C_18  and  O_19
REMARK    7  A    between atoms: O_19  and  C_20
REMARK    8  A    between atoms: C_20  and  C_21
REMARK    9  A    between atoms: C_30  and  O_31
REMARK                            x       y       z     vdW  Elec       q    Type
REMARK                         _______ _______ _______ _____ _____    ______ ____
ROOT
ATOM      1  N   UNL     1       6.105  -0.186  24.030  0.00  0.00    -0.298 N 
ATOM      2  H   UNL     1       6.429  -0.364  23.084  0.00  0.00    +0.150 HD
ATOM      3  C   UNL     1       6.064  -1.278  24.871  0.00  0.00    +0.249 C 
ATOM      4  O   UNL     1       5.832  -1.176  26.068  0.00  0.00    -0.270 OA
ENDROOT
BRANCH   1   6
ATOM      5  C   UNL     1       7.192   1.943  24.965  0.00  0.00    +0.165 C 
ATOM      6  CA  UNL     1       5.904   1.221  24.473  0.00  0.00    +0.190 C 
ATOM      7  C   UNL     1       5.846   2.386  23.429  0.00  0.00    +0.240 C 
ATOM      8  O   UNL     1       5.246   2.722  22.439  0.00  0.00    -0.273 OA
ATOM      9  N   UNL     1       6.928   3.019  23.994  0.00  0.00    -0.271 N 
ATOM     10  CA  UNL     1       8.043   3.424  23.121  0.00  0.00    +0.201 C 
ATOM     11  C   UNL     1       8.941   2.181  22.913  0.00  0.00    +0.042 C 
ATOM     12  C   UNL     1       8.418   1.278  21.778  0.00  0.00    +0.025 C 
ATOM     13  C   UNL     1      10.412   2.475  22.601  0.00  0.00    +0.025 C 
ATOM     14  S   UNL     1       8.811   1.219  24.491  0.00  0.00    -0.127 S 
BRANCH  10  15
ATOM     15  C   UNL     1       8.717   4.651  23.767  0.00  0.00    +0.327 C 
ATOM     16  OXT UNL     1       9.025   4.739  24.946  0.00  0.00    -0.249 OA
BRANCH  15  17
ATOM     17  O   UNL     1       9.038   5.623  22.875  0.00  0.00    -0.479 OA
ATOM     18  H   UNL     1       9.176   5.223  21.991  0.00  0.00    +0.295 HD
ENDBRANCH  15  17
ENDBRANCH  10  15
ENDBRANCH   1   6
BRANCH   3  19
ATOM     19  C   UNL     1       6.317  -2.618  24.244  0.00  0.00    +0.086 A 
ATOM     20  C   UNL     1       5.266  -3.594  24.191  0.00  0.00    -0.002 A 
ATOM     21  C   UNL     1       5.579  -4.885  23.697  0.00  0.00    -0.017 A 
ATOM     22  C   UNL     1       4.611  -5.905  23.679  0.00  0.00    +0.008 A 
ATOM     23  C   UNL     1       3.316  -5.673  24.130  0.00  0.00    +0.001 A 
ATOM     24  C   UNL     1       2.964  -4.406  24.572  0.00  0.00    +0.001 A 
ATOM     25  C   UNL     1       6.865  -5.162  23.226  0.00  0.00    +0.012 A 
ATOM     26  C   UNL     1       7.870  -4.197  23.257  0.00  0.00    +0.047 A 
ATOM     27  C   UNL     1       3.919  -3.383  24.594  0.00  0.00    +0.009 A 
ATOM     28  C   UNL     1       7.618  -2.930  23.780  0.00  0.00    +0.133 A 
BRANCH  28  29
ATOM     29  O   UNL     1       8.582  -1.955  23.879  0.00  0.00    -0.491 OA
BRANCH  29  30
ATOM     30  C   UNL     1       9.942  -2.338  23.671  0.00  0.00    +0.226 C 
ATOM     31  C   UNL     1      10.479  -1.555  22.487  0.00  0.00    +0.048 C 
ENDBRANCH  29  30
ENDBRANCH  28  29
ENDBRANCH   3  19
TORSDOF 6
ENDMDL
MODEL 8
REMARK VINA RESULT:      -6.7      2.543      7.612
REMARK  Name = 
REMARK  9 active torsions:
REMARK  status: ('A' for Active; 'I' for Inactive)
REMARK    1  A    between atoms: C_4  and  C_5
REMARK    2  A    between atoms: C_4  and  C_6
REMARK    3  A    between atoms: CA_7  and  C_30
REMARK    4  A    between atoms: CA_12  and  N_14
REMARK    5  A    between atoms: C_15  and  C_17
REMARK    6  A    between atoms: C_18  and  O_19
REMARK    7  A    between atoms: O_19  and  C_20
REMARK    8  A    between atoms: C_20  and  C_21
REMARK    9  A    between atoms: C_30  and  O_31
REMARK                            x       y       z     vdW  Elec       q    Type
REMARK                         _______ _______ _______ _____ _____    ______ ____
ROOT
ATOM      1  N   UNL     1       7.380  -2.008  25.052  0.00  0.00    -0.298 N 
ATOM      2  H   UNL     1       7.008  -1.887  24.114  0.00  0.00    +0.150 HD
ATOM      3  C   UNL     1       7.518  -0.857  25.801  0.00  0.00    +0.249 C 
ATOM      4  O   UNL     1       7.815  -0.878  26.987  0.00  0.00    -0.270 OA
ENDROOT
BRANCH   1   6
ATOM      5  C   UNL     1       6.223  -4.071  26.048  0.00  0.00    +0.165 C 
ATOM      6  CA  UNL     1       7.544  -3.384  25.594  0.00  0.00    +0.190 C 
ATOM      7  C   UNL     1       7.660  -4.612  24.630  0.00  0.00    +0.240 C 
ATOM      8  O   UNL     1       8.319  -5.010  23.702  0.00  0.00    -0.273 OA
ATOM      9  N   UNL     1       6.541  -5.207  25.163  0.00  0.00    -0.271 N 
ATOM     10  CA  UNL     1       5.480  -5.663  24.250  0.00  0.00    +0.201 C 
ATOM     11  C   UNL     1       4.604  -4.434  23.909  0.00  0.00    +0.042 C 
ATOM     12  C   UNL     1       5.203  -3.605  22.755  0.00  0.00    +0.025 C 
ATOM     13  C   UNL     1       3.154  -4.743  23.524  0.00  0.00    +0.025 C 
ATOM     14  S   UNL     1       4.641  -3.375  25.428  0.00  0.00    -0.127 S 
BRANCH  10  15
ATOM     15  C   UNL     1       4.760  -6.846  24.927  0.00  0.00    +0.327 C 
ATOM     16  OXT UNL     1       4.580  -6.958  26.131  0.00  0.00    -0.249 OA
BRANCH  15  17
ATOM     17  O   UNL     1       4.241  -7.739  24.046  0.00  0.00    -0.479 OA
ATOM     18  H   UNL     1       3.549  -7.303  23.508  0.00  0.00    +0.295 HD
ENDBRANCH  15  17
ENDBRANCH  10  15
ENDBRANCH   1   6
BRANCH   3  19
ATOM     19  C   UNL     1       7.287   0.442  25.084  0.00  0.00    +0.086 A 
ATOM     20  C   UNL     1       8.401   1.169  24.544  0.00  0.00    -0.002 A 
ATOM     21  C   UNL     1       8.153   2.444  23.978  0.00  0.00    -0.017 A 
ATOM     22  C   UNL     1       9.208   3.235  23.491  0.00  0.00    +0.008 A 
ATOM     23  C   UNL     1      10.523   2.783  23.534  0.00  0.00    +0.001 A 
ATOM     24  C   UNL     1      10.793   1.518  24.035  0.00  0.00    +0.001 A 
ATOM     25  C   UNL     1       6.848   2.937  23.906  0.00  0.00    +0.012 A 
ATOM     26  C   UNL     1       5.771   2.209  24.409  0.00  0.00    +0.047 A 
ATOM     27  C   UNL     1       9.750   0.722  24.522  0.00  0.00    +0.009 A 
ATOM     28  C   UNL     1       5.976   0.972  25.017  0.00  0.00    +0.133 A 
BRANCH  28  29
ATOM     29  O   UNL     1       4.960   0.231  25.573  0.00  0.00    -0.491 OA
BRANCH  29  30
ATOM     30  C   UNL     1       4.370   0.712  26.782  0.00  0.00    +0.226 C 
ATOM     31  C   UNL     1       3.325  -0.293  27.231  0.00  0.00    +0.048 C 
ENDBRANCH  29  30
ENDBRANCH  28  29
ENDBRANCH   3  19
TORSDOF 6
ENDMDL
MODEL 9
REMARK VINA RESULT:      -6.7      2.640      3.717
REMARK  Name = 
REMARK  9 active torsions:
REMARK  status: ('A' for Active; 'I' for Inactive)
REMARK    1  A    between atoms: C_4  and  C_5
REMARK    2  A    between atoms: C_4  and  C_6
REMARK    3  A    between atoms: CA_7  and  C_30
REMARK    4  A    between atoms: CA_12  and  N_14
REMARK    5  A    between atoms: C_15  and  C_17
REMARK    6  A    between atoms: C_18  and  O_19
REMARK    7  A    between atoms: O_19  and  C_20
REMARK    8  A    between atoms: C_20  and  C_21
REMARK    9  A    between atoms: C_30  and  O_31
REMARK                            x       y       z     vdW  Elec       q    Type
REMARK                         _______ _______ _______ _____ _____    ______ ____
ROOT
ATOM      1  N   UNL     1       8.433  -1.097  23.268  0.00  0.00    -0.298 N 
ATOM      2  H   UNL     1       7.639  -0.890  22.670  0.00  0.00    +0.150 HD
ATOM      3  C   UNL     1       8.294  -2.187  24.103  0.00  0.00    +0.249 C 
ATOM      4  O   UNL     1       9.223  -2.629  24.765  0.00  0.00    -0.270 OA
ENDROOT
BRANCH   1   6
ATOM      5  C   UNL     1       9.560   1.029  22.375  0.00  0.00    +0.165 C 
ATOM      6  CA  UNL     1       9.710  -0.362  23.057  0.00  0.00    +0.190 C 
ATOM      7  C   UNL     1      10.360   0.459  24.220  0.00  0.00    +0.240 C 
ATOM      8  O   UNL     1      10.746   0.326  25.354  0.00  0.00    -0.273 OA
ATOM      9  N   UNL     1      10.290   1.632  23.504  0.00  0.00    -0.271 N 
ATOM     10  CA  UNL     1       9.684   2.813  24.141  0.00  0.00    +0.201 C 
ATOM     11  C   UNL     1       8.149   2.684  23.986  0.00  0.00    +0.042 C 
ATOM     12  C   UNL     1       7.533   1.805  25.092  0.00  0.00    +0.025 C 
ATOM     13  C   UNL     1       7.373   4.005  23.987  0.00  0.00    +0.025 C 
ATOM     14  S   UNL     1       7.896   1.805  22.375  0.00  0.00    -0.127 S 
BRANCH  10  15
ATOM     15  C   UNL     1      10.330   4.064  23.513  0.00  0.00    +0.327 C 
ATOM     16  OXT UNL     1      10.074   5.216  23.832  0.00  0.00    -0.249 OA
BRANCH  15  17
ATOM     17  O   UNL     1      11.305   3.775  22.615  0.00  0.00    -0.479 OA
ATOM     18  H   UNL     1      10.900   3.432  21.791  0.00  0.00    +0.295 HD
ENDBRANCH  15  17
ENDBRANCH  10  15
ENDBRANCH   1   6
BRANCH   3  19
ATOM     19  C   UNL     1       6.932  -2.814  24.166  0.00  0.00    +0.086 A 
ATOM     20  C   UNL     1       6.625  -3.941  23.331  0.00  0.00    -0.002 A 
ATOM     21  C   UNL     1       5.294  -4.430  23.335  0.00  0.00    -0.017 A 
ATOM     22  C   UNL     1       4.912  -5.489  22.493  0.00  0.00    +0.008 A 
ATOM     23  C   UNL     1       5.831  -6.098  21.644  0.00  0.00    +0.001 A 
ATOM     24  C   UNL     1       7.152  -5.677  21.654  0.00  0.00    +0.001 A 
ATOM     25  C   UNL     1       4.339  -3.855  24.177  0.00  0.00    +0.012 A 
ATOM     26  C   UNL     1       4.657  -2.779  25.003  0.00  0.00    +0.047 A 
ATOM     27  C   UNL     1       7.544  -4.624  22.488  0.00  0.00    +0.009 A 
ATOM     28  C   UNL     1       5.941  -2.236  24.994  0.00  0.00    +0.133 A 
BRANCH  28  29
ATOM     29  O   UNL     1       6.299  -1.146  25.751  0.00  0.00    -0.491 OA
BRANCH  29  30
ATOM     30  C   UNL     1       5.872  -1.112  27.114  0.00  0.00    +0.226 C 
ATOM     31  C   UNL     1       5.073   0.160  27.329  0.00  0.00    +0.048 C 
ENDBRANCH  29  30
ENDBRANCH  28  29
ENDBRANCH   3  19
TORSDOF 6
ENDMDL
