MODEL 1
REMARK VINA RESULT:      -5.8      0.000      0.000
REMARK  Name = 
REMARK  11 active torsions:
REMARK  status: ('A' for Active; 'I' for Inactive)
REMARK    1  A    between atoms: C_1  and  C_2
REMARK    2  A    between atoms: C_2  and  N_4
REMARK    3  A    between atoms: C_2  and  C_18
REMARK    4  A    between atoms: C_5  and  C_7
REMARK    5  A    between atoms: C_7  and  C_9
REMARK    6  A    between atoms: C_7  and  N_10
REMARK    7  A    between atoms: C_11  and  O_13
REMARK    8  A    between atoms: O_13  and  C_14
REMARK    9  A    between atoms: C_14  and  C_15
REMARK   10  A    between atoms: C_14  and  C_16
REMARK   11  A    between atoms: C_14  and  C_17
REMARK                            x       y       z     vdW  Elec       q    Type
REMARK                         _______ _______ _______ _____ _____    ______ ____
ROOT
ATOM      1  N   UNL     1       9.435  -0.690  23.621  0.00  0.00    -0.303 N 
ATOM      2  H   UNL     1       8.888  -0.166  24.302  0.00  0.00    +0.149 HD
ATOM      3  C   UNL     1       9.738  -2.009  23.889  0.00  0.00    +0.234 C 
ATOM      4  O   UNL     1      10.554  -2.653  23.234  0.00  0.00    -0.274 OA
ENDROOT
BRANCH   1   6
ATOM      5  C   UNL     1       9.139  -0.109  21.246  0.00  0.00    +0.038 C 
ATOM      6  C   UNL     1      10.011   0.043  22.487  0.00  0.00    +0.156 C 
BRANCH   6   7
ATOM      7  C   UNL     1      10.211   1.535  22.821  0.00  0.00    +0.231 C 
ATOM      8  O   UNL     1      10.275   1.984  23.962  0.00  0.00    -0.274 OA
ATOM      9  N   UNL     1      10.172   2.387  21.754  0.00  0.00    -0.328 N 
ATOM     10  H   UNL     1      10.274   3.378  21.926  0.00  0.00    +0.145 HD
ATOM     11  H   UNL     1      10.127   2.039  20.807  0.00  0.00    +0.145 HD
ENDBRANCH   6   7
ENDBRANCH   1   6
BRANCH   3  12
ATOM     12  C   UNL     1       9.052  -2.573  25.153  0.00  0.00    +0.159 C 
ATOM     13  C   UNL     1       8.687  -1.459  26.124  0.00  0.00    +0.038 C 
BRANCH  12  14
ATOM     14  N   UNL     1       7.869  -3.333  24.767  0.00  0.00    -0.270 N 
ATOM     15  H   UNL     1       6.997  -2.863  24.567  0.00  0.00    +0.153 HD
ATOM     16  C   UNL     1       7.969  -4.648  24.428  0.00  0.00    +0.401 C 
ATOM     17  O   UNL     1       9.038  -5.247  24.420  0.00  0.00    -0.226 OA
BRANCH  16  18
ATOM     18  O   UNL     1       6.762  -5.152  24.079  0.00  0.00    -0.445 OA
BRANCH  18  19
ATOM     19  C   UNL     1       6.336  -5.074  22.689  0.00  0.00    +0.107 C 
ATOM     20  C   UNL     1       6.660  -3.700  22.089  0.00  0.00    +0.055 C 
ATOM     21  C   UNL     1       4.805  -5.238  22.690  0.00  0.00    +0.055 C 
ATOM     22  C   UNL     1       6.931  -6.224  21.864  0.00  0.00    +0.055 C 
ENDBRANCH  18  19
ENDBRANCH  16  18
ENDBRANCH  12  14
ENDBRANCH   3  12
TORSDOF 6
ENDMDL
MODEL 2
REMARK VINA RESULT:      -5.8      2.422      6.760
REMARK  Name = 
REMARK  11 active torsions:
REMARK  status: ('A' for Active; 'I' for Inactive)
REMARK    1  A    between atoms: C_1  and  C_2
REMARK    2  A    between atoms: C_2  and  N_4
REMARK    3  A    between atoms: C_2  and  C_18
REMARK    4  A    between atoms: C_5  and  C_7
REMARK    5  A    between atoms: C_7  and  C_9
REMARK    6  A    between atoms: C_7  and  N_10
REMARK    7  A    between atoms: C_11  and  O_13
REMARK    8  A    between atoms: O_13  and  C_14
REMARK    9  A    between atoms: C_14  and  C_15
REMARK   10  A    between atoms: C_14  and  C_16
REMARK   11  A    between atoms: C_14  and  C_17
REMARK                            x       y       z     vdW  Elec       q    Type
REMARK                         _______ _______ _______ _____ _____    ______ ____
ROOT
ATOM      1  N   UNL     1       7.910  -3.533  25.008  0.00  0.00    -0.303 N 
ATOM      2  H   UNL     1       8.268  -3.913  24.133  0.00  0.00    +0.149 HD
ATOM      3  C   UNL     1       8.435  -2.345  25.477  0.00  0.00    +0.234 C 
ATOM      4  O   UNL     1       8.215  -1.920  26.609  0.00  0.00    -0.274 OA
ENDROOT
BRANCH   1   6
ATOM      5  C   UNL     1       5.982  -5.061  24.891  0.00  0.00    +0.038 C 
ATOM      6  C   UNL     1       6.991  -4.362  25.796  0.00  0.00    +0.156 C 
BRANCH   6   7
ATOM      7  C   UNL     1       7.752  -5.399  26.647  0.00  0.00    +0.231 C 
ATOM      8  O   UNL     1       7.428  -5.728  27.784  0.00  0.00    -0.274 OA
ATOM      9  N   UNL     1       8.927  -5.849  26.114  0.00  0.00    -0.328 N 
ATOM     10  H   UNL     1       9.474  -6.511  26.646  0.00  0.00    +0.145 HD
ATOM     11  H   UNL     1       9.209  -5.596  25.178  0.00  0.00    +0.145 HD
ENDBRANCH   6   7
ENDBRANCH   1   6
BRANCH   3  12
ATOM     12  C   UNL     1       9.412  -1.655  24.501  0.00  0.00    +0.159 C 
ATOM     13  C   UNL     1       9.393  -2.326  23.135  0.00  0.00    +0.038 C 
BRANCH  12  14
ATOM     14  N   UNL     1       9.071  -0.241  24.389  0.00  0.00    -0.270 N 
ATOM     15  H   UNL     1       8.108   0.051  24.299  0.00  0.00    +0.153 HD
ATOM     16  C   UNL     1      10.000   0.720  24.652  0.00  0.00    +0.401 C 
ATOM     17  O   UNL     1      11.145   0.453  24.997  0.00  0.00    -0.226 OA
BRANCH  16  18
ATOM     18  O   UNL     1       9.469   1.958  24.514  0.00  0.00    -0.445 OA
BRANCH  18  19
ATOM     19  C   UNL     1       9.730   2.709  23.295  0.00  0.00    +0.107 C 
ATOM     20  C   UNL     1      10.945   3.630  23.463  0.00  0.00    +0.055 C 
ATOM     21  C   UNL     1       8.496   3.599  23.056  0.00  0.00    +0.055 C 
ATOM     22  C   UNL     1       9.873   1.771  22.088  0.00  0.00    +0.055 C 
ENDBRANCH  18  19
ENDBRANCH  16  18
ENDBRANCH  12  14
ENDBRANCH   3  12
TORSDOF 6
ENDMDL
MODEL 3
REMARK VINA RESULT:      -5.7      2.092      6.366
REMARK  Name = 
REMARK  11 active torsions:
REMARK  status: ('A' for Active; 'I' for Inactive)
REMARK    1  A    between atoms: C_1  and  C_2
REMARK    2  A    between atoms: C_2  and  N_4
REMARK    3  A    between atoms: C_2  and  C_18
REMARK    4  A    between atoms: C_5  and  C_7
REMARK    5  A    between atoms: C_7  and  C_9
REMARK    6  A    between atoms: C_7  and  N_10
REMARK    7  A    between atoms: C_11  and  O_13
REMARK    8  A    between atoms: O_13  and  C_14
REMARK    9  A    between atoms: C_14  and  C_15
REMARK   10  A    between atoms: C_14  and  C_16
REMARK   11  A    between atoms: C_14  and  C_17
REMARK                            x       y       z     vdW  Elec       q    Type
REMARK                         _______ _______ _______ _____ _____    ______ ____
ROOT
ATOM      1  N   UNL     1       7.159  -3.346  24.903  0.00  0.00    -0.303 N 
ATOM      2  H   UNL     1       6.290  -3.209  24.390  0.00  0.00    +0.149 HD
ATOM      3  C   UNL     1       8.353  -3.279  24.214  0.00  0.00    +0.234 C 
ATOM      4  O   UNL     1       9.425  -3.629  24.701  0.00  0.00    -0.274 OA
ENDROOT
BRANCH   1   6
ATOM      5  C   UNL     1       5.786  -3.275  26.947  0.00  0.00    +0.038 C 
ATOM      6  C   UNL     1       7.073  -3.781  26.303  0.00  0.00    +0.156 C 
BRANCH   6   7
ATOM      7  C   UNL     1       7.165  -5.315  26.426  0.00  0.00    +0.231 C 
ATOM      8  O   UNL     1       6.197  -6.069  26.387  0.00  0.00    -0.274 OA
ATOM      9  N   UNL     1       8.402  -5.807  26.730  0.00  0.00    -0.328 N 
ATOM     10  H   UNL     1       8.507  -6.806  26.845  0.00  0.00    +0.145 HD
ATOM     11  H   UNL     1       9.213  -5.206  26.760  0.00  0.00    +0.145 HD
ENDBRANCH   6   7
ENDBRANCH   1   6
BRANCH   3  12
ATOM     12  C   UNL     1       8.211  -2.836  22.742  0.00  0.00    +0.159 C 
ATOM     13  C   UNL     1       6.830  -3.172  22.197  0.00  0.00    +0.038 C 
BRANCH  12  14
ATOM     14  N   UNL     1       8.477  -1.406  22.635  0.00  0.00    -0.270 N 
ATOM     15  H   UNL     1       7.785  -0.730  22.928  0.00  0.00    +0.153 HD
ATOM     16  C   UNL     1       9.735  -0.951  22.380  0.00  0.00    +0.401 C 
ATOM     17  O   UNL     1      10.692  -1.704  22.239  0.00  0.00    -0.226 OA
BRANCH  16  18
ATOM     18  O   UNL     1       9.765   0.402  22.349  0.00  0.00    -0.445 OA
BRANCH  18  19
ATOM     19  C   UNL     1       9.824   1.138  23.604  0.00  0.00    +0.107 C 
ATOM     20  C   UNL     1       8.417   1.440  24.134  0.00  0.00    +0.055 C 
ATOM     21  C   UNL     1      10.506   2.483  23.290  0.00  0.00    +0.055 C 
ATOM     22  C   UNL     1      10.690   0.401  24.635  0.00  0.00    +0.055 C 
ENDBRANCH  18  19
ENDBRANCH  16  18
ENDBRANCH  12  14
ENDBRANCH   3  12
TORSDOF 6
ENDMDL
MODEL 4
REMARK VINA RESULT:      -5.7      2.500      6.414
REMARK  Name = 
REMARK  11 active torsions:
REMARK  status: ('A' for Active; 'I' for Inactive)
REMARK    1  A    between atoms: C_1  and  C_2
REMARK    2  A    between atoms: C_2  and  N_4
REMARK    3  A    between atoms: C_2  and  C_18
REMARK    4  A    between atoms: C_5  and  C_7
REMARK    5  A    between atoms: C_7  and  C_9
REMARK    6  A    between atoms: C_7  and  N_10
REMARK    7  A    between atoms: C_11  and  O_13
REMARK    8  A    between atoms: O_13  and  C_14
REMARK    9  A    between atoms: C_14  and  C_15
REMARK   10  A    between atoms: C_14  and  C_16
REMARK   11  A    between atoms: C_14  and  C_17
REMARK                            x       y       z     vdW  Elec       q    Type
REMARK                         _______ _______ _______ _____ _____    ______ ____
ROOT
ATOM      1  N   UNL     1       6.634  -5.311  24.902  0.00  0.00    -0.303 N 
ATOM      2  H   UNL     1       7.166  -6.131  24.616  0.00  0.00    +0.149 HD
ATOM      3  C   UNL     1       6.793  -4.138  24.192  0.00  0.00    +0.234 C 
ATOM      4  O   UNL     1       6.355  -3.058  24.581  0.00  0.00    -0.274 OA
ENDROOT
BRANCH   1   6
ATOM      5  C   UNL     1       4.910  -6.569  26.132  0.00  0.00    +0.038 C 
ATOM      6  C   UNL     1       5.872  -5.385  26.154  0.00  0.00    +0.156 C 
BRANCH   6   7
ATOM      7  C   UNL     1       6.804  -5.477  27.379  0.00  0.00    +0.231 C 
ATOM      8  O   UNL     1       6.475  -5.164  28.520  0.00  0.00    -0.274 OA
ATOM      9  N   UNL     1       8.102  -5.801  27.107  0.00  0.00    -0.328 N 
ATOM     10  H   UNL     1       8.757  -5.849  27.876  0.00  0.00    +0.145 HD
ATOM     11  H   UNL     1       8.393  -6.068  26.177  0.00  0.00    +0.145 HD
ENDBRANCH   6   7
ENDBRANCH   1   6
BRANCH   3  12
ATOM     12  C   UNL     1       7.665  -4.277  22.925  0.00  0.00    +0.159 C 
ATOM     13  C   UNL     1       7.046  -5.254  21.935  0.00  0.00    +0.038 C 
BRANCH  12  14
ATOM     14  N   UNL     1       7.850  -2.966  22.315  0.00  0.00    -0.270 N 
ATOM     15  H   UNL     1       7.076  -2.489  21.873  0.00  0.00    +0.153 HD
ATOM     16  C   UNL     1       8.987  -2.251  22.537  0.00  0.00    +0.401 C 
ATOM     17  O   UNL     1       9.892  -2.659  23.256  0.00  0.00    -0.226 OA
BRANCH  16  18
ATOM     18  O   UNL     1       8.942  -1.057  21.900  0.00  0.00    -0.445 OA
BRANCH  18  19
ATOM     19  C   UNL     1       8.937   0.167  22.689  0.00  0.00    +0.107 C 
ATOM     20  C   UNL     1       7.855   0.121  23.774  0.00  0.00    +0.055 C 
ATOM     21  C   UNL     1       8.584   1.311  21.720  0.00  0.00    +0.055 C 
ATOM     22  C   UNL     1      10.330   0.455  23.268  0.00  0.00    +0.055 C 
ENDBRANCH  18  19
ENDBRANCH  16  18
ENDBRANCH  12  14
ENDBRANCH   3  12
TORSDOF 6
ENDMDL
MODEL 5
REMARK VINA RESULT:      -5.6      2.335      6.261
REMARK  Name = 
REMARK  11 active torsions:
REMARK  status: ('A' for Active; 'I' for Inactive)
REMARK    1  A    between atoms: C_1  and  C_2
REMARK    2  A    between atoms: C_2  and  N_4
REMARK    3  A    between atoms: C_2  and  C_18
REMARK    4  A    between atoms: C_5  and  C_7
REMARK    5  A    between atoms: C_7  and  C_9
REMARK    6  A    between atoms: C_7  and  N_10
REMARK    7  A    between atoms: C_11  and  O_13
REMARK    8  A    between atoms: O_13  and  C_14
REMARK    9  A    between atoms: C_14  and  C_15
REMARK   10  A    between atoms: C_14  and  C_16
REMARK   11  A    between atoms: C_14  and  C_17
REMARK                            x       y       z     vdW  Elec       q    Type
REMARK                         _______ _______ _______ _____ _____    ______ ____
ROOT
ATOM      1  N   UNL     1       7.777  -4.160  24.450  0.00  0.00    -0.303 N 
ATOM      2  H   UNL     1       7.574  -3.248  24.853  0.00  0.00    +0.149 HD
ATOM      3  C   UNL     1       7.538  -4.357  23.105  0.00  0.00    +0.234 C 
ATOM      4  O   UNL     1       7.558  -5.467  22.578  0.00  0.00    -0.274 OA
ENDROOT
BRANCH   1   6
ATOM      5  C   UNL     1       9.583  -5.103  25.834  0.00  0.00    +0.038 C 
ATOM      6  C   UNL     1       8.141  -5.253  25.360  0.00  0.00    +0.156 C 
BRANCH   6   7
ATOM      7  C   UNL     1       7.185  -5.324  26.569  0.00  0.00    +0.231 C 
ATOM      8  O   UNL     1       7.362  -4.720  27.623  0.00  0.00    -0.274 OA
ATOM      9  N   UNL     1       6.170  -6.230  26.462  0.00  0.00    -0.328 N 
ATOM     10  H   UNL     1       5.531  -6.331  27.239  0.00  0.00    +0.145 HD
ATOM     11  H   UNL     1       6.002  -6.732  25.602  0.00  0.00    +0.145 HD
ENDBRANCH   6   7
ENDBRANCH   1   6
BRANCH   3  12
ATOM     12  C   UNL     1       7.130  -3.078  22.340  0.00  0.00    +0.159 C 
ATOM     13  C   UNL     1       5.623  -3.011  22.145  0.00  0.00    +0.038 C 
BRANCH  12  14
ATOM     14  N   UNL     1       7.614  -1.906  23.059  0.00  0.00    -0.270 N 
ATOM     15  H   UNL     1       7.278  -1.696  23.989  0.00  0.00    +0.153 HD
ATOM     16  C   UNL     1       8.697  -1.213  22.610  0.00  0.00    +0.401 C 
ATOM     17  O   UNL     1       9.316  -1.539  21.603  0.00  0.00    -0.226 OA
BRANCH  16  18
ATOM     18  O   UNL     1       8.991  -0.182  23.436  0.00  0.00    -0.445 OA
BRANCH  18  19
ATOM     19  C   UNL     1       8.805   1.182  22.961  0.00  0.00    +0.107 C 
ATOM     20  C   UNL     1       9.955   1.606  22.038  0.00  0.00    +0.055 C 
ATOM     21  C   UNL     1       8.843   2.088  24.205  0.00  0.00    +0.055 C 
ATOM     22  C   UNL     1       7.432   1.352  22.296  0.00  0.00    +0.055 C 
ENDBRANCH  18  19
ENDBRANCH  16  18
ENDBRANCH  12  14
ENDBRANCH   3  12
TORSDOF 6
ENDMDL
MODEL 6
REMARK VINA RESULT:      -5.6      1.810      2.486
REMARK  Name = 
REMARK  11 active torsions:
REMARK  status: ('A' for Active; 'I' for Inactive)
REMARK    1  A    between atoms: C_1  and  C_2
REMARK    2  A    between atoms: C_2  and  N_4
REMARK    3  A    between atoms: C_2  and  C_18
REMARK    4  A    between atoms: C_5  and  C_7
REMARK    5  A    between atoms: C_7  and  C_9
REMARK    6  A    between atoms: C_7  and  N_10
REMARK    7  A    between atoms: C_11  and  O_13
REMARK    8  A    between atoms: O_13  and  C_14
REMARK    9  A    between atoms: C_14  and  C_15
REMARK   10  A    between atoms: C_14  and  C_16
REMARK   11  A    between atoms: C_14  and  C_17
REMARK                            x       y       z     vdW  Elec       q    Type
REMARK                         _______ _______ _______ _____ _____    ______ ____
ROOT
ATOM      1  N   UNL     1       9.011   1.037  24.331  0.00  0.00    -0.303 N 
ATOM      2  H   UNL     1       9.983   1.051  24.633  0.00  0.00    +0.149 HD
ATOM      3  C   UNL     1       8.261  -0.098  24.565  0.00  0.00    +0.234 C 
ATOM      4  O   UNL     1       7.155  -0.282  24.064  0.00  0.00    -0.274 OA
ENDROOT
BRANCH   1   6
ATOM      5  C   UNL     1       9.073   3.481  24.032  0.00  0.00    +0.038 C 
ATOM      6  C   UNL     1       8.525   2.155  23.514  0.00  0.00    +0.156 C 
BRANCH   6   7
ATOM      7  C   UNL     1       8.892   1.970  22.027  0.00  0.00    +0.231 C 
ATOM      8  O   UNL     1       8.134   1.499  21.184  0.00  0.00    -0.274 OA
ATOM      9  N   UNL     1      10.193   2.232  21.706  0.00  0.00    -0.328 N 
ATOM     10  H   UNL     1      10.488   2.101  20.747  0.00  0.00    +0.145 HD
ATOM     11  H   UNL     1      10.832   2.626  22.382  0.00  0.00    +0.145 HD
ENDBRANCH   6   7
ENDBRANCH   1   6
BRANCH   3  12
ATOM     12  C   UNL     1       8.978  -1.167  25.419  0.00  0.00    +0.159 C 
ATOM     13  C   UNL     1       8.830  -0.875  26.905  0.00  0.00    +0.038 C 
BRANCH  12  14
ATOM     14  N   UNL     1       8.450  -2.486  25.093  0.00  0.00    -0.270 N 
ATOM     15  H   UNL     1       7.498  -2.732  25.328  0.00  0.00    +0.153 HD
ATOM     16  C   UNL     1       9.128  -3.319  24.256  0.00  0.00    +0.401 C 
ATOM     17  O   UNL     1      10.192  -3.006  23.735  0.00  0.00    -0.226 OA
BRANCH  16  18
ATOM     18  O   UNL     1       8.450  -4.476  24.070  0.00  0.00    -0.445 OA
BRANCH  18  19
ATOM     19  C   UNL     1       7.297  -4.486  23.180  0.00  0.00    +0.107 C 
ATOM     20  C   UNL     1       5.989  -4.581  23.974  0.00  0.00    +0.055 C 
ATOM     21  C   UNL     1       7.419  -5.759  22.321  0.00  0.00    +0.055 C 
ATOM     22  C   UNL     1       7.319  -3.277  22.235  0.00  0.00    +0.055 C 
ENDBRANCH  18  19
ENDBRANCH  16  18
ENDBRANCH  12  14
ENDBRANCH   3  12
TORSDOF 6
ENDMDL
MODEL 7
REMARK VINA RESULT:      -5.5      1.630      1.844
REMARK  Name = 
REMARK  11 active torsions:
REMARK  status: ('A' for Active; 'I' for Inactive)
REMARK    1  A    between atoms: C_1  and  C_2
REMARK    2  A    between atoms: C_2  and  N_4
REMARK    3  A    between atoms: C_2  and  C_18
REMARK    4  A    between atoms: C_5  and  C_7
REMARK    5  A    between atoms: C_7  and  C_9
REMARK    6  A    between atoms: C_7  and  N_10
REMARK    7  A    between atoms: C_11  and  O_13
REMARK    8  A    between atoms: O_13  and  C_14
REMARK    9  A    between atoms: C_14  and  C_15
REMARK   10  A    between atoms: C_14  and  C_16
REMARK   11  A    between atoms: C_14  and  C_17
REMARK                            x       y       z     vdW  Elec       q    Type
REMARK                         _______ _______ _______ _____ _____    ______ ____
ROOT
ATOM      1  N   UNL     1       8.949  -0.051  24.043  0.00  0.00    -0.303 N 
ATOM      2  H   UNL     1       9.886  -0.390  24.251  0.00  0.00    +0.149 HD
ATOM      3  C   UNL     1       7.877  -0.895  24.254  0.00  0.00    +0.234 C 
ATOM      4  O   UNL     1       6.745  -0.651  23.845  0.00  0.00    -0.274 OA
ENDROOT
BRANCH   1   6
ATOM      5  C   UNL     1       9.436   2.358  24.207  0.00  0.00    +0.038 C 
ATOM      6  C   UNL     1       8.818   1.246  23.367  0.00  0.00    +0.156 C 
BRANCH   6   7
ATOM      7  C   UNL     1       9.456   1.219  21.963  0.00  0.00    +0.231 C 
ATOM      8  O   UNL     1       9.450   0.241  21.222  0.00  0.00    -0.274 OA
ATOM      9  N   UNL     1      10.177   2.328  21.624  0.00  0.00    -0.328 N 
ATOM     10  H   UNL     1      10.634   2.347  20.723  0.00  0.00    +0.145 HD
ATOM     11  H   UNL     1      10.190   3.147  22.215  0.00  0.00    +0.145 HD
ENDBRANCH   6   7
ENDBRANCH   1   6
BRANCH   3  12
ATOM     12  C   UNL     1       8.245  -2.225  24.947  0.00  0.00    +0.159 C 
ATOM     13  C   UNL     1       8.451  -2.028  26.442  0.00  0.00    +0.038 C 
BRANCH  12  14
ATOM     14  N   UNL     1       7.203  -3.212  24.692  0.00  0.00    -0.270 N 
ATOM     15  H   UNL     1       6.227  -2.952  24.727  0.00  0.00    +0.153 HD
ATOM     16  C   UNL     1       7.512  -4.428  24.163  0.00  0.00    +0.401 C 
ATOM     17  O   UNL     1       8.659  -4.747  23.870  0.00  0.00    -0.226 OA
BRANCH  16  18
ATOM     18  O   UNL     1       6.399  -5.177  23.983  0.00  0.00    -0.445 OA
BRANCH  18  19
ATOM     19  C   UNL     1       5.708  -5.124  22.702  0.00  0.00    +0.107 C 
ATOM     20  C   UNL     1       5.563  -3.678  22.213  0.00  0.00    +0.055 C 
ATOM     21  C   UNL     1       4.294  -5.684  22.944  0.00  0.00    +0.055 C 
ATOM     22  C   UNL     1       6.398  -6.023  21.667  0.00  0.00    +0.055 C 
ENDBRANCH  18  19
ENDBRANCH  16  18
ENDBRANCH  12  14
ENDBRANCH   3  12
TORSDOF 6
ENDMDL
MODEL 8
REMARK VINA RESULT:      -5.4      1.707      2.199
REMARK  Name = 
REMARK  11 active torsions:
REMARK  status: ('A' for Active; 'I' for Inactive)
REMARK    1  A    between atoms: C_1  and  C_2
REMARK    2  A    between atoms: C_2  and  N_4
REMARK    3  A    between atoms: C_2  and  C_18
REMARK    4  A    between atoms: C_5  and  C_7
REMARK    5  A    between atoms: C_7  and  C_9
REMARK    6  A    between atoms: C_7  and  N_10
REMARK    7  A    between atoms: C_11  and  O_13
REMARK    8  A    between atoms: O_13  and  C_14
REMARK    9  A    between atoms: C_14  and  C_15
REMARK   10  A    between atoms: C_14  and  C_16
REMARK   11  A    between atoms: C_14  and  C_17
REMARK                            x       y       z     vdW  Elec       q    Type
REMARK                         _______ _______ _______ _____ _____    ______ ____
ROOT
ATOM      1  N   UNL     1       9.099   0.859  23.950  0.00  0.00    -0.303 N 
ATOM      2  H   UNL     1       8.107   0.659  23.838  0.00  0.00    +0.149 HD
ATOM      3  C   UNL     1       9.841   0.071  24.807  0.00  0.00    +0.234 C 
ATOM      4  O   UNL     1      10.982   0.358  25.158  0.00  0.00    -0.274 OA
ENDROOT
BRANCH   1   6
ATOM      5  C   UNL     1       9.992   1.827  21.868  0.00  0.00    +0.038 C 
ATOM      6  C   UNL     1       9.633   2.077  23.329  0.00  0.00    +0.156 C 
BRANCH   6   7
ATOM      7  C   UNL     1       8.639   3.251  23.441  0.00  0.00    +0.231 C 
ATOM      8  O   UNL     1       8.228   3.706  24.505  0.00  0.00    -0.274 OA
ATOM      9  N   UNL     1       8.109   3.688  22.261  0.00  0.00    -0.328 N 
ATOM     10  H   UNL     1       7.435   4.441  22.286  0.00  0.00    +0.145 HD
ATOM     11  H   UNL     1       8.438   3.333  21.374  0.00  0.00    +0.145 HD
ENDBRANCH   6   7
ENDBRANCH   1   6
BRANCH   3  12
ATOM     12  C   UNL     1       9.072  -1.141  25.378  0.00  0.00    +0.159 C 
ATOM     13  C   UNL     1       8.137  -0.720  26.503  0.00  0.00    +0.038 C 
BRANCH  12  14
ATOM     14  N   UNL     1       8.332  -1.797  24.306  0.00  0.00    -0.270 N 
ATOM     15  H   UNL     1       7.579  -1.318  23.831  0.00  0.00    +0.153 HD
ATOM     16  C   UNL     1       8.788  -2.956  23.755  0.00  0.00    +0.401 C 
ATOM     17  O   UNL     1       9.829  -3.492  24.117  0.00  0.00    -0.226 OA
BRANCH  16  18
ATOM     18  O   UNL     1       7.968  -3.378  22.764  0.00  0.00    -0.445 OA
BRANCH  18  19
ATOM     19  C   UNL     1       6.995  -4.423  23.047  0.00  0.00    +0.107 C 
ATOM     20  C   UNL     1       7.230  -5.651  22.159  0.00  0.00    +0.055 C 
ATOM     21  C   UNL     1       5.613  -3.843  22.690  0.00  0.00    +0.055 C 
ATOM     22  C   UNL     1       6.984  -4.777  24.541  0.00  0.00    +0.055 C 
ENDBRANCH  18  19
ENDBRANCH  16  18
ENDBRANCH  12  14
ENDBRANCH   3  12
TORSDOF 6
ENDMDL
MODEL 9
REMARK VINA RESULT:      -5.4      2.320      3.757
REMARK  Name = 
REMARK  11 active torsions:
REMARK  status: ('A' for Active; 'I' for Inactive)
REMARK    1  A    between atoms: C_1  and  C_2
REMARK    2  A    between atoms: C_2  and  N_4
REMARK    3  A    between atoms: C_2  and  C_18
REMARK    4  A    between atoms: C_5  and  C_7
REMARK    5  A    between atoms: C_7  and  C_9
REMARK    6  A    between atoms: C_7  and  N_10
REMARK    7  A    between atoms: C_11  and  O_13
REMARK    8  A    between atoms: O_13  and  C_14
REMARK    9  A    between atoms: C_14  and  C_15
REMARK   10  A    between atoms: C_14  and  C_16
REMARK   11  A    between atoms: C_14  and  C_17
REMARK                            x       y       z     vdW  Elec       q    Type
REMARK                         _______ _______ _______ _____ _____    ______ ____
ROOT
ATOM      1  N   UNL     1       9.810   2.684  24.072  0.00  0.00    -0.303 N 
ATOM      2  H   UNL     1       9.979   2.393  25.033  0.00  0.00    +0.149 HD
ATOM      3  C   UNL     1       9.972   1.758  23.061  0.00  0.00    +0.234 C 
ATOM      4  O   UNL     1       9.990   2.065  21.872  0.00  0.00    -0.274 OA
ENDROOT
BRANCH   1   6
ATOM      5  C   UNL     1       8.663   4.711  24.874  0.00  0.00    +0.038 C 
ATOM      6  C   UNL     1       9.579   4.110  23.813  0.00  0.00    +0.156 C 
BRANCH   6   7
ATOM      7  C   UNL     1      10.904   4.896  23.745  0.00  0.00    +0.231 C 
ATOM      8  O   UNL     1      11.098   5.971  24.305  0.00  0.00    -0.274 OA
ATOM      9  N   UNL     1      11.842   4.393  22.889  0.00  0.00    -0.328 N 
ATOM     10  H   UNL     1      12.719   4.887  22.792  0.00  0.00    +0.145 HD
ATOM     11  H   UNL     1      11.707   3.506  22.424  0.00  0.00    +0.145 HD
ENDBRANCH   6   7
ENDBRANCH   1   6
BRANCH   3  12
ATOM     12  C   UNL     1      10.245   0.321  23.557  0.00  0.00    +0.159 C 
ATOM     13  C   UNL     1      10.327   0.269  25.075  0.00  0.00    +0.038 C 
BRANCH  12  14
ATOM     14  N   UNL     1       9.203  -0.571  23.062  0.00  0.00    -0.270 N 
ATOM     15  H   UNL     1       8.273  -0.222  22.874  0.00  0.00    +0.153 HD
ATOM     16  C   UNL     1       9.512  -1.817  22.610  0.00  0.00    +0.401 C 
ATOM     17  O   UNL     1      10.661  -2.243  22.586  0.00  0.00    -0.226 OA
BRANCH  16  18
ATOM     18  O   UNL     1       8.405  -2.464  22.175  0.00  0.00    -0.445 OA
BRANCH  18  19
ATOM     19  C   UNL     1       7.632  -3.260  23.118  0.00  0.00    +0.107 C 
ATOM     20  C   UNL     1       8.480  -3.651  24.335  0.00  0.00    +0.055 C 
ATOM     21  C   UNL     1       7.242  -4.555  22.381  0.00  0.00    +0.055 C 
ATOM     22  C   UNL     1       6.337  -2.538  23.517  0.00  0.00    +0.055 C 
ENDBRANCH  18  19
ENDBRANCH  16  18
ENDBRANCH  12  14
ENDBRANCH   3  12
TORSDOF 6
ENDMDL
