MODEL 1
REMARK VINA RESULT:      -4.4      0.000      0.000
REMARK  Name = 
REMARK  2 active torsions:
REMARK  status: ('A' for Active; 'I' for Inactive)
REMARK    1  A    between atoms: O_1  and  C_2
REMARK    2  A    between atoms: C_2  and  CA_4
REMARK                            x       y       z     vdW  Elec       q    Type
REMARK                         _______ _______ _______ _____ _____    ______ ____
ROOT
ATOM      1  CA  UNL     1       9.528   0.490  22.902  0.00  0.00    +0.182 C 
ATOM      2  N   UNL     1      10.271  -0.519  23.635  0.00  0.00    -0.302 N 
ATOM      3  H   UNL     1      10.467  -0.467  24.632  0.00  0.00    +0.150 HD
ATOM      4  C   UNL     1      10.002  -1.779  23.134  0.00  0.00    +0.214 C 
ATOM      5  O   UNL     1      10.275  -2.817  23.706  0.00  0.00    -0.276 OA
ATOM      6  C   UNL     1       9.260  -1.635  21.830  0.00  0.00    +0.098 C 
ATOM      7  C   UNL     1       9.383  -0.145  21.529  0.00  0.00    +0.043 C 
ENDROOT
BRANCH   1   8
ATOM      8  C   UNL     1      10.270   1.820  22.824  0.00  0.00    +0.325 C 
ATOM      9  OXT UNL     1      10.759   2.390  23.787  0.00  0.00    -0.249 OA
BRANCH   8  10
ATOM     10  O   UNL     1      10.263   2.356  21.579  0.00  0.00    -0.479 OA
ATOM     11  H   UNL     1      10.378   3.330  21.631  0.00  0.00    +0.295 HD
ENDBRANCH   8  10
ENDBRANCH   1   8
TORSDOF 2
ENDMDL
MODEL 2
REMARK VINA RESULT:      -4.2      5.311      6.691
REMARK  Name = 
REMARK  2 active torsions:
REMARK  status: ('A' for Active; 'I' for Inactive)
REMARK    1  A    between atoms: O_1  and  C_2
REMARK    2  A    between atoms: C_2  and  CA_4
REMARK                            x       y       z     vdW  Elec       q    Type
REMARK                         _______ _______ _______ _____ _____    ______ ____
ROOT
ATOM      1  CA  UNL     1       8.347  -4.404  25.874  0.00  0.00    +0.182 C 
ATOM      2  N   UNL     1       8.410  -5.224  27.069  0.00  0.00    -0.302 N 
ATOM      3  H   UNL     1       9.031  -5.039  27.852  0.00  0.00    +0.150 HD
ATOM      4  C   UNL     1       7.156  -5.711  27.391  0.00  0.00    +0.214 C 
ATOM      5  O   UNL     1       6.866  -6.203  28.465  0.00  0.00    -0.276 OA
ATOM      6  C   UNL     1       6.225  -5.453  26.234  0.00  0.00    +0.098 C 
ATOM      7  C   UNL     1       7.171  -5.007  25.124  0.00  0.00    +0.043 C 
ENDROOT
BRANCH   1   8
ATOM      8  C   UNL     1       9.627  -4.474  25.049  0.00  0.00    +0.325 C 
ATOM      9  OXT UNL     1       9.946  -3.648  24.207  0.00  0.00    -0.249 OA
BRANCH   8  10
ATOM     10  O   UNL     1      10.346  -5.598  25.283  0.00  0.00    -0.479 OA
ATOM     11  H   UNL     1      10.279  -6.207  24.515  0.00  0.00    +0.295 HD
ENDBRANCH   8  10
ENDBRANCH   1   8
TORSDOF 2
ENDMDL
MODEL 3
REMARK VINA RESULT:      -4.2      1.293      1.986
REMARK  Name = 
REMARK  2 active torsions:
REMARK  status: ('A' for Active; 'I' for Inactive)
REMARK    1  A    between atoms: O_1  and  C_2
REMARK    2  A    between atoms: C_2  and  CA_4
REMARK                            x       y       z     vdW  Elec       q    Type
REMARK                         _______ _______ _______ _____ _____    ______ ____
ROOT
ATOM      1  CA  UNL     1      10.224   0.244  22.974  0.00  0.00    +0.182 C 
ATOM      2  N   UNL     1      10.214  -1.174  22.664  0.00  0.00    -0.302 N 
ATOM      3  H   UNL     1      10.816  -1.606  21.967  0.00  0.00    +0.150 HD
ATOM      4  C   UNL     1       9.970  -1.919  23.803  0.00  0.00    +0.214 C 
ATOM      5  O   UNL     1      10.159  -3.117  23.892  0.00  0.00    -0.276 OA
ATOM      6  C   UNL     1       9.521  -0.991  24.902  0.00  0.00    +0.098 C 
ATOM      7  C   UNL     1       9.284   0.324  24.166  0.00  0.00    +0.043 C 
ENDROOT
BRANCH   1   8
ATOM      8  C   UNL     1       9.724   1.099  21.815  0.00  0.00    +0.325 C 
ATOM      9  OXT UNL     1       8.889   0.733  21.003  0.00  0.00    -0.249 OA
BRANCH   8  10
ATOM     10  O   UNL     1      10.365   2.290  21.723  0.00  0.00    -0.479 OA
ATOM     11  H   UNL     1      10.181   2.835  22.518  0.00  0.00    +0.295 HD
ENDBRANCH   8  10
ENDBRANCH   1   8
TORSDOF 2
ENDMDL
MODEL 4
REMARK VINA RESULT:      -4.0      1.078      3.785
REMARK  Name = 
REMARK  2 active torsions:
REMARK  status: ('A' for Active; 'I' for Inactive)
REMARK    1  A    between atoms: O_1  and  C_2
REMARK    2  A    between atoms: C_2  and  CA_4
REMARK                            x       y       z     vdW  Elec       q    Type
REMARK                         _______ _______ _______ _____ _____    ______ ____
ROOT
ATOM      1  CA  UNL     1      10.229  -0.877  22.577  0.00  0.00    +0.182 C 
ATOM      2  N   UNL     1      10.309   0.006  23.725  0.00  0.00    -0.302 N 
ATOM      3  H   UNL     1      10.858  -0.193  24.558  0.00  0.00    +0.150 HD
ATOM      4  C   UNL     1      10.275   1.329  23.323  0.00  0.00    +0.214 C 
ATOM      5  O   UNL     1      10.581   2.270  24.031  0.00  0.00    -0.276 OA
ATOM      6  C   UNL     1       9.882   1.384  21.869  0.00  0.00    +0.098 C 
ATOM      7  C   UNL     1       9.439  -0.047  21.579  0.00  0.00    +0.043 C 
ENDROOT
BRANCH   1   8
ATOM      8  C   UNL     1       9.516  -2.187  22.897  0.00  0.00    +0.325 C 
ATOM      9  OXT UNL     1       8.429  -2.505  22.438  0.00  0.00    -0.249 OA
BRANCH   8  10
ATOM     10  O   UNL     1      10.173  -2.936  23.815  0.00  0.00    -0.479 OA
ATOM     11  H   UNL     1       9.811  -2.766  24.711  0.00  0.00    +0.295 HD
ENDBRANCH   8  10
ENDBRANCH   1   8
TORSDOF 2
ENDMDL
MODEL 5
REMARK VINA RESULT:      -4.0      1.745      3.590
REMARK  Name = 
REMARK  2 active torsions:
REMARK  status: ('A' for Active; 'I' for Inactive)
REMARK    1  A    between atoms: O_1  and  C_2
REMARK    2  A    between atoms: C_2  and  CA_4
REMARK                            x       y       z     vdW  Elec       q    Type
REMARK                         _______ _______ _______ _____ _____    ______ ____
ROOT
ATOM      1  CA  UNL     1      10.393   0.067  23.111  0.00  0.00    +0.182 C 
ATOM      2  N   UNL     1       9.559   0.473  24.226  0.00  0.00    -0.302 N 
ATOM      3  H   UNL     1       9.663   0.115  25.172  0.00  0.00    +0.150 HD
ATOM      4  C   UNL     1       9.218   1.809  24.116  0.00  0.00    +0.214 C 
ATOM      5  O   UNL     1       8.752   2.475  25.021  0.00  0.00    -0.276 OA
ATOM      6  C   UNL     1       9.594   2.293  22.739  0.00  0.00    +0.098 C 
ATOM      7  C   UNL     1       9.938   1.002  22.003  0.00  0.00    +0.043 C 
ENDROOT
BRANCH   1   8
ATOM      8  C   UNL     1      10.184  -1.393  22.725  0.00  0.00    +0.325 C 
ATOM      9  OXT UNL     1      10.157  -2.316  23.525  0.00  0.00    -0.249 OA
BRANCH   8  10
ATOM     10  O   UNL     1      10.111  -1.581  21.385  0.00  0.00    -0.479 OA
ATOM     11  H   UNL     1      10.943  -1.987  21.056  0.00  0.00    +0.295 HD
ENDBRANCH   8  10
ENDBRANCH   1   8
TORSDOF 2
ENDMDL
MODEL 6
REMARK VINA RESULT:      -4.0      1.558      3.889
REMARK  Name = 
REMARK  2 active torsions:
REMARK  status: ('A' for Active; 'I' for Inactive)
REMARK    1  A    between atoms: O_1  and  C_2
REMARK    2  A    between atoms: C_2  and  CA_4
REMARK                            x       y       z     vdW  Elec       q    Type
REMARK                         _______ _______ _______ _____ _____    ______ ____
ROOT
ATOM      1  CA  UNL     1       9.568  -0.479  23.621  0.00  0.00    +0.182 C 
ATOM      2  N   UNL     1       9.059   0.433  22.615  0.00  0.00    -0.302 N 
ATOM      3  H   UNL     1       8.226   0.256  22.058  0.00  0.00    +0.150 HD
ATOM      4  C   UNL     1       9.265   1.745  22.999  0.00  0.00    +0.214 C 
ATOM      5  O   UNL     1       8.720   2.704  22.487  0.00  0.00    -0.276 OA
ATOM      6  C   UNL     1      10.194   1.762  24.186  0.00  0.00    +0.098 C 
ATOM      7  C   UNL     1      10.695   0.323  24.250  0.00  0.00    +0.043 C 
ENDROOT
BRANCH   1   8
ATOM      8  C   UNL     1      10.082  -1.783  23.021  0.00  0.00    +0.325 C 
ATOM      9  OXT UNL     1      10.281  -2.803  23.665  0.00  0.00    -0.249 OA
BRANCH   8  10
ATOM     10  O   UNL     1      10.381  -1.678  21.704  0.00  0.00    -0.479 OA
ATOM     11  H   UNL     1       9.597  -1.360  21.205  0.00  0.00    +0.295 HD
ENDBRANCH   8  10
ENDBRANCH   1   8
TORSDOF 2
ENDMDL
MODEL 7
REMARK VINA RESULT:      -3.8      3.588      5.916
REMARK  Name = 
REMARK  2 active torsions:
REMARK  status: ('A' for Active; 'I' for Inactive)
REMARK    1  A    between atoms: O_1  and  C_2
REMARK    2  A    between atoms: C_2  and  CA_4
REMARK                            x       y       z     vdW  Elec       q    Type
REMARK                         _______ _______ _______ _____ _____    ______ ____
ROOT
ATOM      1  CA  UNL     1       8.082  -3.832  25.433  0.00  0.00    +0.182 C 
ATOM      2  N   UNL     1       9.196  -3.987  24.516  0.00  0.00    -0.302 N 
ATOM      3  H   UNL     1       9.280  -4.751  23.850  0.00  0.00    +0.150 HD
ATOM      4  C   UNL     1       9.646  -2.753  24.085  0.00  0.00    +0.214 C 
ATOM      5  O   UNL     1      10.383  -2.586  23.131  0.00  0.00    -0.276 OA
ATOM      6  C   UNL     1       9.011  -1.682  24.934  0.00  0.00    +0.098 C 
ATOM      7  C   UNL     1       8.363  -2.477  26.062  0.00  0.00    +0.043 C 
ENDROOT
BRANCH   1   8
ATOM      8  C   UNL     1       8.034  -4.934  26.486  0.00  0.00    +0.325 C 
ATOM      9  OXT UNL     1       7.390  -4.865  27.521  0.00  0.00    -0.249 OA
BRANCH   8  10
ATOM     10  O   UNL     1       8.850  -5.977  26.197  0.00  0.00    -0.479 OA
ATOM     11  H   UNL     1       8.739  -6.243  25.258  0.00  0.00    +0.295 HD
ENDBRANCH   8  10
ENDBRANCH   1   8
TORSDOF 2
ENDMDL
MODEL 8
REMARK VINA RESULT:      -3.8      5.665      6.380
REMARK  Name = 
REMARK  2 active torsions:
REMARK  status: ('A' for Active; 'I' for Inactive)
REMARK    1  A    between atoms: O_1  and  C_2
REMARK    2  A    between atoms: C_2  and  CA_4
REMARK                            x       y       z     vdW  Elec       q    Type
REMARK                         _______ _______ _______ _____ _____    ______ ____
ROOT
ATOM      1  CA  UNL     1       7.940  -4.822  23.179  0.00  0.00    +0.182 C 
ATOM      2  N   UNL     1       6.856  -3.858  23.155  0.00  0.00    -0.302 N 
ATOM      3  H   UNL     1       6.935  -2.906  23.502  0.00  0.00    +0.150 HD
ATOM      4  C   UNL     1       6.079  -4.029  22.023  0.00  0.00    +0.214 C 
ATOM      5  O   UNL     1       5.273  -3.215  21.615  0.00  0.00    -0.276 OA
ATOM      6  C   UNL     1       6.462  -5.330  21.365  0.00  0.00    +0.098 C 
ATOM      7  C   UNL     1       7.354  -5.994  22.409  0.00  0.00    +0.043 C 
ENDROOT
BRANCH   1   8
ATOM      8  C   UNL     1       8.329  -5.228  24.597  0.00  0.00    +0.325 C 
ATOM      9  OXT UNL     1       7.611  -5.081  25.574  0.00  0.00    -0.249 OA
BRANCH   8  10
ATOM     10  O   UNL     1       9.597  -5.698  24.683  0.00  0.00    -0.479 OA
ATOM     11  H   UNL     1      10.134  -5.360  23.932  0.00  0.00    +0.295 HD
ENDBRANCH   8  10
ENDBRANCH   1   8
TORSDOF 2
ENDMDL
MODEL 9
REMARK VINA RESULT:      -3.8      6.258      7.006
REMARK  Name = 
REMARK  2 active torsions:
REMARK  status: ('A' for Active; 'I' for Inactive)
REMARK    1  A    between atoms: O_1  and  C_2
REMARK    2  A    between atoms: C_2  and  CA_4
REMARK                            x       y       z     vdW  Elec       q    Type
REMARK                         _______ _______ _______ _____ _____    ______ ____
ROOT
ATOM      1  CA  UNL     1       7.381  -4.747  25.403  0.00  0.00    +0.182 C 
ATOM      2  N   UNL     1       6.182  -5.501  25.087  0.00  0.00    -0.302 N 
ATOM      3  H   UNL     1       5.338  -5.490  25.656  0.00  0.00    +0.150 HD
ATOM      4  C   UNL     1       5.990  -5.559  23.719  0.00  0.00    +0.214 C 
ATOM      5  O   UNL     1       4.950  -5.895  23.185  0.00  0.00    -0.276 OA
ATOM      6  C   UNL     1       7.239  -5.067  23.034  0.00  0.00    +0.098 C 
ATOM      7  C   UNL     1       8.246  -4.981  24.176  0.00  0.00    +0.043 C 
ENDROOT
BRANCH   1   8
ATOM      8  C   UNL     1       8.067  -5.245  26.670  0.00  0.00    +0.325 C 
ATOM      9  OXT UNL     1       7.477  -5.724  27.626  0.00  0.00    -0.249 OA
BRANCH   8  10
ATOM     10  O   UNL     1       9.404  -5.025  26.668  0.00  0.00    -0.479 OA
ATOM     11  H   UNL     1       9.705  -4.764  27.566  0.00  0.00    +0.295 HD
ENDBRANCH   8  10
ENDBRANCH   1   8
TORSDOF 2
ENDMDL
