MODEL 1
REMARK VINA RESULT:      -6.7      0.000      0.000
REMARK  Name = 
REMARK  15 active torsions:
REMARK  status: ('A' for Active; 'I' for Inactive)
REMARK    1  A    between atoms: C_1  and  C_2
REMARK    2  A    between atoms: C_2  and  O_4
REMARK    3  A    between atoms: O_4  and  C_5
REMARK    4  A    between atoms: C_5  and  C_6
REMARK    5  A    between atoms: C_12  and  N_14
REMARK    6  A    between atoms: C_15  and  C_17
REMARK    7  A    between atoms: C_17  and  C_18
REMARK    8  A    between atoms: C_18  and  C_19
REMARK    9  A    between atoms: C_19  and  C_20
REMARK   10  A    between atoms: C_20  and  C_21
REMARK   11  A    between atoms: C_21  and  N_23
REMARK   12  A    between atoms: C_21  and  C_31
REMARK   13  A    between atoms: C_24  and  C_26
REMARK   14  A    between atoms: C_26  and  N_27
REMARK   15  A    between atoms: C_37  and  C_39
REMARK                            x       y       z     vdW  Elec       q    Type
REMARK                         _______ _______ _______ _____ _____    ______ ____
ROOT
ATOM      1  N   UNK A   1       8.301  -2.137  23.388  0.00  0.00    -0.302 N 
ATOM      2  H   UNK A   1       7.866  -2.429  22.522  0.00  0.00    +0.150 HD
ATOM      3  C   UNK A   0       9.426  -1.322  23.309  0.00  0.00    +0.214 C 
ATOM      4  O   UNK A   0      10.169  -1.047  24.242  0.00  0.00    -0.276 OA
ENDROOT
BRANCH   1   9
ATOM      5  C   UNK A   1       4.284  -4.883  24.702  0.00  0.00    +0.063 C 
ATOM      6  C   UNK A   1       5.661  -5.543  24.933  0.00  0.00    +0.130 C 
ATOM      7  N   UNK A   1       6.672  -4.500  24.864  0.00  0.00    -0.277 N 
ATOM      8  C   UNK A   1       6.429  -3.078  24.799  0.00  0.00    +0.164 C 
ATOM      9  C   UNK A   1       7.946  -2.880  24.663  0.00  0.00    +0.190 C 
ATOM     10  S   UNK A   1       5.463  -2.631  26.228  0.00  0.00    -0.135 S 
ATOM     11  C   UNK A   1       7.983  -4.457  24.571  0.00  0.00    +0.240 C 
ATOM     12  O   UNK A   1       8.792  -5.307  24.279  0.00  0.00    -0.273 OA
ATOM     13  C   UNK A   1       4.036  -3.734  25.734  0.00  0.00    +0.080 C 
BRANCH   6  14
ATOM     14  C   UNK A   1       5.553  -6.355  26.261  0.00  0.00    +0.063 C 
ATOM     15  O   ACE A   2       4.539  -7.117  26.320  0.00  0.00    -0.548 OA
ATOM     16  O   ACE A   2       6.436  -6.148  27.137  0.00  0.00    -0.548 OA
ENDBRANCH   6  14
BRANCH   5  17
ATOM     17  C   UNK A   1       4.141  -4.503  23.211  0.00  0.00    +0.238 C 
BRANCH  17  18
ATOM     18  O   UNK A   1       4.840  -5.415  22.346  0.00  0.00    -0.464 OA
BRANCH  18  20
ATOM     19  C   UNK A   1       6.909  -5.852  21.356  0.00  0.00    +0.136 C 
ATOM     20  C   UNK A   1       5.779  -4.879  21.528  0.00  0.00    +0.304 C 
ATOM     21  O   UNK A   1       5.794  -3.752  21.048  0.00  0.00    -0.251 OA
ENDBRANCH  18  20
ENDBRANCH  17  18
ENDBRANCH   5  17
ENDBRANCH   1   9
BRANCH   3  22
ATOM     22  C   UNK A   0       9.684  -0.756  21.940  0.00  0.00    +0.096 C 
BRANCH  22  23
ATOM     23  C   UNK A   0       9.087   0.640  21.874  0.00  0.00    +0.009 C 
BRANCH  23  24
ATOM     24  C   UNK A   0      10.160   1.708  22.045  0.00  0.00    +0.003 C 
BRANCH  24  25
ATOM     25  C   UNK A   0      10.183   2.299  23.458  0.00  0.00    +0.028 C 
BRANCH  25  26
ATOM     26  C   UNK A   0       8.805   2.517  24.096  0.00  0.00    +0.119 C 
BRANCH  26  27
ATOM     27  N   UNK A   0       8.673   1.705  25.330  0.00  0.00    -0.303 N 
ATOM     28  H   UNK A   0       9.097   2.231  26.102  0.00  0.00    +0.150 HD
ATOM     29  C   UNK A   1       7.680   0.812  25.558  0.00  0.00    +0.259 C 
ATOM     30  O   UNK A   1       6.780   0.499  24.782  0.00  0.00    -0.270 OA
BRANCH  29  31
ATOM     31  C   UNK A   1       7.761   0.081  26.884  0.00  0.00    +0.225 C 
BRANCH  31  32
ATOM     32  N   UNK A   1       9.166  -0.407  27.057  0.00  0.00    +0.225 N 
ATOM     33  H   UNK A   1       9.816   0.278  27.445  0.00  0.00    +0.200 HD
ATOM     34  H   UNK A   1       9.508  -0.779  26.160  0.00  0.00    +0.200 HD
ATOM     35  H   UNK A   1       9.123  -1.250  27.657  0.00  0.00    +0.200 HD
ENDBRANCH  31  32
ENDBRANCH  29  31
ENDBRANCH  26  27
BRANCH  26  36
ATOM     36  C   UNK A   0       8.685   4.037  24.470  0.00  0.00    +0.062 C 
ATOM     37  O   ACE A   2       8.252   4.200  25.655  0.00  0.00    -0.548 OA
ATOM     38  O   ACE A   2       9.017   4.874  23.592  0.00  0.00    -0.548 OA
ENDBRANCH  26  36
ENDBRANCH  25  26
ENDBRANCH  24  25
ENDBRANCH  23  24
ENDBRANCH  22  23
ENDBRANCH   3  22
TORSDOF 14
ENDMDL
MODEL 2
REMARK VINA RESULT:      -6.5      1.731      2.721
REMARK  Name = 
REMARK  15 active torsions:
REMARK  status: ('A' for Active; 'I' for Inactive)
REMARK    1  A    between atoms: C_1  and  C_2
REMARK    2  A    between atoms: C_2  and  O_4
REMARK    3  A    between atoms: O_4  and  C_5
REMARK    4  A    between atoms: C_5  and  C_6
REMARK    5  A    between atoms: C_12  and  N_14
REMARK    6  A    between atoms: C_15  and  C_17
REMARK    7  A    between atoms: C_17  and  C_18
REMARK    8  A    between atoms: C_18  and  C_19
REMARK    9  A    between atoms: C_19  and  C_20
REMARK   10  A    between atoms: C_20  and  C_21
REMARK   11  A    between atoms: C_21  and  N_23
REMARK   12  A    between atoms: C_21  and  C_31
REMARK   13  A    between atoms: C_24  and  C_26
REMARK   14  A    between atoms: C_26  and  N_27
REMARK   15  A    between atoms: C_37  and  C_39
REMARK                            x       y       z     vdW  Elec       q    Type
REMARK                         _______ _______ _______ _____ _____    ______ ____
ROOT
ATOM      1  N   UNK A   1       8.815  -1.737  23.458  0.00  0.00    -0.302 N 
ATOM      2  H   UNK A   1       8.390  -2.165  22.645  0.00  0.00    +0.150 HD
ATOM      3  C   UNK A   0       9.799  -0.775  23.248  0.00  0.00    +0.214 C 
ATOM      4  O   UNK A   0      10.533  -0.313  24.111  0.00  0.00    -0.276 OA
ENDROOT
BRANCH   1   9
ATOM      5  C   UNK A   1       5.110  -4.571  25.365  0.00  0.00    +0.063 C 
ATOM      6  C   UNK A   1       6.536  -5.150  25.484  0.00  0.00    +0.130 C 
ATOM      7  N   UNK A   1       7.477  -4.070  25.243  0.00  0.00    -0.277 N 
ATOM      8  C   UNK A   1       7.155  -2.667  25.118  0.00  0.00    +0.164 C 
ATOM      9  C   UNK A   1       8.636  -2.409  24.806  0.00  0.00    +0.190 C 
ATOM     10  S   UNK A   1       6.323  -2.171  26.614  0.00  0.00    -0.135 S 
ATOM     11  C   UNK A   1       8.746  -3.986  24.807  0.00  0.00    +0.240 C 
ATOM     12  O   UNK A   1       9.563  -4.815  24.481  0.00  0.00    -0.273 OA
ATOM     13  C   UNK A   1       4.911  -3.368  26.346  0.00  0.00    +0.080 C 
BRANCH   6  14
ATOM     14  C   UNK A   1       6.611  -5.877  26.864  0.00  0.00    +0.063 C 
ATOM     15  O   ACE A   2       5.657  -6.688  27.074  0.00  0.00    -0.548 OA
ATOM     16  O   ACE A   2       7.564  -5.564  27.629  0.00  0.00    -0.548 OA
ENDBRANCH   6  14
BRANCH   5  17
ATOM     17  C   UNK A   1       4.790  -4.298  23.878  0.00  0.00    +0.238 C 
BRANCH  17  18
ATOM     18  O   UNK A   1       5.458  -5.217  22.998  0.00  0.00    -0.464 OA
BRANCH  18  20
ATOM     19  C   UNK A   1       6.228  -5.698  20.846  0.00  0.00    +0.136 C 
ATOM     20  C   UNK A   1       6.119  -4.679  21.943  0.00  0.00    +0.304 C 
ATOM     21  O   UNK A   1       6.641  -3.573  21.876  0.00  0.00    -0.251 OA
ENDBRANCH  18  20
ENDBRANCH  17  18
ENDBRANCH   5  17
ENDBRANCH   1   9
BRANCH   3  22
ATOM     22  C   UNK A   0       9.904  -0.299  21.825  0.00  0.00    +0.096 C 
BRANCH  22  23
ATOM     23  C   UNK A   0       9.820   1.218  21.816  0.00  0.00    +0.009 C 
BRANCH  23  24
ATOM     24  C   UNK A   0       8.375   1.691  21.724  0.00  0.00    +0.003 C 
BRANCH  24  25
ATOM     25  C   UNK A   0       8.064   2.829  22.700  0.00  0.00    +0.028 C 
BRANCH  25  26
ATOM     26  C   UNK A   0       8.979   2.900  23.931  0.00  0.00    +0.119 C 
BRANCH  26  27
ATOM     27  N   UNK A   0       9.541   4.264  24.078  0.00  0.00    -0.303 N 
ATOM     28  H   UNK A   0       9.042   4.730  24.844  0.00  0.00    +0.150 HD
ATOM     29  C   UNK A   1      10.813   4.608  23.764  0.00  0.00    +0.259 C 
ATOM     30  O   UNK A   1      11.671   3.879  23.270  0.00  0.00    -0.270 OA
BRANCH  29  31
ATOM     31  C   UNK A   1      11.159   6.068  23.979  0.00  0.00    +0.225 C 
BRANCH  31  32
ATOM     32  N   UNK A   1      12.643   6.169  24.157  0.00  0.00    +0.225 N 
ATOM     33  H   UNK A   1      13.174   5.370  23.807  0.00  0.00    +0.200 HD
ATOM     34  H   UNK A   1      12.853   6.352  25.147  0.00  0.00    +0.200 HD
ATOM     35  H   UNK A   1      12.946   7.041  23.689  0.00  0.00    +0.200 HD
ENDBRANCH  31  32
ENDBRANCH  29  31
ENDBRANCH  26  27
BRANCH  26  36
ATOM     36  C   UNK A   0       8.109   2.566  25.195  0.00  0.00    +0.062 C 
ATOM     37  O   ACE A   2       7.861   1.321  25.282  0.00  0.00    -0.548 OA
ATOM     38  O   ACE A   2       7.778   3.526  25.937  0.00  0.00    -0.548 OA
ENDBRANCH  26  36
ENDBRANCH  25  26
ENDBRANCH  24  25
ENDBRANCH  23  24
ENDBRANCH  22  23
ENDBRANCH   3  22
TORSDOF 14
ENDMDL
MODEL 3
REMARK VINA RESULT:      -6.4      2.267      4.024
REMARK  Name = 
REMARK  15 active torsions:
REMARK  status: ('A' for Active; 'I' for Inactive)
REMARK    1  A    between atoms: C_1  and  C_2
REMARK    2  A    between atoms: C_2  and  O_4
REMARK    3  A    between atoms: O_4  and  C_5
REMARK    4  A    between atoms: C_5  and  C_6
REMARK    5  A    between atoms: C_12  and  N_14
REMARK    6  A    between atoms: C_15  and  C_17
REMARK    7  A    between atoms: C_17  and  C_18
REMARK    8  A    between atoms: C_18  and  C_19
REMARK    9  A    between atoms: C_19  and  C_20
REMARK   10  A    between atoms: C_20  and  C_21
REMARK   11  A    between atoms: C_21  and  N_23
REMARK   12  A    between atoms: C_21  and  C_31
REMARK   13  A    between atoms: C_24  and  C_26
REMARK   14  A    between atoms: C_26  and  N_27
REMARK   15  A    between atoms: C_37  and  C_39
REMARK                            x       y       z     vdW  Elec       q    Type
REMARK                         _______ _______ _______ _____ _____    ______ ____
ROOT
ATOM      1  N   UNK A   1       6.412   0.263  24.419  0.00  0.00    -0.302 N 
ATOM      2  H   UNK A   1       7.335   0.263  24.006  0.00  0.00    +0.150 HD
ATOM      3  C   UNK A   0       5.615   1.388  24.232  0.00  0.00    +0.214 C 
ATOM      4  O   UNK A   0       4.567   1.620  24.820  0.00  0.00    -0.276 OA
ENDROOT
BRANCH   1   9
ATOM      5  C   UNK A   1       6.787  -4.762  24.514  0.00  0.00    +0.063 C 
ATOM      6  C   UNK A   1       7.438  -4.011  25.696  0.00  0.00    +0.130 C 
ATOM      7  N   UNK A   1       6.916  -2.655  25.703  0.00  0.00    -0.277 N 
ATOM      8  C   UNK A   1       5.835  -2.151  24.890  0.00  0.00    +0.164 C 
ATOM      9  C   UNK A   1       6.099  -0.763  25.492  0.00  0.00    +0.190 C 
ATOM     10  S   UNK A   1       4.399  -3.153  25.222  0.00  0.00    -0.135 S 
ATOM     11  C   UNK A   1       7.351  -1.465  26.155  0.00  0.00    +0.240 C 
ATOM     12  O   UNK A   1       8.347  -1.121  26.748  0.00  0.00    -0.273 OA
ATOM     13  C   UNK A   1       5.226  -4.717  24.616  0.00  0.00    +0.080 C 
BRANCH   6  14
ATOM     14  C   UNK A   1       7.198  -4.883  26.968  0.00  0.00    +0.063 C 
ATOM     15  O   ACE A   2       7.729  -6.035  26.914  0.00  0.00    -0.548 OA
ATOM     16  O   ACE A   2       6.484  -4.385  27.882  0.00  0.00    -0.548 OA
ENDBRANCH   6  14
BRANCH   5  17
ATOM     17  C   UNK A   1       7.399  -4.259  23.188  0.00  0.00    +0.238 C 
BRANCH  17  18
ATOM     18  O   UNK A   1       8.698  -3.673  23.373  0.00  0.00    -0.464 OA
BRANCH  18  20
ATOM     19  C   UNK A   1      10.322  -2.028  23.038  0.00  0.00    +0.136 C 
ATOM     20  C   UNK A   1       8.892  -2.440  22.842  0.00  0.00    +0.304 C 
ATOM     21  O   UNK A   1       8.049  -1.701  22.348  0.00  0.00    -0.251 OA
ENDBRANCH  18  20
ENDBRANCH  17  18
ENDBRANCH   5  17
ENDBRANCH   1   9
BRANCH   3  22
ATOM     22  C   UNK A   0       6.137   2.351  23.201  0.00  0.00    +0.096 C 
BRANCH  22  23
ATOM     23  C   UNK A   0       7.028   1.587  22.236  0.00  0.00    +0.009 C 
BRANCH  23  24
ATOM     24  C   UNK A   0       8.253   2.406  21.848  0.00  0.00    +0.003 C 
BRANCH  24  25
ATOM     25  C   UNK A   0       9.562   1.639  22.052  0.00  0.00    +0.028 C 
BRANCH  25  26
ATOM     26  C   UNK A   0      10.486   2.205  23.139  0.00  0.00    +0.119 C 
BRANCH  26  27
ATOM     27  N   UNK A   0      10.193   3.640  23.371  0.00  0.00    -0.303 N 
ATOM     28  H   UNK A   0       9.309   3.703  23.888  0.00  0.00    +0.150 HD
ATOM     29  C   UNK A   1      11.135   4.608  23.481  0.00  0.00    +0.259 C 
ATOM     30  O   UNK A   1      12.350   4.468  23.360  0.00  0.00    -0.270 OA
BRANCH  29  31
ATOM     31  C   UNK A   1      10.599   6.009  23.697  0.00  0.00    +0.225 C 
BRANCH  31  32
ATOM     32  N   UNK A   1       9.321   6.138  22.926  0.00  0.00    +0.225 N 
ATOM     33  H   UNK A   1       9.417   6.553  21.999  0.00  0.00    +0.200 HD
ATOM     34  H   UNK A   1       8.634   6.651  23.495  0.00  0.00    +0.200 HD
ATOM     35  H   UNK A   1       8.909   5.191  22.861  0.00  0.00    +0.200 HD
ENDBRANCH  31  32
ENDBRANCH  29  31
ENDBRANCH  26  27
BRANCH  26  36
ATOM     36  C   UNK A   0      10.214   1.407  24.464  0.00  0.00    +0.062 C 
ATOM     37  O   ACE A   2      11.205   0.680  24.790  0.00  0.00    -0.548 OA
ATOM     38  O   ACE A   2       9.098   1.577  25.019  0.00  0.00    -0.548 OA
ENDBRANCH  26  36
ENDBRANCH  25  26
ENDBRANCH  24  25
ENDBRANCH  23  24
ENDBRANCH  22  23
ENDBRANCH   3  22
TORSDOF 14
ENDMDL
MODEL 4
REMARK VINA RESULT:      -6.1      1.603      2.624
REMARK  Name = 
REMARK  15 active torsions:
REMARK  status: ('A' for Active; 'I' for Inactive)
REMARK    1  A    between atoms: C_1  and  C_2
REMARK    2  A    between atoms: C_2  and  O_4
REMARK    3  A    between atoms: O_4  and  C_5
REMARK    4  A    between atoms: C_5  and  C_6
REMARK    5  A    between atoms: C_12  and  N_14
REMARK    6  A    between atoms: C_15  and  C_17
REMARK    7  A    between atoms: C_17  and  C_18
REMARK    8  A    between atoms: C_18  and  C_19
REMARK    9  A    between atoms: C_19  and  C_20
REMARK   10  A    between atoms: C_20  and  C_21
REMARK   11  A    between atoms: C_21  and  N_23
REMARK   12  A    between atoms: C_21  and  C_31
REMARK   13  A    between atoms: C_24  and  C_26
REMARK   14  A    between atoms: C_26  and  N_27
REMARK   15  A    between atoms: C_37  and  C_39
REMARK                            x       y       z     vdW  Elec       q    Type
REMARK                         _______ _______ _______ _____ _____    ______ ____
ROOT
ATOM      1  N   UNK A   1       8.494  -1.509  23.512  0.00  0.00    -0.302 N 
ATOM      2  H   UNK A   1       7.662  -1.290  22.979  0.00  0.00    +0.150 HD
ATOM      3  C   UNK A   0       9.722  -1.438  22.861  0.00  0.00    +0.214 C 
ATOM      4  O   UNK A   0      10.784  -1.854  23.305  0.00  0.00    -0.276 OA
ENDROOT
BRANCH   1   9
ATOM      5  C   UNK A   1       4.991  -4.707  25.215  0.00  0.00    +0.063 C 
ATOM      6  C   UNK A   1       6.458  -5.169  25.359  0.00  0.00    +0.130 C 
ATOM      7  N   UNK A   1       7.310  -4.005  25.181  0.00  0.00    -0.277 N 
ATOM      8  C   UNK A   1       6.873  -2.632  25.090  0.00  0.00    +0.164 C 
ATOM      9  C   UNK A   1       8.335  -2.239  24.832  0.00  0.00    +0.190 C 
ATOM     10  S   UNK A   1       5.961  -2.258  26.575  0.00  0.00    -0.135 S 
ATOM     11  C   UNK A   1       8.579  -3.800  24.787  0.00  0.00    +0.240 C 
ATOM     12  O   UNK A   1       9.472  -4.547  24.461  0.00  0.00    -0.273 OA
ATOM     13  C   UNK A   1       4.664  -3.560  26.227  0.00  0.00    +0.080 C 
BRANCH   6  14
ATOM     14  C   UNK A   1       6.556  -5.933  26.717  0.00  0.00    +0.063 C 
ATOM     15  O   ACE A   2       5.606  -6.750  26.920  0.00  0.00    -0.548 OA
ATOM     16  O   ACE A   2       7.521  -5.640  27.475  0.00  0.00    -0.548 OA
ENDBRANCH   6  14
BRANCH   5  17
ATOM     17  C   UNK A   1       4.691  -4.412  23.728  0.00  0.00    +0.238 C 
BRANCH  17  18
ATOM     18  O   UNK A   1       5.096  -5.487  22.865  0.00  0.00    -0.464 OA
BRANCH  18  20
ATOM     19  C   UNK A   1       7.151  -5.957  21.858  0.00  0.00    +0.136 C 
ATOM     20  C   UNK A   1       5.881  -5.158  21.809  0.00  0.00    +0.304 C 
ATOM     21  O   UNK A   1       5.674  -4.292  20.968  0.00  0.00    -0.251 OA
ENDBRANCH  18  20
ENDBRANCH  17  18
ENDBRANCH   5  17
ENDBRANCH   1   9
BRANCH   3  22
ATOM     22  C   UNK A   0       9.669  -0.774  21.513  0.00  0.00    +0.096 C 
BRANCH  22  23
ATOM     23  C   UNK A   0       8.915   0.538  21.651  0.00  0.00    +0.009 C 
BRANCH  23  24
ATOM     24  C   UNK A   0       9.849   1.674  22.047  0.00  0.00    +0.003 C 
BRANCH  24  25
ATOM     25  C   UNK A   0       9.953   1.850  23.565  0.00  0.00    +0.028 C 
BRANCH  25  26
ATOM     26  C   UNK A   0       8.996   2.887  24.168  0.00  0.00    +0.119 C 
BRANCH  26  27
ATOM     27  N   UNK A   0       8.194   3.532  23.100  0.00  0.00    -0.303 N 
ATOM     28  H   UNK A   0       7.820   2.793  22.495  0.00  0.00    +0.150 HD
ATOM     29  C   UNK A   1       7.548   4.716  23.235  0.00  0.00    +0.259 C 
ATOM     30  O   UNK A   1       7.562   5.454  24.218  0.00  0.00    -0.270 OA
BRANCH  29  31
ATOM     31  C   UNK A   1       6.806   5.190  22.001  0.00  0.00    +0.225 C 
BRANCH  31  32
ATOM     32  N   UNK A   1       7.554   6.357  21.433  0.00  0.00    +0.225 N 
ATOM     33  H   UNK A   1       7.166   7.272  21.666  0.00  0.00    +0.200 HD
ATOM     34  H   UNK A   1       7.643   6.237  20.415  0.00  0.00    +0.200 HD
ATOM     35  H   UNK A   1       8.532   6.281  21.763  0.00  0.00    +0.200 HD
ENDBRANCH  31  32
ENDBRANCH  29  31
ENDBRANCH  26  27
BRANCH  26  36
ATOM     36  C   UNK A   0       8.029   2.134  25.149  0.00  0.00    +0.062 C 
ATOM     37  O   ACE A   2       7.817   2.804  26.210  0.00  0.00    -0.548 OA
ATOM     38  O   ACE A   2       7.598   1.010  24.784  0.00  0.00    -0.548 OA
ENDBRANCH  26  36
ENDBRANCH  25  26
ENDBRANCH  24  25
ENDBRANCH  23  24
ENDBRANCH  22  23
ENDBRANCH   3  22
TORSDOF 14
ENDMDL
MODEL 5
REMARK VINA RESULT:      -6.0      2.396      3.605
REMARK  Name = 
REMARK  15 active torsions:
REMARK  status: ('A' for Active; 'I' for Inactive)
REMARK    1  A    between atoms: C_1  and  C_2
REMARK    2  A    between atoms: C_2  and  O_4
REMARK    3  A    between atoms: O_4  and  C_5
REMARK    4  A    between atoms: C_5  and  C_6
REMARK    5  A    between atoms: C_12  and  N_14
REMARK    6  A    between atoms: C_15  and  C_17
REMARK    7  A    between atoms: C_17  and  C_18
REMARK    8  A    between atoms: C_18  and  C_19
REMARK    9  A    between atoms: C_19  and  C_20
REMARK   10  A    between atoms: C_20  and  C_21
REMARK   11  A    between atoms: C_21  and  N_23
REMARK   12  A    between atoms: C_21  and  C_31
REMARK   13  A    between atoms: C_24  and  C_26
REMARK   14  A    between atoms: C_26  and  N_27
REMARK   15  A    between atoms: C_37  and  C_39
REMARK                            x       y       z     vdW  Elec       q    Type
REMARK                         _______ _______ _______ _____ _____    ______ ____
ROOT
ATOM      1  N   UNK A   1       7.362  -2.461  24.171  0.00  0.00    -0.302 N 
ATOM      2  H   UNK A   1       6.657  -2.699  23.485  0.00  0.00    +0.150 HD
ATOM      3  C   UNK A   0       8.629  -2.117  23.708  0.00  0.00    +0.214 C 
ATOM      4  O   UNK A   0       9.628  -1.995  24.405  0.00  0.00    -0.276 OA
ENDROOT
BRANCH   1   9
ATOM      5  C   UNK A   1       4.481  -5.999  26.310  0.00  0.00    +0.063 C 
ATOM      6  C   UNK A   1       5.954  -5.955  26.770  0.00  0.00    +0.130 C 
ATOM      7  N   UNK A   1       6.512  -4.678  26.356  0.00  0.00    -0.277 N 
ATOM      8  C   UNK A   1       5.779  -3.566  25.799  0.00  0.00    +0.164 C 
ATOM      9  C   UNK A   1       7.121  -2.840  25.619  0.00  0.00    +0.190 C 
ATOM     10  S   UNK A   1       4.519  -3.109  26.973  0.00  0.00    -0.135 S 
ATOM     11  C   UNK A   1       7.745  -4.217  26.081  0.00  0.00    +0.240 C 
ATOM     12  O   UNK A   1       8.841  -4.725  26.111  0.00  0.00    -0.273 OA
ATOM     13  C   UNK A   1       3.682  -4.779  26.876  0.00  0.00    +0.080 C 
BRANCH   6  14
ATOM     14  C   UNK A   1       5.957  -6.281  28.297  0.00  0.00    +0.063 C 
ATOM     15  O   ACE A   2       6.356  -5.324  29.030  0.00  0.00    -0.548 OA
ATOM     16  O   ACE A   2       5.611  -7.445  28.638  0.00  0.00    -0.548 OA
ENDBRANCH   6  14
BRANCH   5  17
ATOM     17  C   UNK A   1       4.429  -6.197  24.778  0.00  0.00    +0.238 C 
BRANCH  17  18
ATOM     18  O   UNK A   1       4.155  -7.560  24.413  0.00  0.00    -0.464 OA
BRANCH  18  20
ATOM     19  C   UNK A   1       2.026  -6.843  23.774  0.00  0.00    +0.136 C 
ATOM     20  C   UNK A   1       2.851  -7.935  24.390  0.00  0.00    +0.304 C 
ATOM     21  O   UNK A   1       2.361  -8.953  24.861  0.00  0.00    -0.251 OA
ENDBRANCH  18  20
ENDBRANCH  17  18
ENDBRANCH   5  17
ENDBRANCH   1   9
BRANCH   3  22
ATOM     22  C   UNK A   0       8.702  -1.879  22.225  0.00  0.00    +0.096 C 
BRANCH  22  23
ATOM     23  C   UNK A   0       9.834  -0.905  21.948  0.00  0.00    +0.009 C 
BRANCH  23  24
ATOM     24  C   UNK A   0       9.329   0.341  21.232  0.00  0.00    +0.003 C 
BRANCH  24  25
ATOM     25  C   UNK A   0       8.972   1.473  22.201  0.00  0.00    +0.028 C 
BRANCH  25  26
ATOM     26  C   UNK A   0      10.157   2.065  22.977  0.00  0.00    +0.119 C 
BRANCH  26  27
ATOM     27  N   UNK A   0       9.968   3.521  23.175  0.00  0.00    -0.303 N 
ATOM     28  H   UNK A   0       9.032   3.669  23.569  0.00  0.00    +0.150 HD
ATOM     29  C   UNK A   1      10.971   4.400  23.417  0.00  0.00    +0.259 C 
ATOM     30  O   UNK A   1      12.174   4.149  23.459  0.00  0.00    -0.270 OA
BRANCH  29  31
ATOM     31  C   UNK A   1      10.542   5.845  23.566  0.00  0.00    +0.225 C 
BRANCH  31  32
ATOM     32  N   UNK A   1       9.200   5.999  22.917  0.00  0.00    +0.225 N 
ATOM     33  H   UNK A   1       9.224   6.332  21.952  0.00  0.00    +0.200 HD
ATOM     34  H   UNK A   1       8.607   6.599  23.505  0.00  0.00    +0.200 HD
ATOM     35  H   UNK A   1       8.729   5.078  22.973  0.00  0.00    +0.200 HD
ENDBRANCH  31  32
ENDBRANCH  29  31
ENDBRANCH  26  27
BRANCH  26  36
ATOM     36  C   UNK A   0      10.211   1.361  24.379  0.00  0.00    +0.062 C 
ATOM     37  O   ACE A   2      11.371   0.905  24.635  0.00  0.00    -0.548 OA
ATOM     38  O   ACE A   2       9.148   1.335  25.052  0.00  0.00    -0.548 OA
ENDBRANCH  26  36
ENDBRANCH  25  26
ENDBRANCH  24  25
ENDBRANCH  23  24
ENDBRANCH  22  23
ENDBRANCH   3  22
TORSDOF 14
ENDMDL
MODEL 6
REMARK VINA RESULT:      -6.0      1.940      2.632
REMARK  Name = 
REMARK  15 active torsions:
REMARK  status: ('A' for Active; 'I' for Inactive)
REMARK    1  A    between atoms: C_1  and  C_2
REMARK    2  A    between atoms: C_2  and  O_4
REMARK    3  A    between atoms: O_4  and  C_5
REMARK    4  A    between atoms: C_5  and  C_6
REMARK    5  A    between atoms: C_12  and  N_14
REMARK    6  A    between atoms: C_15  and  C_17
REMARK    7  A    between atoms: C_17  and  C_18
REMARK    8  A    between atoms: C_18  and  C_19
REMARK    9  A    between atoms: C_19  and  C_20
REMARK   10  A    between atoms: C_20  and  C_21
REMARK   11  A    between atoms: C_21  and  N_23
REMARK   12  A    between atoms: C_21  and  C_31
REMARK   13  A    between atoms: C_24  and  C_26
REMARK   14  A    between atoms: C_26  and  N_27
REMARK   15  A    between atoms: C_37  and  C_39
REMARK                            x       y       z     vdW  Elec       q    Type
REMARK                         _______ _______ _______ _____ _____    ______ ____
ROOT
ATOM      1  N   UNK A   1       8.591  -2.314  25.939  0.00  0.00    -0.302 N 
ATOM      2  H   UNK A   1       9.383  -2.584  25.370  0.00  0.00    +0.150 HD
ATOM      3  C   UNK A   0       8.511  -0.988  26.356  0.00  0.00    +0.214 C 
ATOM      4  O   UNK A   0       7.732  -0.556  27.194  0.00  0.00    -0.276 OA
ENDROOT
BRANCH   1   9
ATOM      5  C   UNK A   1       4.386  -4.699  24.515  0.00  0.00    +0.063 C 
ATOM      6  C   UNK A   1       5.563  -5.600  24.948  0.00  0.00    +0.130 C 
ATOM      7  N   UNK A   1       6.517  -4.772  25.665  0.00  0.00    -0.277 N 
ATOM      8  C   UNK A   1       6.317  -3.404  26.083  0.00  0.00    +0.164 C 
ATOM      9  C   UNK A   1       7.765  -3.404  26.595  0.00  0.00    +0.190 C 
ATOM     10  S   UNK A   1       4.867  -3.364  27.118  0.00  0.00    -0.135 S 
ATOM     11  C   UNK A   1       7.838  -4.827  25.909  0.00  0.00    +0.240 C 
ATOM     12  O   UNK A   1       8.698  -5.626  25.620  0.00  0.00    -0.273 OA
ATOM     13  C   UNK A   1       3.750  -3.979  25.750  0.00  0.00    +0.080 C 
BRANCH   6  14
ATOM     14  C   UNK A   1       4.943  -6.812  25.711  0.00  0.00    +0.063 C 
ATOM     15  O   ACE A   2       4.148  -7.513  25.011  0.00  0.00    -0.548 OA
ATOM     16  O   ACE A   2       5.253  -6.948  26.926  0.00  0.00    -0.548 OA
ENDBRANCH   6  14
BRANCH   5  17
ATOM     17  C   UNK A   1       4.839  -3.787  23.353  0.00  0.00    +0.238 C 
BRANCH  17  18
ATOM     18  O   UNK A   1       5.066  -4.522  22.138  0.00  0.00    -0.464 OA
BRANCH  18  20
ATOM     19  C   UNK A   1       7.192  -3.560  22.240  0.00  0.00    +0.136 C 
ATOM     20  C   UNK A   1       6.359  -4.721  21.779  0.00  0.00    +0.304 C 
ATOM     21  O   UNK A   1       6.813  -5.641  21.111  0.00  0.00    -0.251 OA
ENDBRANCH  18  20
ENDBRANCH  17  18
ENDBRANCH   5  17
ENDBRANCH   1   9
BRANCH   3  22
ATOM     22  C   UNK A   0       9.480  -0.065  25.670  0.00  0.00    +0.096 C 
BRANCH  22  23
ATOM     23  C   UNK A   0       9.962  -0.734  24.393  0.00  0.00    +0.009 C 
BRANCH  23  24
ATOM     24  C   UNK A   0      10.569   0.281  23.432  0.00  0.00    +0.003 C 
BRANCH  24  25
ATOM     25  C   UNK A   0      10.567   1.703  24.000  0.00  0.00    +0.028 C 
BRANCH  25  26
ATOM     26  C   UNK A   0      10.327   2.815  22.970  0.00  0.00    +0.119 C 
BRANCH  26  27
ATOM     27  N   UNK A   0       8.879   3.117  22.865  0.00  0.00    -0.303 N 
ATOM     28  H   UNK A   0       8.738   4.094  23.143  0.00  0.00    +0.150 HD
ATOM     29  C   UNK A   1       8.030   2.510  22.001  0.00  0.00    +0.259 C 
ATOM     30  O   UNK A   1       8.301   1.599  21.220  0.00  0.00    -0.270 OA
BRANCH  29  31
ATOM     31  C   UNK A   1       6.587   2.967  22.085  0.00  0.00    +0.225 C 
BRANCH  31  32
ATOM     32  N   UNK A   1       5.786   1.858  22.696  0.00  0.00    +0.225 N 
ATOM     33  H   UNK A   1       4.817   2.094  22.911  0.00  0.00    +0.200 HD
ATOM     34  H   UNK A   1       6.278   1.505  23.528  0.00  0.00    +0.200 HD
ATOM     35  H   UNK A   1       5.830   1.057  22.042  0.00  0.00    +0.200 HD
ENDBRANCH  31  32
ENDBRANCH  29  31
ENDBRANCH  26  27
BRANCH  26  36
ATOM     36  C   UNK A   0      11.082   4.100  23.466  0.00  0.00    +0.062 C 
ATOM     37  O   ACE A   2      10.278   4.974  23.922  0.00  0.00    -0.548 OA
ATOM     38  O   ACE A   2      12.335   4.109  23.360  0.00  0.00    -0.548 OA
ENDBRANCH  26  36
ENDBRANCH  25  26
ENDBRANCH  24  25
ENDBRANCH  23  24
ENDBRANCH  22  23
ENDBRANCH   3  22
TORSDOF 14
ENDMDL
MODEL 7
REMARK VINA RESULT:      -5.8      1.996      3.145
REMARK  Name = 
REMARK  15 active torsions:
REMARK  status: ('A' for Active; 'I' for Inactive)
REMARK    1  A    between atoms: C_1  and  C_2
REMARK    2  A    between atoms: C_2  and  O_4
REMARK    3  A    between atoms: O_4  and  C_5
REMARK    4  A    between atoms: C_5  and  C_6
REMARK    5  A    between atoms: C_12  and  N_14
REMARK    6  A    between atoms: C_15  and  C_17
REMARK    7  A    between atoms: C_17  and  C_18
REMARK    8  A    between atoms: C_18  and  C_19
REMARK    9  A    between atoms: C_19  and  C_20
REMARK   10  A    between atoms: C_20  and  C_21
REMARK   11  A    between atoms: C_21  and  N_23
REMARK   12  A    between atoms: C_21  and  C_31
REMARK   13  A    between atoms: C_24  and  C_26
REMARK   14  A    between atoms: C_26  and  N_27
REMARK   15  A    between atoms: C_37  and  C_39
REMARK                            x       y       z     vdW  Elec       q    Type
REMARK                         _______ _______ _______ _____ _____    ______ ____
ROOT
ATOM      1  N   UNK A   1       7.274  -2.037  24.048  0.00  0.00    -0.302 N 
ATOM      2  H   UNK A   1       7.440  -1.212  24.610  0.00  0.00    +0.150 HD
ATOM      3  C   UNK A   0       8.192  -2.336  23.046  0.00  0.00    +0.214 C 
ATOM      4  O   UNK A   0       8.033  -3.174  22.168  0.00  0.00    -0.276 OA
ENDROOT
BRANCH   1   9
ATOM      5  C   UNK A   1       5.192  -5.503  27.056  0.00  0.00    +0.063 C 
ATOM      6  C   UNK A   1       4.382  -4.204  26.857  0.00  0.00    +0.130 C 
ATOM      7  N   UNK A   1       4.927  -3.512  25.701  0.00  0.00    -0.277 N 
ATOM      8  C   UNK A   1       5.908  -4.032  24.778  0.00  0.00    +0.164 C 
ATOM      9  C   UNK A   1       5.894  -2.666  24.076  0.00  0.00    +0.190 C 
ATOM     10  S   UNK A   1       5.255  -5.541  24.092  0.00  0.00    -0.135 S 
ATOM     11  C   UNK A   1       4.968  -2.235  25.282  0.00  0.00    +0.240 C 
ATOM     12  O   UNK A   1       4.527  -1.204  25.734  0.00  0.00    -0.273 OA
ATOM     13  C   UNK A   1       5.167  -6.381  25.761  0.00  0.00    +0.080 C 
BRANCH   6  14
ATOM     14  C   UNK A   1       2.877  -4.617  26.807  0.00  0.00    +0.063 C 
ATOM     15  O   ACE A   2       2.482  -5.256  27.830  0.00  0.00    -0.548 OA
ATOM     16  O   ACE A   2       2.232  -4.318  25.765  0.00  0.00    -0.548 OA
ENDBRANCH   6  14
BRANCH   5  17
ATOM     17  C   UNK A   1       6.589  -5.156  27.617  0.00  0.00    +0.238 C 
BRANCH  17  18
ATOM     18  O   UNK A   1       7.651  -5.678  26.801  0.00  0.00    -0.464 OA
BRANCH  18  20
ATOM     19  C   UNK A   1       9.418  -5.451  25.291  0.00  0.00    +0.136 C 
ATOM     20  C   UNK A   1       8.531  -4.777  26.296  0.00  0.00    +0.304 C 
ATOM     21  O   UNK A   1       8.677  -3.608  26.634  0.00  0.00    -0.251 OA
ENDBRANCH  18  20
ENDBRANCH  17  18
ENDBRANCH   5  17
ENDBRANCH   1   9
BRANCH   3  22
ATOM     22  C   UNK A   0       9.464  -1.537  23.113  0.00  0.00    +0.096 C 
BRANCH  22  23
ATOM     23  C   UNK A   0       9.718  -0.918  21.749  0.00  0.00    +0.009 C 
BRANCH  23  24
ATOM     24  C   UNK A   0       9.289   0.543  21.716  0.00  0.00    +0.003 C 
BRANCH  24  25
ATOM     25  C   UNK A   0      10.098   1.416  22.679  0.00  0.00    +0.028 C 
BRANCH  25  26
ATOM     26  C   UNK A   0       9.267   2.355  23.564  0.00  0.00    +0.119 C 
BRANCH  26  27
ATOM     27  N   UNK A   0       9.012   1.729  24.884  0.00  0.00    -0.303 N 
ATOM     28  H   UNK A   0       9.559   2.238  25.586  0.00  0.00    +0.150 HD
ATOM     29  C   UNK A   1       7.866   1.091  25.222  0.00  0.00    +0.259 C 
ATOM     30  O   UNK A   1       6.895   0.887  24.495  0.00  0.00    -0.270 OA
BRANCH  29  31
ATOM     31  C   UNK A   1       7.839   0.511  26.622  0.00  0.00    +0.225 C 
BRANCH  31  32
ATOM     32  N   UNK A   1       8.972  -0.461  26.741  0.00  0.00    +0.225 N 
ATOM     33  H   UNK A   1       9.213  -0.727  27.697  0.00  0.00    +0.200 HD
ATOM     34  H   UNK A   1       9.790  -0.089  26.240  0.00  0.00    +0.200 HD
ATOM     35  H   UNK A   1       8.716  -1.295  26.184  0.00  0.00    +0.200 HD
ENDBRANCH  31  32
ENDBRANCH  29  31
ENDBRANCH  26  27
BRANCH  26  36
ATOM     36  C   UNK A   0      10.093   3.673  23.774  0.00  0.00    +0.062 C 
ATOM     37  O   ACE A   2       9.400   4.582  24.334  0.00  0.00    -0.548 OA
ATOM     38  O   ACE A   2      11.288   3.673  23.383  0.00  0.00    -0.548 OA
ENDBRANCH  26  36
ENDBRANCH  25  26
ENDBRANCH  24  25
ENDBRANCH  23  24
ENDBRANCH  22  23
ENDBRANCH   3  22
TORSDOF 14
ENDMDL
MODEL 8
REMARK VINA RESULT:      -5.7      2.220      3.973
REMARK  Name = 
REMARK  15 active torsions:
REMARK  status: ('A' for Active; 'I' for Inactive)
REMARK    1  A    between atoms: C_1  and  C_2
REMARK    2  A    between atoms: C_2  and  O_4
REMARK    3  A    between atoms: O_4  and  C_5
REMARK    4  A    between atoms: C_5  and  C_6
REMARK    5  A    between atoms: C_12  and  N_14
REMARK    6  A    between atoms: C_15  and  C_17
REMARK    7  A    between atoms: C_17  and  C_18
REMARK    8  A    between atoms: C_18  and  C_19
REMARK    9  A    between atoms: C_19  and  C_20
REMARK   10  A    between atoms: C_20  and  C_21
REMARK   11  A    between atoms: C_21  and  N_23
REMARK   12  A    between atoms: C_21  and  C_31
REMARK   13  A    between atoms: C_24  and  C_26
REMARK   14  A    between atoms: C_26  and  N_27
REMARK   15  A    between atoms: C_37  and  C_39
REMARK                            x       y       z     vdW  Elec       q    Type
REMARK                         _______ _______ _______ _____ _____    ______ ____
ROOT
ATOM      1  N   UNK A   1       7.840  -2.402  22.131  0.00  0.00    -0.302 N 
ATOM      2  H   UNK A   1       7.148  -1.920  21.571  0.00  0.00    +0.150 HD
ATOM      3  C   UNK A   0       9.130  -1.881  22.161  0.00  0.00    +0.214 C 
ATOM      4  O   UNK A   0      10.111  -2.445  22.627  0.00  0.00    -0.276 OA
ENDROOT
BRANCH   1   9
ATOM      5  C   UNK A   1       6.727  -4.347  26.645  0.00  0.00    +0.063 C 
ATOM      6  C   UNK A   1       5.776  -4.727  25.490  0.00  0.00    +0.130 C 
ATOM      7  N   UNK A   1       6.443  -4.407  24.239  0.00  0.00    -0.277 N 
ATOM      8  C   UNK A   1       7.821  -4.001  24.085  0.00  0.00    +0.164 C 
ATOM      9  C   UNK A   1       7.543  -3.818  22.586  0.00  0.00    +0.190 C 
ATOM     10  S   UNK A   1       8.841  -5.282  24.788  0.00  0.00    -0.135 S 
ATOM     11  C   UNK A   1       6.044  -4.110  22.990  0.00  0.00    +0.240 C 
ATOM     12  O   UNK A   1       4.956  -4.030  22.469  0.00  0.00    -0.273 OA
ATOM     13  C   UNK A   1       8.106  -5.072  26.494  0.00  0.00    +0.080 C 
BRANCH   6  14
ATOM     14  C   UNK A   1       5.357  -6.213  25.724  0.00  0.00    +0.063 C 
ATOM     15  O   ACE A   2       4.918  -6.796  24.685  0.00  0.00    -0.548 OA
ATOM     16  O   ACE A   2       5.455  -6.661  26.899  0.00  0.00    -0.548 OA
ENDBRANCH   6  14
BRANCH   5  17
ATOM     17  C   UNK A   1       6.777  -2.809  26.783  0.00  0.00    +0.238 C 
BRANCH  17  18
ATOM     18  O   UNK A   1       8.119  -2.298  26.722  0.00  0.00    -0.464 OA
BRANCH  18  20
ATOM     19  C   UNK A   1       7.083  -0.731  25.335  0.00  0.00    +0.136 C 
ATOM     20  C   UNK A   1       8.279  -1.066  26.179  0.00  0.00    +0.304 C 
ATOM     21  O   UNK A   1       9.259  -0.336  26.261  0.00  0.00    -0.251 OA
ENDBRANCH  18  20
ENDBRANCH  17  18
ENDBRANCH   5  17
ENDBRANCH   1   9
BRANCH   3  22
ATOM     22  C   UNK A   0       9.254  -0.504  21.570  0.00  0.00    +0.096 C 
BRANCH  22  23
ATOM     23  C   UNK A   0      10.128   0.337  22.485  0.00  0.00    +0.009 C 
BRANCH  23  24
ATOM     24  C   UNK A   0       9.783   1.817  22.373  0.00  0.00    +0.003 C 
BRANCH  24  25
ATOM     25  C   UNK A   0       8.489   2.178  23.109  0.00  0.00    +0.028 C 
BRANCH  25  26
ATOM     26  C   UNK A   0       8.450   3.592  23.703  0.00  0.00    +0.119 C 
BRANCH  26  27
ATOM     27  N   UNK A   0       9.711   4.312  23.406  0.00  0.00    -0.303 N 
ATOM     28  H   UNK A   0       9.880   4.252  22.396  0.00  0.00    +0.150 HD
ATOM     29  C   UNK A   1      10.190   5.352  24.130  0.00  0.00    +0.259 C 
ATOM     30  O   UNK A   1       9.699   5.824  25.154  0.00  0.00    -0.270 OA
BRANCH  29  31
ATOM     31  C   UNK A   1      11.511   5.920  23.650  0.00  0.00    +0.225 C 
BRANCH  31  32
ATOM     32  N   UNK A   1      12.117   4.936  22.697  0.00  0.00    +0.225 N 
ATOM     33  H   UNK A   1      12.270   5.290  21.752  0.00  0.00    +0.200 HD
ATOM     34  H   UNK A   1      11.547   4.080  22.687  0.00  0.00    +0.200 HD
ATOM     35  H   UNK A   1      13.009   4.618  23.116  0.00  0.00    +0.200 HD
ENDBRANCH  31  32
ENDBRANCH  29  31
ENDBRANCH  26  27
BRANCH  26  36
ATOM     36  C   UNK A   0       7.254   4.360  23.037  0.00  0.00    +0.062 C 
ATOM     37  O   ACE A   2       7.079   4.004  21.828  0.00  0.00    -0.548 OA
ATOM     38  O   ACE A   2       6.638   5.196  23.747  0.00  0.00    -0.548 OA
ENDBRANCH  26  36
ENDBRANCH  25  26
ENDBRANCH  24  25
ENDBRANCH  23  24
ENDBRANCH  22  23
ENDBRANCH   3  22
TORSDOF 14
ENDMDL
MODEL 9
REMARK VINA RESULT:      -5.6      2.414      8.170
REMARK  Name = 
REMARK  15 active torsions:
REMARK  status: ('A' for Active; 'I' for Inactive)
REMARK    1  A    between atoms: C_1  and  C_2
REMARK    2  A    between atoms: C_2  and  O_4
REMARK    3  A    between atoms: O_4  and  C_5
REMARK    4  A    between atoms: C_5  and  C_6
REMARK    5  A    between atoms: C_12  and  N_14
REMARK    6  A    between atoms: C_15  and  C_17
REMARK    7  A    between atoms: C_17  and  C_18
REMARK    8  A    between atoms: C_18  and  C_19
REMARK    9  A    between atoms: C_19  and  C_20
REMARK   10  A    between atoms: C_20  and  C_21
REMARK   11  A    between atoms: C_21  and  N_23
REMARK   12  A    between atoms: C_21  and  C_31
REMARK   13  A    between atoms: C_24  and  C_26
REMARK   14  A    between atoms: C_26  and  N_27
REMARK   15  A    between atoms: C_37  and  C_39
REMARK                            x       y       z     vdW  Elec       q    Type
REMARK                         _______ _______ _______ _____ _____    ______ ____
ROOT
ATOM      1  N   UNK A   1       7.353  -3.292  25.477  0.00  0.00    -0.302 N 
ATOM      2  H   UNK A   1       6.505  -2.859  25.132  0.00  0.00    +0.150 HD
ATOM      3  C   UNK A   0       7.226  -4.307  26.420  0.00  0.00    +0.214 C 
ATOM      4  O   UNK A   0       8.145  -4.789  27.069  0.00  0.00    -0.276 OA
ENDROOT
BRANCH   1   9
ATOM      5  C   UNK A   1       8.568   0.830  22.844  0.00  0.00    +0.063 C 
ATOM      6  C   UNK A   1       9.075   0.783  24.301  0.00  0.00    +0.130 C 
ATOM      7  N   UNK A   1       8.968  -0.590  24.766  0.00  0.00    -0.277 N 
ATOM      8  C   UNK A   1       8.646  -1.743  23.958  0.00  0.00    +0.164 C 
ATOM      9  C   UNK A   1       8.674  -2.584  25.242  0.00  0.00    +0.190 C 
ATOM     10  S   UNK A   1       9.850  -1.837  22.648  0.00  0.00    -0.135 S 
ATOM     11  C   UNK A   1       8.842  -1.188  25.963  0.00  0.00    +0.240 C 
ATOM     12  O   UNK A   1       8.796  -0.766  27.095  0.00  0.00    -0.273 OA
ATOM     13  C   UNK A   1       9.362  -0.174  21.944  0.00  0.00    +0.080 C 
BRANCH   6  14
ATOM     14  C   UNK A   1      10.492   1.438  24.305  0.00  0.00    +0.063 C 
ATOM     15  O   ACE A   2      10.522   2.609  23.815  0.00  0.00    -0.548 OA
ATOM     16  O   ACE A   2      11.448   0.741  24.744  0.00  0.00    -0.548 OA
ENDBRANCH   6  14
BRANCH   5  17
ATOM     17  C   UNK A   1       7.029   0.687  22.831  0.00  0.00    +0.238 C 
BRANCH  17  18
ATOM     18  O   UNK A   1       6.379   1.836  22.261  0.00  0.00    -0.464 OA
BRANCH  18  20
ATOM     19  C   UNK A   1       5.352   1.911  24.357  0.00  0.00    +0.136 C 
ATOM     20  C   UNK A   1       5.750   2.671  23.125  0.00  0.00    +0.304 C 
ATOM     21  O   UNK A   1       5.452   3.845  22.943  0.00  0.00    -0.251 OA
ENDBRANCH  18  20
ENDBRANCH  17  18
ENDBRANCH   5  17
ENDBRANCH   1   9
BRANCH   3  22
ATOM     22  C   UNK A   0       5.822  -4.816  26.597  0.00  0.00    +0.096 C 
BRANCH  22  23
ATOM     23  C   UNK A   0       4.857  -3.735  26.141  0.00  0.00    +0.009 C 
BRANCH  23  24
ATOM     24  C   UNK A   0       3.530  -4.332  25.691  0.00  0.00    +0.003 C 
BRANCH  24  25
ATOM     25  C   UNK A   0       3.615  -5.842  25.450  0.00  0.00    +0.028 C 
BRANCH  25  26
ATOM     26  C   UNK A   0       3.373  -6.285  24.001  0.00  0.00    +0.119 C 
BRANCH  26  27
ATOM     27  N   UNK A   0       4.664  -6.512  23.308  0.00  0.00    -0.303 N 
ATOM     28  H   UNK A   0       4.769  -7.521  23.155  0.00  0.00    +0.150 HD
ATOM     29  C   UNK A   1       5.259  -5.617  22.482  0.00  0.00    +0.259 C 
ATOM     30  O   UNK A   1       4.864  -4.483  22.219  0.00  0.00    -0.270 OA
BRANCH  29  31
ATOM     31  C   UNK A   1       6.587  -6.059  21.901  0.00  0.00    +0.225 C 
BRANCH  31  32
ATOM     32  N   UNK A   1       7.672  -5.599  22.827  0.00  0.00    +0.225 N 
ATOM     33  H   UNK A   1       7.733  -6.112  23.707  0.00  0.00    +0.200 HD
ATOM     34  H   UNK A   1       7.571  -4.589  22.990  0.00  0.00    +0.200 HD
ATOM     35  H   UNK A   1       8.564  -5.664  22.305  0.00  0.00    +0.200 HD
ENDBRANCH  31  32
ENDBRANCH  29  31
ENDBRANCH  26  27
BRANCH  26  36
ATOM     36  C   UNK A   0       2.570  -7.634  24.039  0.00  0.00    +0.062 C 
ATOM     37  O   ACE A   2       1.589  -7.624  23.229  0.00  0.00    -0.548 OA
ATOM     38  O   ACE A   2       2.976  -8.524  24.830  0.00  0.00    -0.548 OA
ENDBRANCH  26  36
ENDBRANCH  25  26
ENDBRANCH  24  25
ENDBRANCH  23  24
ENDBRANCH  22  23
ENDBRANCH   3  22
TORSDOF 14
ENDMDL
