MODEL 1
REMARK VINA RESULT:      -6.0      0.000      0.000
REMARK  Name = 
REMARK  11 active torsions:
REMARK  status: ('A' for Active; 'I' for Inactive)
REMARK    1  A    between atoms: C_1  and  C_2
REMARK    2  A    between atoms: C_4  and  O_5
REMARK    3  A    between atoms: O_5  and  C_6
REMARK    4  A    between atoms: C_6  and  C_7
REMARK    5  A    between atoms: C_7  and  C_8
REMARK    6  A    between atoms: C_8  and  C_9
REMARK    7  A    between atoms: C_9  and  C_10
REMARK    8  A    between atoms: C_9  and  C_11
REMARK    9  A    between atoms: C_9  and  C_12
REMARK   10  A    between atoms: C_12  and  O_13
REMARK   11  A    between atoms: C_15  and  C_16
REMARK                            x       y       z     vdW  Elec       q    Type
REMARK                         _______ _______ _______ _____ _____    ______ ____
ROOT
ATOM      1  C   UNL     1       9.815  -2.666  23.766  0.00  0.00    +0.229 C 
ENDROOT
BRANCH   1   2
ATOM      2  O   UNL     1       9.521  -3.912  24.401  0.00  0.00    -0.492 OA
BRANCH   2   9
ATOM      3  C   UNL     1       6.042  -5.808  21.416  0.00  0.00    +0.044 C 
ATOM      4  C   UNL     1       6.539  -5.405  22.773  0.00  0.00    -0.047 A 
ATOM      5  C   UNL     1       5.773  -5.680  23.909  0.00  0.00    +0.004 A 
ATOM      6  C   UNL     1       6.264  -5.370  25.176  0.00  0.00    +0.007 A 
ATOM      7  C   UNL     1       7.526  -4.775  25.334  0.00  0.00    -0.009 A 
ATOM      8  C   UNL     1       8.012  -4.506  26.731  0.00  0.00    +0.047 C 
ATOM      9  C   UNL     1       8.283  -4.461  24.194  0.00  0.00    +0.124 A 
ATOM     10  C   UNL     1       7.794  -4.799  22.927  0.00  0.00    +0.049 A 
ENDBRANCH   2   9
ENDBRANCH   1   2
BRANCH   1  11
ATOM     11  C   UNL     1       9.459  -1.485  24.672  0.00  0.00    +0.042 C 
BRANCH  11  12
ATOM     12  C   UNL     1       8.720  -0.375  23.908  0.00  0.00    +0.021 C 
BRANCH  12  13
ATOM     13  C   UNL     1       9.554   0.901  23.620  0.00  0.00    +0.062 C 
ATOM     14  C   UNL     1      10.929   0.858  24.305  0.00  0.00    +0.022 C 
ATOM     15  C   UNL     1       8.804   2.155  24.113  0.00  0.00    +0.022 C 
BRANCH  13  16
ATOM     16  C   UNL     1       9.753   1.034  22.101  0.00  0.00    +0.310 C 
ATOM     17  O   UNL     1       9.482   0.160  21.288  0.00  0.00    -0.250 OA
BRANCH  16  18
ATOM     18  O   UNL     1      10.268   2.220  21.702  0.00  0.00    -0.480 OA
ATOM     19  H   UNL     1      10.841   2.662  22.352  0.00  0.00    +0.295 HD
ENDBRANCH  16  18
ENDBRANCH  13  16
ENDBRANCH  12  13
ENDBRANCH  11  12
ENDBRANCH   1  11
TORSDOF 7
ENDMDL
MODEL 2
REMARK VINA RESULT:      -6.0      2.058      6.789
REMARK  Name = 
REMARK  11 active torsions:
REMARK  status: ('A' for Active; 'I' for Inactive)
REMARK    1  A    between atoms: C_1  and  C_2
REMARK    2  A    between atoms: C_4  and  O_5
REMARK    3  A    between atoms: O_5  and  C_6
REMARK    4  A    between atoms: C_6  and  C_7
REMARK    5  A    between atoms: C_7  and  C_8
REMARK    6  A    between atoms: C_8  and  C_9
REMARK    7  A    between atoms: C_9  and  C_10
REMARK    8  A    between atoms: C_9  and  C_11
REMARK    9  A    between atoms: C_9  and  C_12
REMARK   10  A    between atoms: C_12  and  O_13
REMARK   11  A    between atoms: C_15  and  C_16
REMARK                            x       y       z     vdW  Elec       q    Type
REMARK                         _______ _______ _______ _____ _____    ______ ____
ROOT
ATOM      1  C   UNL     1       8.769  -0.980  25.928  0.00  0.00    +0.229 C 
ENDROOT
BRANCH   1   2
ATOM      2  O   UNL     1       9.707  -1.138  24.862  0.00  0.00    -0.492 OA
BRANCH   2   9
ATOM      3  C   UNL     1      10.945   3.461  23.473  0.00  0.00    +0.044 C 
ATOM      4  C   UNL     1      10.375   2.104  23.183  0.00  0.00    -0.047 A 
ATOM      5  C   UNL     1       9.987   1.771  21.882  0.00  0.00    +0.004 A 
ATOM      6  C   UNL     1       9.522   0.488  21.597  0.00  0.00    +0.007 A 
ATOM      7  C   UNL     1       9.431  -0.485  22.605  0.00  0.00    -0.009 A 
ATOM      8  C   UNL     1       8.962  -1.861  22.220  0.00  0.00    +0.047 C 
ATOM      9  C   UNL     1       9.782  -0.145  23.921  0.00  0.00    +0.124 A 
ATOM     10  C   UNL     1      10.272   1.138  24.194  0.00  0.00    +0.049 A 
ENDBRANCH   2   9
ENDBRANCH   1   2
BRANCH   1  11
ATOM     11  C   UNL     1       8.237  -2.334  26.404  0.00  0.00    +0.042 C 
BRANCH  11  12
ATOM     12  C   UNL     1       7.530  -3.103  25.278  0.00  0.00    +0.021 C 
BRANCH  12  13
ATOM     13  C   UNL     1       8.010  -4.564  25.068  0.00  0.00    +0.062 C 
ATOM     14  C   UNL     1       9.532  -4.700  25.235  0.00  0.00    +0.022 C 
ATOM     15  C   UNL     1       7.629  -5.057  23.658  0.00  0.00    +0.022 C 
BRANCH  13  16
ATOM     16  C   UNL     1       7.309  -5.470  26.094  0.00  0.00    +0.310 C 
ATOM     17  O   UNL     1       6.135  -5.808  26.032  0.00  0.00    -0.250 OA
BRANCH  16  18
ATOM     18  O   UNL     1       8.100  -5.887  27.110  0.00  0.00    -0.480 OA
ATOM     19  H   UNL     1       8.138  -5.288  27.876  0.00  0.00    +0.295 HD
ENDBRANCH  16  18
ENDBRANCH  13  16
ENDBRANCH  12  13
ENDBRANCH  11  12
ENDBRANCH   1  11
TORSDOF 7
ENDMDL
MODEL 3
REMARK VINA RESULT:      -5.9      1.938      6.533
REMARK  Name = 
REMARK  11 active torsions:
REMARK  status: ('A' for Active; 'I' for Inactive)
REMARK    1  A    between atoms: C_1  and  C_2
REMARK    2  A    between atoms: C_4  and  O_5
REMARK    3  A    between atoms: O_5  and  C_6
REMARK    4  A    between atoms: C_6  and  C_7
REMARK    5  A    between atoms: C_7  and  C_8
REMARK    6  A    between atoms: C_8  and  C_9
REMARK    7  A    between atoms: C_9  and  C_10
REMARK    8  A    between atoms: C_9  and  C_11
REMARK    9  A    between atoms: C_9  and  C_12
REMARK   10  A    between atoms: C_12  and  O_13
REMARK   11  A    between atoms: C_15  and  C_16
REMARK                            x       y       z     vdW  Elec       q    Type
REMARK                         _______ _______ _______ _____ _____    ______ ____
ROOT
ATOM      1  C   UNL     1       8.927  -1.044  25.975  0.00  0.00    +0.229 C 
ENDROOT
BRANCH   1   2
ATOM      2  O   UNL     1       9.606  -1.291  24.742  0.00  0.00    -0.492 OA
BRANCH   2   9
ATOM      3  C   UNL     1      10.905   3.337  23.514  0.00  0.00    +0.044 C 
ATOM      4  C   UNL     1      10.310   2.001  23.179  0.00  0.00    -0.047 A 
ATOM      5  C   UNL     1       9.904   1.724  21.871  0.00  0.00    +0.004 A 
ATOM      6  C   UNL     1       9.415   0.460  21.543  0.00  0.00    +0.007 A 
ATOM      7  C   UNL     1       9.318  -0.549  22.514  0.00  0.00    -0.009 A 
ATOM      8  C   UNL     1       8.823  -1.902  22.083  0.00  0.00    +0.047 C 
ATOM      9  C   UNL     1       9.688  -0.264  23.839  0.00  0.00    +0.124 A 
ATOM     10  C   UNL     1      10.201   0.999  24.155  0.00  0.00    +0.049 A 
ENDBRANCH   2   9
ENDBRANCH   1   2
BRANCH   1  11
ATOM     11  C   UNL     1       8.076  -2.246  26.390  0.00  0.00    +0.042 C 
BRANCH  11  12
ATOM     12  C   UNL     1       7.475  -2.972  25.176  0.00  0.00    +0.021 C 
BRANCH  12  13
ATOM     13  C   UNL     1       7.740  -4.500  25.118  0.00  0.00    +0.062 C 
ATOM     14  C   UNL     1       7.382  -5.095  23.746  0.00  0.00    +0.022 C 
ATOM     15  C   UNL     1       6.911  -5.230  26.195  0.00  0.00    +0.022 C 
BRANCH  13  16
ATOM     16  C   UNL     1       9.227  -4.760  25.406  0.00  0.00    +0.310 C 
ATOM     17  O   UNL     1      10.134  -4.546  24.612  0.00  0.00    -0.250 OA
BRANCH  16  18
ATOM     18  O   UNL     1       9.484  -5.259  26.637  0.00  0.00    -0.480 OA
ATOM     19  H   UNL     1      10.426  -5.302  26.877  0.00  0.00    +0.295 HD
ENDBRANCH  16  18
ENDBRANCH  13  16
ENDBRANCH  12  13
ENDBRANCH  11  12
ENDBRANCH   1  11
TORSDOF 7
ENDMDL
MODEL 4
REMARK VINA RESULT:      -5.5      1.875      2.744
REMARK  Name = 
REMARK  11 active torsions:
REMARK  status: ('A' for Active; 'I' for Inactive)
REMARK    1  A    between atoms: C_1  and  C_2
REMARK    2  A    between atoms: C_4  and  O_5
REMARK    3  A    between atoms: O_5  and  C_6
REMARK    4  A    between atoms: C_6  and  C_7
REMARK    5  A    between atoms: C_7  and  C_8
REMARK    6  A    between atoms: C_8  and  C_9
REMARK    7  A    between atoms: C_9  and  C_10
REMARK    8  A    between atoms: C_9  and  C_11
REMARK    9  A    between atoms: C_9  and  C_12
REMARK   10  A    between atoms: C_12  and  O_13
REMARK   11  A    between atoms: C_15  and  C_16
REMARK                            x       y       z     vdW  Elec       q    Type
REMARK                         _______ _______ _______ _____ _____    ______ ____
ROOT
ATOM      1  C   UNL     1       9.078  -0.816  21.820  0.00  0.00    +0.229 C 
ENDROOT
BRANCH   1   2
ATOM      2  O   UNL     1       7.993  -1.208  22.663  0.00  0.00    -0.492 OA
BRANCH   2   9
ATOM      3  C   UNL     1       6.482  -5.691  21.170  0.00  0.00    +0.044 C 
ATOM      4  C   UNL     1       7.081  -4.775  22.197  0.00  0.00    -0.047 A 
ATOM      5  C   UNL     1       7.568  -5.295  23.398  0.00  0.00    +0.004 A 
ATOM      6  C   UNL     1       8.187  -4.455  24.324  0.00  0.00    +0.007 A 
ATOM      7  C   UNL     1       8.327  -3.081  24.069  0.00  0.00    -0.009 A 
ATOM      8  C   UNL     1       9.042  -2.241  25.090  0.00  0.00    +0.047 C 
ATOM      9  C   UNL     1       7.803  -2.547  22.881  0.00  0.00    +0.124 A 
ATOM     10  C   UNL     1       7.206  -3.401  21.946  0.00  0.00    +0.049 A 
ENDBRANCH   2   9
ENDBRANCH   1   2
BRANCH   1  11
ATOM     11  C   UNL     1       8.983   0.666  21.448  0.00  0.00    +0.042 C 
BRANCH  11  12
ATOM     12  C   UNL     1      10.132   1.487  22.055  0.00  0.00    +0.021 C 
BRANCH  12  13
ATOM     13  C   UNL     1       9.734   2.426  23.223  0.00  0.00    +0.062 C 
ATOM     14  C   UNL     1       8.429   3.185  22.933  0.00  0.00    +0.022 C 
ATOM     15  C   UNL     1      10.848   3.459  23.487  0.00  0.00    +0.022 C 
BRANCH  13  16
ATOM     16  C   UNL     1       9.553   1.586  24.498  0.00  0.00    +0.310 C 
ATOM     17  O   UNL     1       8.500   1.480  25.114  0.00  0.00    -0.250 OA
BRANCH  16  18
ATOM     18  O   UNL     1      10.670   0.947  24.915  0.00  0.00    -0.480 OA
ATOM     19  H   UNL     1      10.602  -0.023  24.953  0.00  0.00    +0.295 HD
ENDBRANCH  16  18
ENDBRANCH  13  16
ENDBRANCH  12  13
ENDBRANCH  11  12
ENDBRANCH   1  11
TORSDOF 7
ENDMDL
MODEL 5
REMARK VINA RESULT:      -5.5      1.785      2.247
REMARK  Name = 
REMARK  11 active torsions:
REMARK  status: ('A' for Active; 'I' for Inactive)
REMARK    1  A    between atoms: C_1  and  C_2
REMARK    2  A    between atoms: C_4  and  O_5
REMARK    3  A    between atoms: O_5  and  C_6
REMARK    4  A    between atoms: C_6  and  C_7
REMARK    5  A    between atoms: C_7  and  C_8
REMARK    6  A    between atoms: C_8  and  C_9
REMARK    7  A    between atoms: C_9  and  C_10
REMARK    8  A    between atoms: C_9  and  C_11
REMARK    9  A    between atoms: C_9  and  C_12
REMARK   10  A    between atoms: C_12  and  O_13
REMARK   11  A    between atoms: C_15  and  C_16
REMARK                            x       y       z     vdW  Elec       q    Type
REMARK                         _______ _______ _______ _____ _____    ______ ____
ROOT
ATOM      1  C   UNL     1       9.905  -1.954  23.297  0.00  0.00    +0.229 C 
ENDROOT
BRANCH   1   2
ATOM      2  O   UNL     1       8.719  -2.052  24.088  0.00  0.00    -0.492 OA
BRANCH   2   9
ATOM      3  C   UNL     1       6.856  -5.926  21.611  0.00  0.00    +0.044 C 
ATOM      4  C   UNL     1       6.691  -4.639  22.364  0.00  0.00    -0.047 A 
ATOM      5  C   UNL     1       5.412  -4.159  22.657  0.00  0.00    +0.004 A 
ATOM      6  C   UNL     1       5.256  -3.000  23.417  0.00  0.00    +0.007 A 
ATOM      7  C   UNL     1       6.374  -2.297  23.895  0.00  0.00    -0.009 A 
ATOM      8  C   UNL     1       6.134  -1.080  24.744  0.00  0.00    +0.047 C 
ATOM      9  C   UNL     1       7.661  -2.753  23.570  0.00  0.00    +0.124 A 
ATOM     10  C   UNL     1       7.809  -3.931  22.828  0.00  0.00    +0.049 A 
ENDBRANCH   2   9
ENDBRANCH   1   2
BRANCH   1  11
ATOM     11  C   UNL     1      10.502  -0.546  23.366  0.00  0.00    +0.042 C 
BRANCH  11  12
ATOM     12  C   UNL     1       9.720   0.365  24.326  0.00  0.00    +0.021 C 
BRANCH  12  13
ATOM     13  C   UNL     1       9.108   1.638  23.685  0.00  0.00    +0.062 C 
ATOM     14  C   UNL     1       8.474   2.564  24.736  0.00  0.00    +0.022 C 
ATOM     15  C   UNL     1       8.025   1.255  22.657  0.00  0.00    +0.022 C 
BRANCH  13  16
ATOM     16  C   UNL     1      10.217   2.405  22.945  0.00  0.00    +0.310 C 
ATOM     17  O   UNL     1      11.084   3.070  23.495  0.00  0.00    -0.250 OA
BRANCH  16  18
ATOM     18  O   UNL     1      10.173   2.296  21.597  0.00  0.00    -0.480 OA
ATOM     19  H   UNL     1       9.295   2.427  21.200  0.00  0.00    +0.295 HD
ENDBRANCH  16  18
ENDBRANCH  13  16
ENDBRANCH  12  13
ENDBRANCH  11  12
ENDBRANCH   1  11
TORSDOF 7
ENDMDL
MODEL 6
REMARK VINA RESULT:      -5.4      1.942      6.764
REMARK  Name = 
REMARK  11 active torsions:
REMARK  status: ('A' for Active; 'I' for Inactive)
REMARK    1  A    between atoms: C_1  and  C_2
REMARK    2  A    between atoms: C_4  and  O_5
REMARK    3  A    between atoms: O_5  and  C_6
REMARK    4  A    between atoms: C_6  and  C_7
REMARK    5  A    between atoms: C_7  and  C_8
REMARK    6  A    between atoms: C_8  and  C_9
REMARK    7  A    between atoms: C_9  and  C_10
REMARK    8  A    between atoms: C_9  and  C_11
REMARK    9  A    between atoms: C_9  and  C_12
REMARK   10  A    between atoms: C_12  and  O_13
REMARK   11  A    between atoms: C_15  and  C_16
REMARK                            x       y       z     vdW  Elec       q    Type
REMARK                         _______ _______ _______ _____ _____    ______ ____
ROOT
ATOM      1  C   UNL     1       6.253  -1.246  24.151  0.00  0.00    +0.229 C 
ENDROOT
BRANCH   1   2
ATOM      2  O   UNL     1       7.334  -1.068  23.233  0.00  0.00    -0.492 OA
BRANCH   2   9
ATOM      3  C   UNL     1       8.927   3.464  24.471  0.00  0.00    +0.044 C 
ATOM      4  C   UNL     1       9.170   2.009  24.199  0.00  0.00    -0.047 A 
ATOM      5  C   UNL     1      10.441   1.463  24.400  0.00  0.00    +0.004 A 
ATOM      6  C   UNL     1      10.652   0.097  24.215  0.00  0.00    +0.007 A 
ATOM      7  C   UNL     1       9.602  -0.748  23.823  0.00  0.00    -0.009 A 
ATOM      8  C   UNL     1       9.890  -2.217  23.683  0.00  0.00    +0.047 C 
ATOM      9  C   UNL     1       8.333  -0.198  23.582  0.00  0.00    +0.124 A 
ATOM     10  C   UNL     1       8.123   1.170  23.794  0.00  0.00    +0.049 A 
ENDBRANCH   2   9
ENDBRANCH   1   2
BRANCH   1  11
ATOM     11  C   UNL     1       5.958  -2.731  24.379  0.00  0.00    +0.042 C 
BRANCH  11  12
ATOM     12  C   UNL     1       6.695  -3.282  25.609  0.00  0.00    +0.021 C 
BRANCH  12  13
ATOM     13  C   UNL     1       7.109  -4.774  25.523  0.00  0.00    +0.062 C 
ATOM     14  C   UNL     1       7.687  -5.133  24.144  0.00  0.00    +0.022 C 
ATOM     15  C   UNL     1       5.895  -5.685  25.794  0.00  0.00    +0.022 C 
BRANCH  13  16
ATOM     16  C   UNL     1       8.168  -5.061  26.600  0.00  0.00    +0.310 C 
ATOM     17  O   UNL     1       9.294  -4.581  26.610  0.00  0.00    -0.250 OA
BRANCH  16  18
ATOM     18  O   UNL     1       7.765  -5.908  27.575  0.00  0.00    -0.480 OA
ATOM     19  H   UNL     1       8.083  -6.823  27.485  0.00  0.00    +0.295 HD
ENDBRANCH  16  18
ENDBRANCH  13  16
ENDBRANCH  12  13
ENDBRANCH  11  12
ENDBRANCH   1  11
TORSDOF 7
ENDMDL
MODEL 7
REMARK VINA RESULT:      -5.4      1.099      2.596
REMARK  Name = 
REMARK  11 active torsions:
REMARK  status: ('A' for Active; 'I' for Inactive)
REMARK    1  A    between atoms: C_1  and  C_2
REMARK    2  A    between atoms: C_4  and  O_5
REMARK    3  A    between atoms: O_5  and  C_6
REMARK    4  A    between atoms: C_6  and  C_7
REMARK    5  A    between atoms: C_7  and  C_8
REMARK    6  A    between atoms: C_8  and  C_9
REMARK    7  A    between atoms: C_9  and  C_10
REMARK    8  A    between atoms: C_9  and  C_11
REMARK    9  A    between atoms: C_9  and  C_12
REMARK   10  A    between atoms: C_12  and  O_13
REMARK   11  A    between atoms: C_15  and  C_16
REMARK                            x       y       z     vdW  Elec       q    Type
REMARK                         _______ _______ _______ _____ _____    ______ ____
ROOT
ATOM      1  C   UNL     1       9.055  -2.635  23.488  0.00  0.00    +0.229 C 
ENDROOT
BRANCH   1   2
ATOM      2  O   UNL     1       8.523  -3.854  22.966  0.00  0.00    -0.492 OA
BRANCH   2   9
ATOM      3  C   UNL     1       6.673  -5.180  27.374  0.00  0.00    +0.044 C 
ATOM      4  C   UNL     1       6.664  -5.218  25.874  0.00  0.00    -0.047 A 
ATOM      5  C   UNL     1       5.640  -5.887  25.198  0.00  0.00    +0.004 A 
ATOM      6  C   UNL     1       5.592  -5.864  23.805  0.00  0.00    +0.007 A 
ATOM      7  C   UNL     1       6.565  -5.178  23.061  0.00  0.00    -0.009 A 
ATOM      8  C   UNL     1       6.428  -5.159  21.563  0.00  0.00    +0.047 C 
ATOM      9  C   UNL     1       7.617  -4.538  23.734  0.00  0.00    +0.124 A 
ATOM     10  C   UNL     1       7.645  -4.544  25.134  0.00  0.00    +0.049 A 
ENDBRANCH   2   9
ENDBRANCH   1   2
BRANCH   1  11
ATOM     11  C   UNL     1       8.783  -1.462  22.542  0.00  0.00    +0.042 C 
BRANCH  11  12
ATOM     12  C   UNL     1       9.954  -0.468  22.505  0.00  0.00    +0.021 C 
BRANCH  12  13
ATOM     13  C   UNL     1       9.827   0.745  23.463  0.00  0.00    +0.062 C 
ATOM     14  C   UNL     1      10.727   0.599  24.700  0.00  0.00    +0.022 C 
ATOM     15  C   UNL     1       8.369   0.904  23.938  0.00  0.00    +0.022 C 
BRANCH  13  16
ATOM     16  C   UNL     1      10.222   2.023  22.704  0.00  0.00    +0.310 C 
ATOM     17  O   UNL     1      10.829   2.963  23.199  0.00  0.00    -0.250 OA
BRANCH  16  18
ATOM     18  O   UNL     1       9.843   2.046  21.405  0.00  0.00    -0.480 OA
ATOM     19  H   UNL     1       9.105   2.645  21.200  0.00  0.00    +0.295 HD
ENDBRANCH  16  18
ENDBRANCH  13  16
ENDBRANCH  12  13
ENDBRANCH  11  12
ENDBRANCH   1  11
TORSDOF 7
ENDMDL
MODEL 8
REMARK VINA RESULT:      -5.3      1.781      3.173
REMARK  Name = 
REMARK  11 active torsions:
REMARK  status: ('A' for Active; 'I' for Inactive)
REMARK    1  A    between atoms: C_1  and  C_2
REMARK    2  A    between atoms: C_4  and  O_5
REMARK    3  A    between atoms: O_5  and  C_6
REMARK    4  A    between atoms: C_6  and  C_7
REMARK    5  A    between atoms: C_7  and  C_8
REMARK    6  A    between atoms: C_8  and  C_9
REMARK    7  A    between atoms: C_9  and  C_10
REMARK    8  A    between atoms: C_9  and  C_11
REMARK    9  A    between atoms: C_9  and  C_12
REMARK   10  A    between atoms: C_12  and  O_13
REMARK   11  A    between atoms: C_15  and  C_16
REMARK                            x       y       z     vdW  Elec       q    Type
REMARK                         _______ _______ _______ _____ _____    ______ ____
ROOT
ATOM      1  C   UNL     1       6.571  -3.245  22.132  0.00  0.00    +0.229 C 
ENDROOT
BRANCH   1   2
ATOM      2  O   UNL     1       6.069  -4.405  22.801  0.00  0.00    -0.492 OA
BRANCH   2   9
ATOM      3  C   UNL     1      10.019  -5.282  25.673  0.00  0.00    +0.044 C 
ATOM      4  C   UNL     1       8.536  -5.179  25.463  0.00  0.00    -0.047 A 
ATOM      5  C   UNL     1       7.665  -5.329  26.545  0.00  0.00    +0.004 A 
ATOM      6  C   UNL     1       6.292  -5.166  26.366  0.00  0.00    +0.007 A 
ATOM      7  C   UNL     1       5.763  -4.854  25.103  0.00  0.00    -0.009 A 
ATOM      8  C   UNL     1       4.278  -4.650  24.988  0.00  0.00    +0.047 C 
ATOM      9  C   UNL     1       6.630  -4.742  24.005  0.00  0.00    +0.124 A 
ATOM     10  C   UNL     1       8.009  -4.883  24.198  0.00  0.00    +0.049 A 
ENDBRANCH   2   9
ENDBRANCH   1   2
BRANCH   1  11
ATOM     11  C   UNL     1       6.472  -2.005  23.024  0.00  0.00    +0.042 C 
BRANCH  11  12
ATOM     12  C   UNL     1       7.524  -0.947  22.658  0.00  0.00    +0.021 C 
BRANCH  12  13
ATOM     13  C   UNL     1       8.790  -0.930  23.556  0.00  0.00    +0.062 C 
ATOM     14  C   UNL     1       8.503  -1.474  24.965  0.00  0.00    +0.022 C 
ATOM     15  C   UNL     1       9.333   0.507  23.691  0.00  0.00    +0.022 C 
BRANCH  13  16
ATOM     16  C   UNL     1       9.880  -1.791  22.898  0.00  0.00    +0.310 C 
ATOM     17  O   UNL     1      10.530  -2.650  23.479  0.00  0.00    -0.250 OA
BRANCH  16  18
ATOM     18  O   UNL     1      10.086  -1.533  21.585  0.00  0.00    -0.480 OA
ATOM     19  H   UNL     1      10.648  -2.177  21.121  0.00  0.00    +0.295 HD
ENDBRANCH  16  18
ENDBRANCH  13  16
ENDBRANCH  12  13
ENDBRANCH  11  12
ENDBRANCH   1  11
TORSDOF 7
ENDMDL
MODEL 9
REMARK VINA RESULT:      -5.2      2.692      6.223
REMARK  Name = 
REMARK  11 active torsions:
REMARK  status: ('A' for Active; 'I' for Inactive)
REMARK    1  A    between atoms: C_1  and  C_2
REMARK    2  A    between atoms: C_4  and  O_5
REMARK    3  A    between atoms: O_5  and  C_6
REMARK    4  A    between atoms: C_6  and  C_7
REMARK    5  A    between atoms: C_7  and  C_8
REMARK    6  A    between atoms: C_8  and  C_9
REMARK    7  A    between atoms: C_9  and  C_10
REMARK    8  A    between atoms: C_9  and  C_11
REMARK    9  A    between atoms: C_9  and  C_12
REMARK   10  A    between atoms: C_12  and  O_13
REMARK   11  A    between atoms: C_15  and  C_16
REMARK                            x       y       z     vdW  Elec       q    Type
REMARK                         _______ _______ _______ _____ _____    ______ ____
ROOT
ATOM      1  C   UNL     1       5.552  -1.596  24.652  0.00  0.00    +0.229 C 
ENDROOT
BRANCH   1   2
ATOM      2  O   UNL     1       6.861  -1.444  25.206  0.00  0.00    -0.492 OA
BRANCH   2   9
ATOM      3  C   UNL     1       9.441   0.442  21.412  0.00  0.00    +0.044 C 
ATOM      4  C   UNL     1       9.238  -0.583  22.489  0.00  0.00    -0.047 A 
ATOM      5  C   UNL     1      10.211  -1.559  22.719  0.00  0.00    +0.004 A 
ATOM      6  C   UNL     1      10.056  -2.468  23.764  0.00  0.00    +0.007 A 
ATOM      7  C   UNL     1       8.926  -2.423  24.597  0.00  0.00    -0.009 A 
ATOM      8  C   UNL     1       8.843  -3.406  25.732  0.00  0.00    +0.047 C 
ATOM      9  C   UNL     1       7.927  -1.469  24.346  0.00  0.00    +0.124 A 
ATOM     10  C   UNL     1       8.102  -0.544  23.310  0.00  0.00    +0.049 A 
ENDBRANCH   2   9
ENDBRANCH   1   2
BRANCH   1  11
ATOM     11  C   UNL     1       5.228  -3.070  24.394  0.00  0.00    +0.042 C 
BRANCH  11  12
ATOM     12  C   UNL     1       5.411  -3.450  22.916  0.00  0.00    +0.021 C 
BRANCH  12  13
ATOM     13  C   UNL     1       5.754  -4.939  22.650  0.00  0.00    +0.062 C 
ATOM     14  C   UNL     1       6.945  -5.415  23.497  0.00  0.00    +0.022 C 
ATOM     15  C   UNL     1       6.098  -5.154  21.163  0.00  0.00    +0.022 C 
BRANCH  13  16
ATOM     16  C   UNL     1       4.525  -5.801  22.984  0.00  0.00    +0.310 C 
ATOM     17  O   UNL     1       3.373  -5.507  22.692  0.00  0.00    -0.250 OA
BRANCH  16  18
ATOM     18  O   UNL     1       4.804  -6.948  23.644  0.00  0.00    -0.480 OA
ATOM     19  H   UNL     1       4.070  -7.585  23.694  0.00  0.00    +0.295 HD
ENDBRANCH  16  18
ENDBRANCH  13  16
ENDBRANCH  12  13
ENDBRANCH  11  12
ENDBRANCH   1  11
TORSDOF 7
ENDMDL
