MODEL 1
REMARK VINA RESULT:      -6.3      0.000      0.000
REMARK  Name = 
REMARK  10 active torsions:
REMARK  status: ('A' for Active; 'I' for Inactive)
REMARK    1  A    between atoms: C_1  and  C_2
REMARK    2  A    between atoms: C_2  and  C_3
REMARK    3  A    between atoms: C_3  and  N_5
REMARK    4  A    between atoms: C_3  and  C_9
REMARK    5  A    between atoms: N_5  and  C_6
REMARK    6  A    between atoms: C_6  and  C_7
REMARK    7  A    between atoms: C_6  and  C_8
REMARK    8  A    between atoms: C_9  and  O_11
REMARK    9  A    between atoms: C_9  and  C_12
REMARK   10  A    between atoms: C_20  and  O_21
REMARK                            x       y       z     vdW  Elec       q    Type
REMARK                         _______ _______ _______ _____ _____    ______ ____
ROOT
ATOM      1  C   UNL     1       8.560  -2.808  23.546  0.00  0.00    -0.008 A 
ATOM      2  C   UNL     1       7.873  -2.369  22.390  0.00  0.00    +0.010 A 
ATOM      3  C   UNL     1       6.592  -2.821  22.080  0.00  0.00    +0.048 A 
ATOM      4  C   UNL     1       5.965  -3.735  22.912  0.00  0.00    +0.141 A 
ATOM      5  C   UNL     1       6.609  -4.198  24.065  0.00  0.00    +0.091 A 
ATOM      6  N   UNL     1       5.980  -5.146  24.897  0.00  0.00    -0.319 N 
ATOM      7  H   UNL     1       5.088  -5.551  24.667  0.00  0.00    +0.169 HD
ATOM      8  C   UNL     1       6.531  -5.642  26.041  0.00  0.00    +0.249 A 
ATOM      9  O   UNL     1       5.949  -6.464  26.741  0.00  0.00    -0.268 OA
ATOM     10  C   UNL     1       7.867  -5.140  26.407  0.00  0.00    +0.071 A 
ATOM     11  C   UNL     1       8.510  -4.252  25.640  0.00  0.00    +0.016 A 
ATOM     12  C   UNL     1       7.907  -3.730  24.401  0.00  0.00    +0.008 A 
ENDROOT
BRANCH   4  13
ATOM     13  O   UNL     1       4.713  -4.129  22.529  0.00  0.00    -0.505 OA
ATOM     14  H   UNL     1       4.185  -3.347  22.319  0.00  0.00    +0.292 HD
ENDBRANCH   4  13
BRANCH   1  15
ATOM     15  C   UNL     1       9.976  -2.280  23.775  0.00  0.00    +0.162 C 
BRANCH  15  16
ATOM     16  O   UNL     1      10.587  -2.207  22.479  0.00  0.00    -0.386 OA
ATOM     17  H   UNL     1      10.017  -1.649  21.924  0.00  0.00    +0.210 HD
ENDBRANCH  15  16
BRANCH  15  18
ATOM     18  C   UNL     1      10.021  -0.879  24.488  0.00  0.00    +0.087 C 
BRANCH  18  20
ATOM     19  C   UNL     1       8.575  -0.690  26.651  0.00  0.00    +0.005 C 
ATOM     20  C   UNL     1       8.670  -0.497  25.145  0.00  0.00    +0.018 C 
ENDBRANCH  18  20
BRANCH  18  21
ATOM     21  N   UNL     1      10.541   0.151  23.567  0.00  0.00    -0.308 NA
ATOM     22  H   UNL     1      10.965  -0.280  22.747  0.00  0.00    +0.123 HD
BRANCH  21  23
ATOM     23  C   UNL     1       9.596   1.194  23.152  0.00  0.00    +0.048 C 
ATOM     24  C   UNL     1       9.354   1.036  21.648  0.00  0.00    +0.023 C 
ATOM     25  C   UNL     1      10.097   2.614  23.431  0.00  0.00    +0.023 C 
ENDBRANCH  21  23
ENDBRANCH  18  21
ENDBRANCH  15  18
ENDBRANCH   1  15
TORSDOF 7
ENDMDL
MODEL 2
REMARK VINA RESULT:      -6.1      1.114      2.361
REMARK  Name = 
REMARK  10 active torsions:
REMARK  status: ('A' for Active; 'I' for Inactive)
REMARK    1  A    between atoms: C_1  and  C_2
REMARK    2  A    between atoms: C_2  and  C_3
REMARK    3  A    between atoms: C_3  and  N_5
REMARK    4  A    between atoms: C_3  and  C_9
REMARK    5  A    between atoms: N_5  and  C_6
REMARK    6  A    between atoms: C_6  and  C_7
REMARK    7  A    between atoms: C_6  and  C_8
REMARK    8  A    between atoms: C_9  and  O_11
REMARK    9  A    between atoms: C_9  and  C_12
REMARK   10  A    between atoms: C_20  and  O_21
REMARK                            x       y       z     vdW  Elec       q    Type
REMARK                         _______ _______ _______ _____ _____    ______ ____
ROOT
ATOM      1  C   UNL     1       8.409  -2.722  23.243  0.00  0.00    -0.008 A 
ATOM      2  C   UNL     1       7.486  -2.813  22.175  0.00  0.00    +0.010 A 
ATOM      3  C   UNL     1       6.386  -3.667  22.223  0.00  0.00    +0.048 A 
ATOM      4  C   UNL     1       6.185  -4.465  23.338  0.00  0.00    +0.141 A 
ATOM      5  C   UNL     1       7.076  -4.409  24.417  0.00  0.00    +0.091 A 
ATOM      6  N   UNL     1       6.883  -5.239  25.540  0.00  0.00    -0.319 N 
ATOM      7  H   UNL     1       6.144  -5.922  25.580  0.00  0.00    +0.169 HD
ATOM      8  C   UNL     1       7.694  -5.242  26.636  0.00  0.00    +0.249 A 
ATOM      9  O   UNL     1       7.491  -5.977  27.595  0.00  0.00    -0.268 OA
ATOM     10  C   UNL     1       8.836  -4.311  26.619  0.00  0.00    +0.071 A 
ATOM     11  C   UNL     1       9.069  -3.515  25.567  0.00  0.00    +0.016 A 
ATOM     12  C   UNL     1       8.189  -3.528  24.386  0.00  0.00    +0.008 A 
ENDROOT
BRANCH   4  13
ATOM     13  O   UNL     1       5.087  -5.278  23.300  0.00  0.00    -0.505 OA
ATOM     14  H   UNL     1       5.332  -6.123  22.901  0.00  0.00    +0.292 HD
ENDBRANCH   4  13
BRANCH   1  15
ATOM     15  C   UNL     1       9.602  -1.782  23.073  0.00  0.00    +0.162 C 
BRANCH  15  16
ATOM     16  O   UNL     1      10.008  -1.897  21.702  0.00  0.00    -0.386 OA
ATOM     17  H   UNL     1      10.496  -2.732  21.616  0.00  0.00    +0.210 HD
ENDBRANCH  15  16
BRANCH  15  18
ATOM     18  C   UNL     1       9.283  -0.284  23.432  0.00  0.00    +0.087 C 
BRANCH  18  20
ATOM     19  C   UNL     1       9.246   1.695  21.731  0.00  0.00    +0.005 C 
ATOM     20  C   UNL     1      10.075   0.723  22.559  0.00  0.00    +0.018 C 
ENDBRANCH  18  20
BRANCH  18  21
ATOM     21  N   UNL     1       9.439  -0.056  24.882  0.00  0.00    -0.308 NA
ATOM     22  H   UNL     1      10.239   0.547  25.067  0.00  0.00    +0.123 HD
BRANCH  21  23
ATOM     23  C   UNL     1       8.260   0.445  25.596  0.00  0.00    +0.048 C 
ATOM     24  C   UNL     1       8.105  -0.375  26.881  0.00  0.00    +0.023 C 
ATOM     25  C   UNL     1       6.968   0.343  24.781  0.00  0.00    +0.023 C 
ENDBRANCH  21  23
ENDBRANCH  18  21
ENDBRANCH  15  18
ENDBRANCH   1  15
TORSDOF 7
ENDMDL
MODEL 3
REMARK VINA RESULT:      -5.8      2.133      2.584
REMARK  Name = 
REMARK  10 active torsions:
REMARK  status: ('A' for Active; 'I' for Inactive)
REMARK    1  A    between atoms: C_1  and  C_2
REMARK    2  A    between atoms: C_2  and  C_3
REMARK    3  A    between atoms: C_3  and  N_5
REMARK    4  A    between atoms: C_3  and  C_9
REMARK    5  A    between atoms: N_5  and  C_6
REMARK    6  A    between atoms: C_6  and  C_7
REMARK    7  A    between atoms: C_6  and  C_8
REMARK    8  A    between atoms: C_9  and  O_11
REMARK    9  A    between atoms: C_9  and  C_12
REMARK   10  A    between atoms: C_20  and  O_21
REMARK                            x       y       z     vdW  Elec       q    Type
REMARK                         _______ _______ _______ _____ _____    ______ ____
ROOT
ATOM      1  C   UNL     1       7.522  -4.581  24.061  0.00  0.00    -0.008 A 
ATOM      2  C   UNL     1       7.804  -4.365  22.692  0.00  0.00    +0.010 A 
ATOM      3  C   UNL     1       7.044  -4.954  21.682  0.00  0.00    +0.048 A 
ATOM      4  C   UNL     1       5.987  -5.786  22.015  0.00  0.00    +0.141 A 
ATOM      5  C   UNL     1       5.675  -6.029  23.358  0.00  0.00    +0.091 A 
ATOM      6  N   UNL     1       4.615  -6.896  23.694  0.00  0.00    -0.319 N 
ATOM      7  H   UNL     1       4.092  -7.398  22.995  0.00  0.00    +0.169 HD
ATOM      8  C   UNL     1       4.238  -7.181  24.973  0.00  0.00    +0.249 A 
ATOM      9  O   UNL     1       3.308  -7.938  25.224  0.00  0.00    -0.268 OA
ATOM     10  C   UNL     1       5.003  -6.530  26.051  0.00  0.00    +0.071 A 
ATOM     11  C   UNL     1       6.029  -5.713  25.781  0.00  0.00    +0.016 A 
ATOM     12  C   UNL     1       6.431  -5.420  24.394  0.00  0.00    +0.008 A 
ENDROOT
BRANCH   4  13
ATOM     13  O   UNL     1       5.300  -6.326  20.964  0.00  0.00    -0.505 OA
ATOM     14  H   UNL     1       5.899  -6.881  20.445  0.00  0.00    +0.292 HD
ENDBRANCH   4  13
BRANCH   1  15
ATOM     15  C   UNL     1       8.440  -3.919  25.088  0.00  0.00    +0.162 C 
BRANCH  15  16
ATOM     16  O   UNL     1       9.781  -4.230  24.684  0.00  0.00    -0.386 OA
ATOM     17  H   UNL     1       9.980  -5.122  25.013  0.00  0.00    +0.210 HD
ENDBRANCH  15  16
BRANCH  15  18
ATOM     18  C   UNL     1       8.243  -2.362  25.201  0.00  0.00    +0.087 C 
BRANCH  18  20
ATOM     19  C   UNL     1       5.762  -1.747  25.722  0.00  0.00    +0.005 C 
ATOM     20  C   UNL     1       6.861  -1.893  24.679  0.00  0.00    +0.018 C 
ENDBRANCH  18  20
BRANCH  18  21
ATOM     21  N   UNL     1       9.379  -1.652  24.579  0.00  0.00    -0.308 NA
ATOM     22  H   UNL     1      10.152  -2.293  24.405  0.00  0.00    +0.123 HD
BRANCH  21  23
ATOM     23  C   UNL     1       9.084  -0.884  23.364  0.00  0.00    +0.048 C 
ATOM     24  C   UNL     1       9.967  -1.430  22.238  0.00  0.00    +0.023 C 
ATOM     25  C   UNL     1       9.341   0.617  23.518  0.00  0.00    +0.023 C 
ENDBRANCH  21  23
ENDBRANCH  18  21
ENDBRANCH  15  18
ENDBRANCH   1  15
TORSDOF 7
ENDMDL
MODEL 4
REMARK VINA RESULT:      -5.8      2.248      6.320
REMARK  Name = 
REMARK  10 active torsions:
REMARK  status: ('A' for Active; 'I' for Inactive)
REMARK    1  A    between atoms: C_1  and  C_2
REMARK    2  A    between atoms: C_2  and  C_3
REMARK    3  A    between atoms: C_3  and  N_5
REMARK    4  A    between atoms: C_3  and  C_9
REMARK    5  A    between atoms: N_5  and  C_6
REMARK    6  A    between atoms: C_6  and  C_7
REMARK    7  A    between atoms: C_6  and  C_8
REMARK    8  A    between atoms: C_9  and  O_11
REMARK    9  A    between atoms: C_9  and  C_12
REMARK   10  A    between atoms: C_20  and  O_21
REMARK                            x       y       z     vdW  Elec       q    Type
REMARK                         _______ _______ _______ _____ _____    ______ ____
ROOT
ATOM      1  C   UNL     1       8.936  -2.870  25.371  0.00  0.00    -0.008 A 
ATOM      2  C   UNL     1       8.376  -2.446  26.598  0.00  0.00    +0.010 A 
ATOM      3  C   UNL     1       8.122  -1.102  26.865  0.00  0.00    +0.048 A 
ATOM      4  C   UNL     1       8.432  -0.142  25.915  0.00  0.00    +0.141 A 
ATOM      5  C   UNL     1       8.991  -0.518  24.687  0.00  0.00    +0.091 A 
ATOM      6  N   UNL     1       9.328   0.462  23.732  0.00  0.00    -0.319 N 
ATOM      7  H   UNL     1       9.229   1.447  23.918  0.00  0.00    +0.169 HD
ATOM      8  C   UNL     1       9.866   0.184  22.511  0.00  0.00    +0.249 A 
ATOM      9  O   UNL     1      10.143   1.065  21.705  0.00  0.00    -0.268 OA
ATOM     10  C   UNL     1      10.099  -1.236  22.195  0.00  0.00    +0.071 A 
ATOM     11  C   UNL     1       9.810  -2.201  23.078  0.00  0.00    +0.016 A 
ATOM     12  C   UNL     1       9.236  -1.886  24.398  0.00  0.00    +0.008 A 
ENDROOT
BRANCH   4  13
ATOM     13  O   UNL     1       8.156   1.151  26.261  0.00  0.00    -0.505 OA
ATOM     14  H   UNL     1       8.638   1.372  27.070  0.00  0.00    +0.292 HD
ENDBRANCH   4  13
BRANCH   1  15
ATOM     15  C   UNL     1       9.210  -4.363  25.194  0.00  0.00    +0.162 C 
BRANCH  15  16
ATOM     16  O   UNL     1       9.804  -4.808  26.421  0.00  0.00    -0.386 OA
ATOM     17  H   UNL     1      10.255  -5.648  26.234  0.00  0.00    +0.210 HD
ENDBRANCH  15  16
BRANCH  15  18
ATOM     18  C   UNL     1       7.925  -5.208  24.863  0.00  0.00    +0.087 C 
BRANCH  18  20
ATOM     19  C   UNL     1       7.024  -4.669  22.475  0.00  0.00    +0.005 C 
ATOM     20  C   UNL     1       6.914  -4.438  23.975  0.00  0.00    +0.018 C 
ENDBRANCH  18  20
BRANCH  18  21
ATOM     21  N   UNL     1       7.329  -5.746  26.103  0.00  0.00    -0.308 NA
ATOM     22  H   UNL     1       7.887  -5.482  26.914  0.00  0.00    +0.123 HD
BRANCH  21  23
ATOM     23  C   UNL     1       5.917  -5.426  26.341  0.00  0.00    +0.048 C 
ATOM     24  C   UNL     1       5.810  -4.781  27.727  0.00  0.00    +0.023 C 
ATOM     25  C   UNL     1       5.000  -6.651  26.289  0.00  0.00    +0.023 C 
ENDBRANCH  21  23
ENDBRANCH  18  21
ENDBRANCH  15  18
ENDBRANCH   1  15
TORSDOF 7
ENDMDL
MODEL 5
REMARK VINA RESULT:      -5.8      2.789      6.326
REMARK  Name = 
REMARK  10 active torsions:
REMARK  status: ('A' for Active; 'I' for Inactive)
REMARK    1  A    between atoms: C_1  and  C_2
REMARK    2  A    between atoms: C_2  and  C_3
REMARK    3  A    between atoms: C_3  and  N_5
REMARK    4  A    between atoms: C_3  and  C_9
REMARK    5  A    between atoms: N_5  and  C_6
REMARK    6  A    between atoms: C_6  and  C_7
REMARK    7  A    between atoms: C_6  and  C_8
REMARK    8  A    between atoms: C_9  and  O_11
REMARK    9  A    between atoms: C_9  and  C_12
REMARK   10  A    between atoms: C_20  and  O_21
REMARK                            x       y       z     vdW  Elec       q    Type
REMARK                         _______ _______ _______ _____ _____    ______ ____
ROOT
ATOM      1  C   UNL     1       7.749  -1.097  22.786  0.00  0.00    -0.008 A 
ATOM      2  C   UNL     1       8.861  -1.244  21.924  0.00  0.00    +0.010 A 
ATOM      3  C   UNL     1       9.636  -0.155  21.529  0.00  0.00    +0.048 A 
ATOM      4  C   UNL     1       9.313   1.116  21.977  0.00  0.00    +0.141 A 
ATOM      5  C   UNL     1       8.219   1.307  22.829  0.00  0.00    +0.091 A 
ATOM      6  N   UNL     1       7.877   2.604  23.264  0.00  0.00    -0.319 N 
ATOM      7  H   UNL     1       8.367   3.423  22.941  0.00  0.00    +0.169 HD
ATOM      8  C   UNL     1       6.836   2.880  24.100  0.00  0.00    +0.249 A 
ATOM      9  O   UNL     1       6.573   4.022  24.458  0.00  0.00    -0.268 OA
ATOM     10  C   UNL     1       6.035   1.733  24.562  0.00  0.00    +0.071 A 
ATOM     11  C   UNL     1       6.311   0.485  24.163  0.00  0.00    +0.016 A 
ATOM     12  C   UNL     1       7.434   0.202  23.253  0.00  0.00    +0.008 A 
ENDROOT
BRANCH   4  13
ATOM     13  O   UNL     1      10.121   2.126  21.536  0.00  0.00    -0.505 OA
ATOM     14  H   UNL     1      10.624   1.819  20.770  0.00  0.00    +0.292 HD
ENDBRANCH   4  13
BRANCH   1  15
ATOM     15  C   UNL     1       6.944  -2.350  23.127  0.00  0.00    +0.162 C 
BRANCH  15  16
ATOM     16  O   UNL     1       5.715  -2.246  22.394  0.00  0.00    -0.386 OA
ATOM     17  H   UNL     1       5.943  -2.264  21.449  0.00  0.00    +0.210 HD
ENDBRANCH  15  16
BRANCH  15  18
ATOM     18  C   UNL     1       7.684  -3.693  22.777  0.00  0.00    +0.087 C 
BRANCH  18  20
ATOM     19  C   UNL     1       7.164  -6.133  22.014  0.00  0.00    +0.005 C 
ATOM     20  C   UNL     1       6.812  -4.655  21.930  0.00  0.00    +0.018 C 
ENDBRANCH  18  20
BRANCH  18  21
ATOM     21  N   UNL     1       8.230  -4.315  24.000  0.00  0.00    -0.308 NA
ATOM     22  H   UNL     1       9.211  -4.068  24.122  0.00  0.00    +0.123 HD
BRANCH  21  23
ATOM     23  C   UNL     1       7.494  -4.066  25.244  0.00  0.00    +0.048 C 
ATOM     24  C   UNL     1       8.500  -3.598  26.300  0.00  0.00    +0.023 C 
ATOM     25  C   UNL     1       6.755  -5.299  25.771  0.00  0.00    +0.023 C 
ENDBRANCH  21  23
ENDBRANCH  18  21
ENDBRANCH  15  18
ENDBRANCH   1  15
TORSDOF 7
ENDMDL
MODEL 6
REMARK VINA RESULT:      -5.8      4.083      6.540
REMARK  Name = 
REMARK  10 active torsions:
REMARK  status: ('A' for Active; 'I' for Inactive)
REMARK    1  A    between atoms: C_1  and  C_2
REMARK    2  A    between atoms: C_2  and  C_3
REMARK    3  A    between atoms: C_3  and  N_5
REMARK    4  A    between atoms: C_3  and  C_9
REMARK    5  A    between atoms: N_5  and  C_6
REMARK    6  A    between atoms: C_6  and  C_7
REMARK    7  A    between atoms: C_6  and  C_8
REMARK    8  A    between atoms: C_9  and  O_11
REMARK    9  A    between atoms: C_9  and  C_12
REMARK   10  A    between atoms: C_20  and  O_21
REMARK                            x       y       z     vdW  Elec       q    Type
REMARK                         _______ _______ _______ _____ _____    ______ ____
ROOT
ATOM      1  C   UNL     1       7.823   2.918  23.369  0.00  0.00    -0.008 A 
ATOM      2  C   UNL     1       7.409   3.139  24.704  0.00  0.00    +0.010 A 
ATOM      3  C   UNL     1       7.671   2.219  25.717  0.00  0.00    +0.048 A 
ATOM      4  C   UNL     1       8.345   1.045  25.422  0.00  0.00    +0.141 A 
ATOM      5  C   UNL     1       8.770   0.784  24.113  0.00  0.00    +0.091 A 
ATOM      6  N   UNL     1       9.433  -0.422  23.810  0.00  0.00    -0.319 N 
ATOM      7  H   UNL     1       9.574  -1.143  24.499  0.00  0.00    +0.169 HD
ATOM      8  C   UNL     1       9.888  -0.752  22.568  0.00  0.00    +0.249 A 
ATOM      9  O   UNL     1      10.464  -1.810  22.345  0.00  0.00    -0.268 OA
ATOM     10  C   UNL     1       9.659   0.231  21.495  0.00  0.00    +0.071 A 
ATOM     11  C   UNL     1       9.019   1.383  21.731  0.00  0.00    +0.016 A 
ATOM     12  C   UNL     1       8.525   1.723  23.077  0.00  0.00    +0.008 A 
ENDROOT
BRANCH   4  13
ATOM     13  O   UNL     1       8.553   0.196  26.473  0.00  0.00    -0.505 OA
ATOM     14  H   UNL     1       9.503   0.128  26.642  0.00  0.00    +0.292 HD
ENDBRANCH   4  13
BRANCH   1  15
ATOM     15  C   UNL     1       7.452   3.972  22.327  0.00  0.00    +0.162 C 
BRANCH  15  16
ATOM     16  O   UNL     1       6.163   3.597  21.821  0.00  0.00    -0.386 OA
ATOM     17  H   UNL     1       5.524   4.249  22.155  0.00  0.00    +0.210 HD
ENDBRANCH  15  16
BRANCH  15  18
ATOM     18  C   UNL     1       7.418   5.439  22.895  0.00  0.00    +0.087 C 
BRANCH  18  20
ATOM     19  C   UNL     1       5.165   6.548  23.603  0.00  0.00    +0.005 C 
ATOM     20  C   UNL     1       6.139   6.211  22.483  0.00  0.00    +0.018 C 
ENDBRANCH  18  20
BRANCH  18  21
ATOM     21  N   UNL     1       8.668   6.150  22.561  0.00  0.00    -0.308 NA
ATOM     22  H   UNL     1       8.472   6.982  22.006  0.00  0.00    +0.123 HD
BRANCH  21  23
ATOM     23  C   UNL     1       9.543   6.496  23.687  0.00  0.00    +0.048 C 
ATOM     24  C   UNL     1      10.659   5.448  23.755  0.00  0.00    +0.023 C 
ATOM     25  C   UNL     1       8.814   6.537  25.033  0.00  0.00    +0.023 C 
ENDBRANCH  21  23
ENDBRANCH  18  21
ENDBRANCH  15  18
ENDBRANCH   1  15
TORSDOF 7
ENDMDL
MODEL 7
REMARK VINA RESULT:      -5.7      2.275      3.050
REMARK  Name = 
REMARK  10 active torsions:
REMARK  status: ('A' for Active; 'I' for Inactive)
REMARK    1  A    between atoms: C_1  and  C_2
REMARK    2  A    between atoms: C_2  and  C_3
REMARK    3  A    between atoms: C_3  and  N_5
REMARK    4  A    between atoms: C_3  and  C_9
REMARK    5  A    between atoms: N_5  and  C_6
REMARK    6  A    between atoms: C_6  and  C_7
REMARK    7  A    between atoms: C_6  and  C_8
REMARK    8  A    between atoms: C_9  and  O_11
REMARK    9  A    between atoms: C_9  and  C_12
REMARK   10  A    between atoms: C_20  and  O_21
REMARK                            x       y       z     vdW  Elec       q    Type
REMARK                         _______ _______ _______ _____ _____    ______ ____
ROOT
ATOM      1  C   UNL     1       7.162  -4.907  25.043  0.00  0.00    -0.008 A 
ATOM      2  C   UNL     1       6.740  -5.174  23.719  0.00  0.00    +0.010 A 
ATOM      3  C   UNL     1       5.662  -6.014  23.446  0.00  0.00    +0.048 A 
ATOM      4  C   UNL     1       4.983  -6.621  24.490  0.00  0.00    +0.141 A 
ATOM      5  C   UNL     1       5.369  -6.386  25.815  0.00  0.00    +0.091 A 
ATOM      6  N   UNL     1       4.692  -7.024  26.874  0.00  0.00    -0.319 N 
ATOM      7  H   UNL     1       3.958  -7.694  26.714  0.00  0.00    +0.169 HD
ATOM      8  C   UNL     1       4.995  -6.846  28.192  0.00  0.00    +0.249 A 
ATOM      9  O   UNL     1       4.380  -7.417  29.085  0.00  0.00    -0.268 OA
ATOM     10  C   UNL     1       6.103  -5.925  28.499  0.00  0.00    +0.071 A 
ATOM     11  C   UNL     1       6.787  -5.310  27.526  0.00  0.00    +0.016 A 
ATOM     12  C   UNL     1       6.454  -5.518  26.106  0.00  0.00    +0.008 A 
ENDROOT
BRANCH   4  13
ATOM     13  O   UNL     1       3.943  -7.434  24.133  0.00  0.00    -0.505 OA
ATOM     14  H   UNL     1       4.139  -8.339  24.410  0.00  0.00    +0.292 HD
ENDBRANCH   4  13
BRANCH   1  15
ATOM     15  C   UNL     1       8.379  -4.002  25.231  0.00  0.00    +0.162 C 
BRANCH  15  16
ATOM     16  O   UNL     1       9.346  -4.426  24.259  0.00  0.00    -0.386 OA
ATOM     17  H   UNL     1       9.052  -5.288  23.921  0.00  0.00    +0.210 HD
ENDBRANCH  15  16
BRANCH  15  18
ATOM     18  C   UNL     1       8.061  -2.471  25.063  0.00  0.00    +0.087 C 
BRANCH  18  20
ATOM     19  C   UNL     1       5.658  -1.529  24.680  0.00  0.00    +0.005 C 
ATOM     20  C   UNL     1       6.686  -2.075  25.660  0.00  0.00    +0.018 C 
ENDBRANCH  18  20
BRANCH  18  21
ATOM     21  N   UNL     1       8.231  -2.060  23.654  0.00  0.00    -0.308 NA
ATOM     22  H   UNL     1       7.328  -1.861  23.226  0.00  0.00    +0.123 HD
BRANCH  21  23
ATOM     23  C   UNL     1       9.157  -0.950  23.404  0.00  0.00    +0.048 C 
ATOM     24  C   UNL     1      10.190  -1.423  22.376  0.00  0.00    +0.023 C 
ATOM     25  C   UNL     1       9.888  -0.474  24.663  0.00  0.00    +0.023 C 
ENDBRANCH  21  23
ENDBRANCH  18  21
ENDBRANCH  15  18
ENDBRANCH   1  15
TORSDOF 7
ENDMDL
MODEL 8
REMARK VINA RESULT:      -5.7      2.539      4.778
REMARK  Name = 
REMARK  10 active torsions:
REMARK  status: ('A' for Active; 'I' for Inactive)
REMARK    1  A    between atoms: C_1  and  C_2
REMARK    2  A    between atoms: C_2  and  C_3
REMARK    3  A    between atoms: C_3  and  N_5
REMARK    4  A    between atoms: C_3  and  C_9
REMARK    5  A    between atoms: N_5  and  C_6
REMARK    6  A    between atoms: C_6  and  C_7
REMARK    7  A    between atoms: C_6  and  C_8
REMARK    8  A    between atoms: C_9  and  O_11
REMARK    9  A    between atoms: C_9  and  C_12
REMARK   10  A    between atoms: C_20  and  O_21
REMARK                            x       y       z     vdW  Elec       q    Type
REMARK                         _______ _______ _______ _____ _____    ______ ____
ROOT
ATOM      1  C   UNL     1       6.035  -4.674  25.455  0.00  0.00    -0.008 A 
ATOM      2  C   UNL     1       6.729  -4.670  26.688  0.00  0.00    +0.010 A 
ATOM      3  C   UNL     1       6.489  -5.629  27.671  0.00  0.00    +0.048 A 
ATOM      4  C   UNL     1       5.538  -6.613  27.452  0.00  0.00    +0.141 A 
ATOM      5  C   UNL     1       4.826  -6.652  26.247  0.00  0.00    +0.091 A 
ATOM      6  N   UNL     1       3.842  -7.639  26.036  0.00  0.00    -0.319 N 
ATOM      7  H   UNL     1       3.588  -8.302  26.751  0.00  0.00    +0.169 HD
ATOM      8  C   UNL     1       3.110  -7.756  24.892  0.00  0.00    +0.249 A 
ATOM      9  O   UNL     1       2.264  -8.631  24.746  0.00  0.00    -0.268 OA
ATOM     10  C   UNL     1       3.385  -6.777  23.826  0.00  0.00    +0.071 A 
ATOM     11  C   UNL     1       4.298  -5.811  23.987  0.00  0.00    +0.016 A 
ATOM     12  C   UNL     1       5.076  -5.692  25.232  0.00  0.00    +0.008 A 
ENDROOT
BRANCH   4  13
ATOM     13  O   UNL     1       5.361  -7.508  28.470  0.00  0.00    -0.505 OA
ATOM     14  H   UNL     1       4.478  -7.390  28.845  0.00  0.00    +0.292 HD
ENDBRANCH   4  13
BRANCH   1  15
ATOM     15  C   UNL     1       6.347  -3.556  24.461  0.00  0.00    +0.162 C 
BRANCH  15  16
ATOM     16  O   UNL     1       6.508  -2.363  25.242  0.00  0.00    -0.386 OA
ATOM     17  H   UNL     1       5.934  -1.684  24.849  0.00  0.00    +0.210 HD
ENDBRANCH  15  16
BRANCH  15  18
ATOM     18  C   UNL     1       7.629  -3.823  23.589  0.00  0.00    +0.087 C 
BRANCH  18  20
ATOM     19  C   UNL     1       7.203  -5.708  21.836  0.00  0.00    +0.005 C 
ATOM     20  C   UNL     1       7.780  -5.313  23.188  0.00  0.00    +0.018 C 
ENDBRANCH  18  20
BRANCH  18  21
ATOM     21  N   UNL     1       8.827  -3.266  24.248  0.00  0.00    -0.308 NA
ATOM     22  H   UNL     1       9.447  -4.013  24.558  0.00  0.00    +0.123 HD
BRANCH  21  23
ATOM     23  C   UNL     1       9.588  -2.269  23.487  0.00  0.00    +0.048 C 
ATOM     24  C   UNL     1       9.750  -1.028  24.371  0.00  0.00    +0.023 C 
ATOM     25  C   UNL     1       8.912  -1.862  22.175  0.00  0.00    +0.023 C 
ENDBRANCH  21  23
ENDBRANCH  18  21
ENDBRANCH  15  18
ENDBRANCH   1  15
TORSDOF 7
ENDMDL
MODEL 9
REMARK VINA RESULT:      -5.6      2.255      3.531
REMARK  Name = 
REMARK  10 active torsions:
REMARK  status: ('A' for Active; 'I' for Inactive)
REMARK    1  A    between atoms: C_1  and  C_2
REMARK    2  A    between atoms: C_2  and  C_3
REMARK    3  A    between atoms: C_3  and  N_5
REMARK    4  A    between atoms: C_3  and  C_9
REMARK    5  A    between atoms: N_5  and  C_6
REMARK    6  A    between atoms: C_6  and  C_7
REMARK    7  A    between atoms: C_6  and  C_8
REMARK    8  A    between atoms: C_9  and  O_11
REMARK    9  A    between atoms: C_9  and  C_12
REMARK   10  A    between atoms: C_20  and  O_21
REMARK                            x       y       z     vdW  Elec       q    Type
REMARK                         _______ _______ _______ _____ _____    ______ ____
ROOT
ATOM      1  C   UNL     1       6.615  -3.059  24.888  0.00  0.00    -0.008 A 
ATOM      2  C   UNL     1       7.662  -2.890  25.824  0.00  0.00    +0.010 A 
ATOM      3  C   UNL     1       8.010  -3.891  26.728  0.00  0.00    +0.048 A 
ATOM      4  C   UNL     1       7.312  -5.088  26.730  0.00  0.00    +0.141 A 
ATOM      5  C   UNL     1       6.266  -5.297  25.822  0.00  0.00    +0.091 A 
ATOM      6  N   UNL     1       5.540  -6.505  25.842  0.00  0.00    -0.319 N 
ATOM      7  H   UNL     1       5.713  -7.222  26.529  0.00  0.00    +0.169 HD
ATOM      8  C   UNL     1       4.516  -6.795  24.991  0.00  0.00    +0.249 A 
ATOM      9  O   UNL     1       3.910  -7.860  25.038  0.00  0.00    -0.268 OA
ATOM     10  C   UNL     1       4.165  -5.763  23.999  0.00  0.00    +0.071 A 
ATOM     11  C   UNL     1       4.815  -4.593  23.953  0.00  0.00    +0.016 A 
ATOM     12  C   UNL     1       5.915  -4.290  24.884  0.00  0.00    +0.008 A 
ENDROOT
BRANCH   4  13
ATOM     13  O   UNL     1       7.714  -6.012  27.653  0.00  0.00    -0.505 OA
ATOM     14  H   UNL     1       8.543  -6.414  27.359  0.00  0.00    +0.292 HD
ENDBRANCH   4  13
BRANCH   1  15
ATOM     15  C   UNL     1       6.289  -1.884  23.966  0.00  0.00    +0.162 C 
BRANCH  15  16
ATOM     16  O   UNL     1       5.232  -1.156  24.607  0.00  0.00    -0.386 OA
ATOM     17  H   UNL     1       5.646  -0.553  25.246  0.00  0.00    +0.210 HD
ENDBRANCH  15  16
BRANCH  15  18
ATOM     18  C   UNL     1       7.517  -0.942  23.684  0.00  0.00    +0.087 C 
BRANCH  18  20
ATOM     19  C   UNL     1       8.152   0.967  25.345  0.00  0.00    +0.005 C 
ATOM     20  C   UNL     1       7.286   0.508  24.181  0.00  0.00    +0.018 C 
ENDBRANCH  18  20
BRANCH  18  21
ATOM     21  N   UNL     1       7.912  -1.022  22.263  0.00  0.00    -0.308 NA
ATOM     22  H   UNL     1       7.475  -0.275  21.726  0.00  0.00    +0.123 HD
BRANCH  21  23
ATOM     23  C   UNL     1       9.352  -1.059  21.987  0.00  0.00    +0.048 C 
ATOM     24  C   UNL     1      10.025  -1.861  23.106  0.00  0.00    +0.023 C 
ATOM     25  C   UNL     1       9.993   0.330  21.914  0.00  0.00    +0.023 C 
ENDBRANCH  21  23
ENDBRANCH  18  21
ENDBRANCH  15  18
ENDBRANCH   1  15
TORSDOF 7
ENDMDL
