MODEL 1
REMARK VINA RESULT:      -6.5      0.000      0.000
REMARK  Name = 
REMARK  5 active torsions:
REMARK  status: ('A' for Active; 'I' for Inactive)
REMARK    1  A    between atoms: C_7  and  C_8
REMARK    2  A    between atoms: C_8  and  O_9
REMARK    3  A    between atoms: O_9  and  P_10
REMARK    4  A    between atoms: P_10  and  O_11
REMARK    5  A    between atoms: P_10  and  O_12
REMARK                            x       y       z     vdW  Elec       q    Type
REMARK                         _______ _______ _______ _____ _____    ______ ____
ROOT
ATOM      1  N   UNL     1       6.742  -5.937  27.990  0.00  0.00    -0.329 N 
ATOM      2  H   UNL     1       7.100  -6.847  28.247  0.00  0.00    +0.145 HD
ATOM      3  H   UNL     1       6.384  -5.403  28.777  0.00  0.00    +0.145 HD
ATOM      4  C   UNL     1       7.450  -5.182  27.119  0.00  0.00    +0.195 A 
ATOM      5  N   UNL     1       8.201  -5.844  26.193  0.00  0.00    -0.293 N 
ATOM      6  H   UNL     1       8.195  -6.852  26.159  0.00  0.00    +0.172 HD
ATOM      7  C   UNL     1       8.960  -5.220  25.226  0.00  0.00    +0.280 A 
ATOM      8  O   UNL     1       9.613  -5.868  24.416  0.00  0.00    -0.265 OA
ATOM      9  C   UNL     1       8.913  -3.743  25.246  0.00  0.00    +0.172 A 
ATOM     10  C   UNL     1       8.134  -3.164  26.236  0.00  0.00    +0.187 A 
ATOM     11  N   UNL     1       8.023  -1.822  26.334  0.00  0.00    -0.232 NA
ATOM     12  C   UNL     1       8.697  -1.103  25.398  0.00  0.00    +0.138 A 
ATOM     13  C   UNL     1       9.467  -1.684  24.394  0.00  0.00    +0.086 A 
ATOM     14  N   UNL     1       9.611  -3.034  24.313  0.00  0.00    -0.239 NA
ATOM     15  N   UNL     1       7.400  -3.892  27.181  0.00  0.00    -0.195 NA
ENDROOT
BRANCH  13  16
ATOM     16  C   UNL     1      10.173  -0.817  23.383  0.00  0.00    +0.229 C 
BRANCH  16  17
ATOM     17  O   UNL     1       9.525   0.438  23.354  0.00  0.00    -0.280 OA
BRANCH  17  18
ATOM     18  P   UNL     1       9.049   0.991  21.942  0.00  0.00    +0.473 P 
ATOM     19  O   UNL     1       7.629   1.419  21.836  0.00  0.00    -0.228 OA
BRANCH  18  20
ATOM     20  O   UNL     1       9.460  -0.208  20.973  0.00  0.00    -0.303 OA
ATOM     21  H   UNL     1       9.224  -0.003  20.050  0.00  0.00    +0.222 HD
ENDBRANCH  18  20
BRANCH  18  22
ATOM     22  O   UNL     1      10.165   2.065  21.564  0.00  0.00    -0.303 OA
ATOM     23  H   UNL     1      10.800   1.681  20.933  0.00  0.00    +0.222 HD
ENDBRANCH  18  22
ENDBRANCH  17  18
ENDBRANCH  16  17
ENDBRANCH  13  16
TORSDOF 5
ENDMDL
MODEL 2
REMARK VINA RESULT:      -6.4      3.554      6.736
REMARK  Name = 
REMARK  5 active torsions:
REMARK  status: ('A' for Active; 'I' for Inactive)
REMARK    1  A    between atoms: C_7  and  C_8
REMARK    2  A    between atoms: C_8  and  O_9
REMARK    3  A    between atoms: O_9  and  P_10
REMARK    4  A    between atoms: P_10  and  O_11
REMARK    5  A    between atoms: P_10  and  O_12
REMARK                            x       y       z     vdW  Elec       q    Type
REMARK                         _______ _______ _______ _____ _____    ______ ____
ROOT
ATOM      1  N   UNL     1      11.187   3.823  22.976  0.00  0.00    -0.329 N 
ATOM      2  H   UNL     1      10.844   4.513  22.323  0.00  0.00    +0.145 HD
ATOM      3  H   UNL     1      11.383   4.198  23.900  0.00  0.00    +0.145 HD
ATOM      4  C   UNL     1      10.587   2.611  23.017  0.00  0.00    +0.195 A 
ATOM      5  N   UNL     1      10.034   2.154  21.856  0.00  0.00    -0.293 N 
ATOM      6  H   UNL     1      10.102   2.699  21.011  0.00  0.00    +0.172 HD
ATOM      7  C   UNL     1       9.407   0.933  21.729  0.00  0.00    +0.280 A 
ATOM      8  O   UNL     1       8.930   0.573  20.659  0.00  0.00    -0.265 OA
ATOM      9  C   UNL     1       9.367   0.115  22.960  0.00  0.00    +0.172 A 
ATOM     10  C   UNL     1       9.943   0.673  24.090  0.00  0.00    +0.187 A 
ATOM     11  N   UNL     1       9.962   0.002  25.261  0.00  0.00    -0.232 NA
ATOM     12  C   UNL     1       9.408  -1.239  25.241  0.00  0.00    +0.138 A 
ATOM     13  C   UNL     1       8.845  -1.807  24.101  0.00  0.00    +0.086 A 
ATOM     14  N   UNL     1       8.790  -1.120  22.928  0.00  0.00    -0.239 NA
ATOM     15  N   UNL     1      10.555   1.934  24.117  0.00  0.00    -0.195 NA
ENDROOT
BRANCH  13  16
ATOM     16  C   UNL     1       8.263  -3.197  24.156  0.00  0.00    +0.229 C 
BRANCH  16  17
ATOM     17  O   UNL     1       8.212  -3.597  25.510  0.00  0.00    -0.280 OA
BRANCH  17  18
ATOM     18  P   UNL     1       8.608  -5.098  25.852  0.00  0.00    +0.473 P 
ATOM     19  O   UNL     1       7.529  -5.967  26.390  0.00  0.00    -0.228 OA
BRANCH  18  20
ATOM     20  O   UNL     1       9.848  -4.886  26.833  0.00  0.00    -0.303 OA
ATOM     21  H   UNL     1       9.737  -4.076  27.362  0.00  0.00    +0.222 HD
ENDBRANCH  18  20
BRANCH  18  22
ATOM     22  O   UNL     1       9.360  -5.596  24.537  0.00  0.00    -0.303 OA
ATOM     23  H   UNL     1       9.169  -6.539  24.380  0.00  0.00    +0.222 HD
ENDBRANCH  18  22
ENDBRANCH  17  18
ENDBRANCH  16  17
ENDBRANCH  13  16
TORSDOF 5
ENDMDL
MODEL 3
REMARK VINA RESULT:      -6.4      2.336      2.596
REMARK  Name = 
REMARK  5 active torsions:
REMARK  status: ('A' for Active; 'I' for Inactive)
REMARK    1  A    between atoms: C_7  and  C_8
REMARK    2  A    between atoms: C_8  and  O_9
REMARK    3  A    between atoms: O_9  and  P_10
REMARK    4  A    between atoms: P_10  and  O_11
REMARK    5  A    between atoms: P_10  and  O_12
REMARK                            x       y       z     vdW  Elec       q    Type
REMARK                         _______ _______ _______ _____ _____    ______ ____
ROOT
ATOM      1  N   UNL     1       6.103  -6.071  26.007  0.00  0.00    -0.329 N 
ATOM      2  H   UNL     1       5.447  -6.785  25.721  0.00  0.00    +0.145 HD
ATOM      3  H   UNL     1       6.831  -6.412  26.629  0.00  0.00    +0.145 HD
ATOM      4  C   UNL     1       6.568  -5.205  25.078  0.00  0.00    +0.195 A 
ATOM      5  N   UNL     1       5.740  -4.912  24.034  0.00  0.00    -0.293 N 
ATOM      6  H   UNL     1       4.816  -5.315  23.989  0.00  0.00    +0.172 HD
ATOM      7  C   UNL     1       6.058  -4.036  23.019  0.00  0.00    +0.280 A 
ATOM      8  O   UNL     1       5.271  -3.809  22.107  0.00  0.00    -0.265 OA
ATOM      9  C   UNL     1       7.390  -3.404  23.127  0.00  0.00    +0.172 A 
ATOM     10  C   UNL     1       8.163  -3.778  24.216  0.00  0.00    +0.187 A 
ATOM     11  N   UNL     1       9.392  -3.253  24.406  0.00  0.00    -0.232 NA
ATOM     12  C   UNL     1       9.793  -2.338  23.485  0.00  0.00    +0.138 A 
ATOM     13  C   UNL     1       9.011  -1.949  22.400  0.00  0.00    +0.086 A 
ATOM     14  N   UNL     1       7.787  -2.503  22.184  0.00  0.00    -0.239 NA
ATOM     15  N   UNL     1       7.747  -4.689  25.196  0.00  0.00    -0.195 NA
ENDROOT
BRANCH  13  16
ATOM     16  C   UNL     1       9.521  -0.915  21.430  0.00  0.00    +0.229 C 
BRANCH  16  17
ATOM     17  O   UNL     1      10.142   0.113  22.173  0.00  0.00    -0.280 OA
BRANCH  17  18
ATOM     18  P   UNL     1       9.415   1.526  22.229  0.00  0.00    +0.473 P 
ATOM     19  O   UNL     1       8.675   1.846  23.477  0.00  0.00    -0.228 OA
BRANCH  18  20
ATOM     20  O   UNL     1       8.518   1.477  20.912  0.00  0.00    -0.303 OA
ATOM     21  H   UNL     1       8.786   0.737  20.337  0.00  0.00    +0.222 HD
ENDBRANCH  18  20
BRANCH  18  22
ATOM     22  O   UNL     1      10.549   2.549  21.771  0.00  0.00    -0.303 OA
ATOM     23  H   UNL     1      11.140   2.751  22.518  0.00  0.00    +0.222 HD
ENDBRANCH  18  22
ENDBRANCH  17  18
ENDBRANCH  16  17
ENDBRANCH  13  16
TORSDOF 5
ENDMDL
MODEL 4
REMARK VINA RESULT:      -6.3      1.957      2.862
REMARK  Name = 
REMARK  5 active torsions:
REMARK  status: ('A' for Active; 'I' for Inactive)
REMARK    1  A    between atoms: C_7  and  C_8
REMARK    2  A    between atoms: C_8  and  O_9
REMARK    3  A    between atoms: O_9  and  P_10
REMARK    4  A    between atoms: P_10  and  O_11
REMARK    5  A    between atoms: P_10  and  O_12
REMARK                            x       y       z     vdW  Elec       q    Type
REMARK                         _______ _______ _______ _____ _____    ______ ____
ROOT
ATOM      1  N   UNL     1       8.944  -5.780  26.087  0.00  0.00    -0.329 N 
ATOM      2  H   UNL     1       8.149  -6.094  26.625  0.00  0.00    +0.145 HD
ATOM      3  H   UNL     1       9.237  -6.437  25.369  0.00  0.00    +0.145 HD
ATOM      4  C   UNL     1       8.981  -4.494  25.669  0.00  0.00    +0.195 A 
ATOM      5  N   UNL     1       8.348  -3.570  26.449  0.00  0.00    -0.293 N 
ATOM      6  H   UNL     1       7.901  -3.850  27.308  0.00  0.00    +0.172 HD
ATOM      7  C   UNL     1       8.312  -2.221  26.171  0.00  0.00    +0.280 A 
ATOM      8  O   UNL     1       7.730  -1.436  26.911  0.00  0.00    -0.265 OA
ATOM      9  C   UNL     1       9.023  -1.812  24.941  0.00  0.00    +0.172 A 
ATOM     10  C   UNL     1       9.622  -2.826  24.209  0.00  0.00    +0.187 A 
ATOM     11  N   UNL     1      10.299  -2.554  23.074  0.00  0.00    -0.232 NA
ATOM     12  C   UNL     1      10.367  -1.241  22.726  0.00  0.00    +0.138 A 
ATOM     13  C   UNL     1       9.781  -0.221  23.470  0.00  0.00    +0.086 A 
ATOM     14  N   UNL     1       9.066  -0.494  24.594  0.00  0.00    -0.239 NA
ATOM     15  N   UNL     1       9.596  -4.178  24.577  0.00  0.00    -0.195 NA
ENDROOT
BRANCH  13  16
ATOM     16  C   UNL     1       9.914   1.213  23.025  0.00  0.00    +0.229 C 
BRANCH  16  17
ATOM     17  O   UNL     1       8.701   1.876  23.317  0.00  0.00    -0.280 OA
BRANCH  17  18
ATOM     18  P   UNL     1       7.720   2.189  22.106  0.00  0.00    +0.473 P 
ATOM     19  O   UNL     1       7.249   3.592  21.974  0.00  0.00    -0.228 OA
BRANCH  18  20
ATOM     20  O   UNL     1       6.566   1.114  22.342  0.00  0.00    -0.303 OA
ATOM     21  H   UNL     1       6.474   0.529  21.569  0.00  0.00    +0.222 HD
ENDBRANCH  18  20
BRANCH  18  22
ATOM     22  O   UNL     1       8.461   1.547  20.848  0.00  0.00    -0.303 OA
ATOM     23  H   UNL     1       7.807   1.250  20.190  0.00  0.00    +0.222 HD
ENDBRANCH  18  22
ENDBRANCH  17  18
ENDBRANCH  16  17
ENDBRANCH  13  16
TORSDOF 5
ENDMDL
MODEL 5
REMARK VINA RESULT:      -6.2      2.063      2.928
REMARK  Name = 
REMARK  5 active torsions:
REMARK  status: ('A' for Active; 'I' for Inactive)
REMARK    1  A    between atoms: C_7  and  C_8
REMARK    2  A    between atoms: C_8  and  O_9
REMARK    3  A    between atoms: O_9  and  P_10
REMARK    4  A    between atoms: P_10  and  O_11
REMARK    5  A    between atoms: P_10  and  O_12
REMARK                            x       y       z     vdW  Elec       q    Type
REMARK                         _______ _______ _______ _____ _____    ______ ____
ROOT
ATOM      1  N   UNL     1       8.592  -5.676  26.212  0.00  0.00    -0.329 N 
ATOM      2  H   UNL     1       7.784  -6.270  26.341  0.00  0.00    +0.145 HD
ATOM      3  H   UNL     1       9.459  -6.190  26.083  0.00  0.00    +0.145 HD
ATOM      4  C   UNL     1       8.488  -4.604  25.393  0.00  0.00    +0.195 A 
ATOM      5  N   UNL     1       7.258  -4.022  25.289  0.00  0.00    -0.293 N 
ATOM      6  H   UNL     1       6.481  -4.374  25.826  0.00  0.00    +0.172 HD
ATOM      7  C   UNL     1       6.993  -2.913  24.514  0.00  0.00    +0.280 A 
ATOM      8  O   UNL     1       5.868  -2.430  24.461  0.00  0.00    -0.265 OA
ATOM      9  C   UNL     1       8.154  -2.368  23.778  0.00  0.00    +0.172 A 
ATOM     10  C   UNL     1       9.356  -3.040  23.938  0.00  0.00    +0.187 A 
ATOM     11  N   UNL     1      10.475  -2.616  23.311  0.00  0.00    -0.232 NA
ATOM     12  C   UNL     1      10.339  -1.498  22.551  0.00  0.00    +0.138 A 
ATOM     13  C   UNL     1       9.136  -0.813  22.404  0.00  0.00    +0.086 A 
ATOM     14  N   UNL     1       7.998  -1.257  23.003  0.00  0.00    -0.239 NA
ATOM     15  N   UNL     1       9.521  -4.169  24.750  0.00  0.00    -0.195 NA
ENDROOT
BRANCH  13  16
ATOM     16  C   UNL     1       9.071   0.430  21.554  0.00  0.00    +0.229 C 
BRANCH  16  17
ATOM     17  O   UNL     1      10.133   1.279  21.938  0.00  0.00    -0.280 OA
BRANCH  17  18
ATOM     18  P   UNL     1       9.825   2.406  23.016  0.00  0.00    +0.473 P 
ATOM     19  O   UNL     1       9.516   1.944  24.395  0.00  0.00    -0.228 OA
BRANCH  18  20
ATOM     20  O   UNL     1       8.653   3.219  22.304  0.00  0.00    -0.303 OA
ATOM     21  H   UNL     1       7.863   3.258  22.873  0.00  0.00    +0.222 HD
ENDBRANCH  18  20
BRANCH  18  22
ATOM     22  O   UNL     1      11.035   3.430  22.844  0.00  0.00    -0.303 OA
ATOM     23  H   UNL     1      11.392   3.676  23.717  0.00  0.00    +0.222 HD
ENDBRANCH  18  22
ENDBRANCH  17  18
ENDBRANCH  16  17
ENDBRANCH  13  16
TORSDOF 5
ENDMDL
MODEL 6
REMARK VINA RESULT:      -6.2      2.455      3.163
REMARK  Name = 
REMARK  5 active torsions:
REMARK  status: ('A' for Active; 'I' for Inactive)
REMARK    1  A    between atoms: C_7  and  C_8
REMARK    2  A    between atoms: C_8  and  O_9
REMARK    3  A    between atoms: O_9  and  P_10
REMARK    4  A    between atoms: P_10  and  O_11
REMARK    5  A    between atoms: P_10  and  O_12
REMARK                            x       y       z     vdW  Elec       q    Type
REMARK                         _______ _______ _______ _____ _____    ______ ____
ROOT
ATOM      1  N   UNL     1       5.286  -7.328  28.134  0.00  0.00    -0.329 N 
ATOM      2  H   UNL     1       5.501  -7.208  29.113  0.00  0.00    +0.145 HD
ATOM      3  H   UNL     1       4.301  -7.499  27.951  0.00  0.00    +0.145 HD
ATOM      4  C   UNL     1       5.850  -6.489  27.235  0.00  0.00    +0.195 A 
ATOM      5  N   UNL     1       7.076  -5.979  27.549  0.00  0.00    -0.293 N 
ATOM      6  H   UNL     1       7.536  -6.248  28.406  0.00  0.00    +0.172 HD
ATOM      7  C   UNL     1       7.790  -5.128  26.732  0.00  0.00    +0.280 A 
ATOM      8  O   UNL     1       8.890  -4.704  27.066  0.00  0.00    -0.265 OA
ATOM      9  C   UNL     1       7.135  -4.788  25.452  0.00  0.00    +0.172 A 
ATOM     10  C   UNL     1       5.884  -5.344  25.232  0.00  0.00    +0.187 A 
ATOM     11  N   UNL     1       5.207  -5.098  24.091  0.00  0.00    -0.232 NA
ATOM     12  C   UNL     1       5.840  -4.303  23.188  0.00  0.00    +0.138 A 
ATOM     13  C   UNL     1       7.103  -3.758  23.400  0.00  0.00    +0.086 A 
ATOM     14  N   UNL     1       7.773  -3.973  24.564  0.00  0.00    -0.239 NA
ATOM     15  N   UNL     1       5.237  -6.199  26.135  0.00  0.00    -0.195 NA
ENDROOT
BRANCH  13  16
ATOM     16  C   UNL     1       7.744  -2.897  22.342  0.00  0.00    +0.229 C 
BRANCH  16  17
ATOM     17  O   UNL     1       8.194  -1.708  22.959  0.00  0.00    -0.280 OA
BRANCH  17  18
ATOM     18  P   UNL     1       9.759  -1.431  22.975  0.00  0.00    +0.473 P 
ATOM     19  O   UNL     1      10.206  -0.166  23.613  0.00  0.00    -0.228 OA
BRANCH  18  20
ATOM     20  O   UNL     1      10.124  -1.566  21.428  0.00  0.00    -0.303 OA
ATOM     21  H   UNL     1      10.655  -2.367  21.267  0.00  0.00    +0.222 HD
ENDBRANCH  18  20
BRANCH  18  22
ATOM     22  O   UNL     1      10.374  -2.790  23.539  0.00  0.00    -0.303 OA
ATOM     23  H   UNL     1      10.030  -3.548  23.033  0.00  0.00    +0.222 HD
ENDBRANCH  18  22
ENDBRANCH  17  18
ENDBRANCH  16  17
ENDBRANCH  13  16
TORSDOF 5
ENDMDL
MODEL 7
REMARK VINA RESULT:      -6.2      3.999      6.906
REMARK  Name = 
REMARK  5 active torsions:
REMARK  status: ('A' for Active; 'I' for Inactive)
REMARK    1  A    between atoms: C_7  and  C_8
REMARK    2  A    between atoms: C_8  and  O_9
REMARK    3  A    between atoms: O_9  and  P_10
REMARK    4  A    between atoms: P_10  and  O_11
REMARK    5  A    between atoms: P_10  and  O_12
REMARK                            x       y       z     vdW  Elec       q    Type
REMARK                         _______ _______ _______ _____ _____    ______ ____
ROOT
ATOM      1  N   UNL     1       9.844  -1.022  21.361  0.00  0.00    -0.329 N 
ATOM      2  H   UNL     1       9.605  -0.056  21.185  0.00  0.00    +0.145 HD
ATOM      3  H   UNL     1      10.838  -1.217  21.287  0.00  0.00    +0.145 HD
ATOM      4  C   UNL     1       9.260  -1.657  22.404  0.00  0.00    +0.195 A 
ATOM      5  N   UNL     1       8.007  -1.246  22.756  0.00  0.00    -0.293 N 
ATOM      6  H   UNL     1       7.544  -0.518  22.234  0.00  0.00    +0.172 HD
ATOM      7  C   UNL     1       7.272  -1.804  23.780  0.00  0.00    +0.280 A 
ATOM      8  O   UNL     1       6.148  -1.396  24.050  0.00  0.00    -0.265 OA
ATOM      9  C   UNL     1       7.936  -2.912  24.500  0.00  0.00    +0.172 A 
ATOM     10  C   UNL     1       9.213  -3.245  24.077  0.00  0.00    +0.187 A 
ATOM     11  N   UNL     1       9.900  -4.246  24.667  0.00  0.00    -0.232 NA
ATOM     12  C   UNL     1       9.250  -4.900  25.666  0.00  0.00    +0.138 A 
ATOM     13  C   UNL     1       7.960  -4.578  26.080  0.00  0.00    +0.086 A 
ATOM     14  N   UNL     1       7.279  -3.546  25.513  0.00  0.00    -0.239 NA
ATOM     15  N   UNL     1       9.880  -2.607  23.021  0.00  0.00    -0.195 NA
ENDROOT
BRANCH  13  16
ATOM     16  C   UNL     1       7.302  -5.362  27.186  0.00  0.00    +0.229 C 
BRANCH  16  17
ATOM     17  O   UNL     1       6.346  -6.223  26.602  0.00  0.00    -0.280 OA
BRANCH  17  18
ATOM     18  P   UNL     1       5.002  -6.489  27.408  0.00  0.00    +0.473 P 
ATOM     19  O   UNL     1       4.340  -5.303  28.013  0.00  0.00    -0.228 OA
BRANCH  18  20
ATOM     20  O   UNL     1       5.468  -7.600  28.452  0.00  0.00    -0.303 OA
ATOM     21  H   UNL     1       6.032  -7.210  29.144  0.00  0.00    +0.222 HD
ENDBRANCH  18  20
BRANCH  18  22
ATOM     22  O   UNL     1       4.134  -7.376  26.407  0.00  0.00    -0.303 OA
ATOM     23  H   UNL     1       4.674  -7.641  25.640  0.00  0.00    +0.222 HD
ENDBRANCH  18  22
ENDBRANCH  17  18
ENDBRANCH  16  17
ENDBRANCH  13  16
TORSDOF 5
ENDMDL
MODEL 8
REMARK VINA RESULT:      -6.1      3.596      6.615
REMARK  Name = 
REMARK  5 active torsions:
REMARK  status: ('A' for Active; 'I' for Inactive)
REMARK    1  A    between atoms: C_7  and  C_8
REMARK    2  A    between atoms: C_8  and  O_9
REMARK    3  A    between atoms: O_9  and  P_10
REMARK    4  A    between atoms: P_10  and  O_11
REMARK    5  A    between atoms: P_10  and  O_12
REMARK                            x       y       z     vdW  Elec       q    Type
REMARK                         _______ _______ _______ _____ _____    ______ ____
ROOT
ATOM      1  N   UNL     1       9.980   2.237  21.483  0.00  0.00    -0.329 N 
ATOM      2  H   UNL     1      10.771   2.829  21.692  0.00  0.00    +0.145 HD
ATOM      3  H   UNL     1       9.823   2.101  20.488  0.00  0.00    +0.145 HD
ATOM      4  C   UNL     1       9.805   1.105  22.203  0.00  0.00    +0.195 A 
ATOM      5  N   UNL     1      10.260   1.113  23.490  0.00  0.00    -0.293 N 
ATOM      6  H   UNL     1      10.680   1.945  23.876  0.00  0.00    +0.172 HD
ATOM      7  C   UNL     1      10.140   0.049  24.357  0.00  0.00    +0.280 A 
ATOM      8  O   UNL     1      10.565   0.115  25.505  0.00  0.00    -0.265 OA
ATOM      9  C   UNL     1       9.467  -1.144  23.800  0.00  0.00    +0.172 A 
ATOM     10  C   UNL     1       9.055  -1.059  22.479  0.00  0.00    +0.187 A 
ATOM     11  N   UNL     1       8.426  -2.093  21.882  0.00  0.00    -0.232 NA
ATOM     12  C   UNL     1       8.213  -3.185  22.662  0.00  0.00    +0.138 A 
ATOM     13  C   UNL     1       8.611  -3.265  23.993  0.00  0.00    +0.086 A 
ATOM     14  N   UNL     1       9.278  -2.240  24.589  0.00  0.00    -0.239 NA
ATOM     15  N   UNL     1       9.231   0.076  21.675  0.00  0.00    -0.195 NA
ENDROOT
BRANCH  13  16
ATOM     16  C   UNL     1       8.324  -4.508  24.797  0.00  0.00    +0.229 C 
BRANCH  16  17
ATOM     17  O   UNL     1       8.057  -4.116  26.127  0.00  0.00    -0.280 OA
BRANCH  17  18
ATOM     18  P   UNL     1       6.889  -4.870  26.899  0.00  0.00    +0.473 P 
ATOM     19  O   UNL     1       5.980  -4.028  27.720  0.00  0.00    -0.228 OA
BRANCH  18  20
ATOM     20  O   UNL     1       7.704  -5.970  27.718  0.00  0.00    -0.303 OA
ATOM     21  H   UNL     1       7.097  -6.574  28.183  0.00  0.00    +0.222 HD
ENDBRANCH  18  20
BRANCH  18  22
ATOM     22  O   UNL     1       6.223  -5.781  25.773  0.00  0.00    -0.303 OA
ATOM     23  H   UNL     1       6.699  -6.628  25.702  0.00  0.00    +0.222 HD
ENDBRANCH  18  22
ENDBRANCH  17  18
ENDBRANCH  16  17
ENDBRANCH  13  16
TORSDOF 5
ENDMDL
MODEL 9
REMARK VINA RESULT:      -6.0      2.465      3.108
REMARK  Name = 
REMARK  5 active torsions:
REMARK  status: ('A' for Active; 'I' for Inactive)
REMARK    1  A    between atoms: C_7  and  C_8
REMARK    2  A    between atoms: C_8  and  O_9
REMARK    3  A    between atoms: O_9  and  P_10
REMARK    4  A    between atoms: P_10  and  O_11
REMARK    5  A    between atoms: P_10  and  O_12
REMARK                            x       y       z     vdW  Elec       q    Type
REMARK                         _______ _______ _______ _____ _____    ______ ____
ROOT
ATOM      1  N   UNL     1       3.814  -7.466  25.814  0.00  0.00    -0.329 N 
ATOM      2  H   UNL     1       3.389  -7.561  26.726  0.00  0.00    +0.145 HD
ATOM      3  H   UNL     1       3.141  -7.352  25.061  0.00  0.00    +0.145 HD
ATOM      4  C   UNL     1       4.894  -6.663  25.680  0.00  0.00    +0.195 A 
ATOM      5  N   UNL     1       5.709  -6.533  26.768  0.00  0.00    -0.293 N 
ATOM      6  H   UNL     1       5.510  -7.042  27.615  0.00  0.00    +0.172 HD
ATOM      7  C   UNL     1       6.856  -5.770  26.785  0.00  0.00    +0.280 A 
ATOM      8  O   UNL     1       7.552  -5.694  27.792  0.00  0.00    -0.265 OA
ATOM      9  C   UNL     1       7.171  -5.077  25.518  0.00  0.00    +0.172 A 
ATOM     10  C   UNL     1       6.274  -5.259  24.476  0.00  0.00    +0.187 A 
ATOM     11  N   UNL     1       6.476  -4.673  23.278  0.00  0.00    -0.232 NA
ATOM     12  C   UNL     1       7.608  -3.929  23.167  0.00  0.00    +0.138 A 
ATOM     13  C   UNL     1       8.518  -3.759  24.207  0.00  0.00    +0.086 A 
ATOM     14  N   UNL     1       8.300  -4.318  25.428  0.00  0.00    -0.239 NA
ATOM     15  N   UNL     1       5.125  -6.057  24.562  0.00  0.00    -0.195 NA
ENDROOT
BRANCH  13  16
ATOM     16  C   UNL     1       9.759  -2.929  24.000  0.00  0.00    +0.229 C 
BRANCH  16  17
ATOM     17  O   UNL     1       9.398  -1.568  24.106  0.00  0.00    -0.280 OA
BRANCH  17  18
ATOM     18  P   UNL     1       9.717  -0.621  22.869  0.00  0.00    +0.473 P 
ATOM     19  O   UNL     1      10.521   0.597  23.151  0.00  0.00    -0.228 OA
BRANCH  18  20
ATOM     20  O   UNL     1       8.256  -0.340  22.295  0.00  0.00    -0.303 OA
ATOM     21  H   UNL     1       8.194   0.562  21.932  0.00  0.00    +0.222 HD
ENDBRANCH  18  20
BRANCH  18  22
ATOM     22  O   UNL     1      10.276  -1.624  21.763  0.00  0.00    -0.303 OA
ATOM     23  H   UNL     1      10.588  -1.126  20.987  0.00  0.00    +0.222 HD
ENDBRANCH  18  22
ENDBRANCH  17  18
ENDBRANCH  16  17
ENDBRANCH  13  16
TORSDOF 5
ENDMDL
