MODEL 1
REMARK VINA RESULT:      -7.0      0.000      0.000
REMARK  Name = 
REMARK  12 active torsions:
REMARK  status: ('A' for Active; 'I' for Inactive)
REMARK    1  A    between atoms: C_1  and  O_2
REMARK    2  A    between atoms: O_2  and  C_3
REMARK    3  A    between atoms: N_6  and  C_7
REMARK    4  A    between atoms: C_7  and  C_8
REMARK    5  A    between atoms: C_8  and  C_9
REMARK    6  A    between atoms: C_9  and  O_10
REMARK    7  A    between atoms: O_10  and  C_11
REMARK    8  A    between atoms: C_20  and  N_22
REMARK    9  A    between atoms: C_23  and  C_25
REMARK   10  A    between atoms: C_29  and  N_30
REMARK   11  A    between atoms: C_32  and  O_33
REMARK   12  A    between atoms: O_33  and  C_34
REMARK                            x       y       z     vdW  Elec       q    Type
REMARK                         _______ _______ _______ _____ _____    ______ ____
ROOT
ATOM      1  C   UNL     1       8.322  -2.964  24.643  0.00  0.00    +0.152 C 
ATOM      2  C   UNL     1       7.186  -2.724  23.615  0.00  0.00    +0.104 C 
ATOM      3  C   UNL     1       7.795  -2.386  22.252  0.00  0.00    +0.040 C 
ATOM      4  C   UNL     1       8.722  -1.167  22.359  0.00  0.00    +0.086 C 
ATOM      5  N   UNL     1       9.752  -1.338  23.389  0.00  0.00    -0.300 NA
ATOM      6  C   UNL     1       9.158  -1.663  24.707  0.00  0.00    +0.117 C 
ENDROOT
BRANCH   2   7
ATOM      7  N   UNL     1       6.215  -3.821  23.522  0.00  0.00    -0.306 N 
ATOM      8  H   UNL     1       6.524  -4.684  23.102  0.00  0.00    +0.149 HD
ATOM      9  C   UNL     1       4.937  -3.707  24.053  0.00  0.00    +0.248 C 
ATOM     10  O   UNL     1       4.524  -2.658  24.528  0.00  0.00    -0.270 OA
BRANCH   9  11
ATOM     11  C   UNL     1       4.109  -4.961  24.087  0.00  0.00    +0.080 A 
ATOM     12  C   UNL     1       4.565  -6.146  24.698  0.00  0.00    +0.134 A 
ATOM     13  C   UNL     1       3.786  -7.316  24.601  0.00  0.00    +0.070 A 
ATOM     14  C   UNL     1       2.565  -7.336  23.918  0.00  0.00    +0.047 A 
ATOM     15  C   UNL     1       2.155  -6.162  23.271  0.00  0.00    +0.062 A 
ATOM     16 CL   UNL     1       0.702  -6.127  22.337  0.00  0.00    -0.082 Cl
ATOM     17  C   UNL     1       2.903  -4.986  23.371  0.00  0.00    +0.038 A 
BRANCH  14  18
ATOM     18  N   UNL     1       1.924  -8.567  23.701  0.00  0.00    -0.357 N 
ATOM     19  H   UNL     1       1.965  -9.216  24.483  0.00  0.00    +0.142 HD
ATOM     20  H   UNL     1       0.984  -8.467  23.320  0.00  0.00    +0.142 HD
ENDBRANCH  14  18
BRANCH  12  21
ATOM     21  O   UNL     1       5.734  -6.109  25.414  0.00  0.00    -0.494 OA
ATOM     22  C   UNL     1       5.604  -6.063  26.834  0.00  0.00    +0.277 C 
ENDBRANCH  12  21
ENDBRANCH   9  11
ENDBRANCH   2   7
BRANCH   1  24
ATOM     23  C   UNL     1       9.433  -5.027  25.244  0.00  0.00    +0.194 C 
ATOM     24  O   UNL     1       9.261  -4.003  24.290  0.00  0.00    -0.377 OA
ENDBRANCH   1  24
BRANCH   5  25
ATOM     25  C   UNL     1      10.674  -0.195  23.443  0.00  0.00    +0.088 C 
BRANCH  25  26
ATOM     26  C   UNL     1      10.274   0.876  24.468  0.00  0.00    +0.056 C 
BRANCH  26  27
ATOM     27  C   UNL     1      10.293   2.281  23.872  0.00  0.00    +0.230 C 
BRANCH  27  28
ATOM     28  O   UNL     1       9.350   3.093  24.579  0.00  0.00    -0.492 OA
BRANCH  28  29
ATOM     29  C   UNL     1       8.818   4.125  23.852  0.00  0.00    +0.121 A 
ATOM     30  C   UNL     1       9.242   5.457  23.913  0.00  0.00    +0.048 A 
ATOM     31  C   UNL     1       8.640   6.421  23.100  0.00  0.00    +0.042 A 
ATOM     32  C   UNL     1       7.611   6.050  22.243  0.00  0.00    +0.124 A 
ATOM     33  F   UNL     1       7.046   6.973  21.454  0.00  0.00    -0.205 F 
ATOM     34  C   UNL     1       7.156   4.739  22.198  0.00  0.00    +0.042 A 
ATOM     35  C   UNL     1       7.758   3.776  23.011  0.00  0.00    +0.048 A 
ENDBRANCH  28  29
ENDBRANCH  27  28
ENDBRANCH  26  27
ENDBRANCH  25  26
ENDBRANCH   5  25
TORSDOF 10
ENDMDL
MODEL 2
REMARK VINA RESULT:      -7.0      3.447      4.811
REMARK  Name = 
REMARK  12 active torsions:
REMARK  status: ('A' for Active; 'I' for Inactive)
REMARK    1  A    between atoms: C_1  and  O_2
REMARK    2  A    between atoms: O_2  and  C_3
REMARK    3  A    between atoms: N_6  and  C_7
REMARK    4  A    between atoms: C_7  and  C_8
REMARK    5  A    between atoms: C_8  and  C_9
REMARK    6  A    between atoms: C_9  and  O_10
REMARK    7  A    between atoms: O_10  and  C_11
REMARK    8  A    between atoms: C_20  and  N_22
REMARK    9  A    between atoms: C_23  and  C_25
REMARK   10  A    between atoms: C_29  and  N_30
REMARK   11  A    between atoms: C_32  and  O_33
REMARK   12  A    between atoms: O_33  and  C_34
REMARK                            x       y       z     vdW  Elec       q    Type
REMARK                         _______ _______ _______ _____ _____    ______ ____
ROOT
ATOM      1  C   UNL     1       6.121   0.703  25.901  0.00  0.00    +0.152 C 
ATOM      2  C   UNL     1       5.816  -0.353  24.808  0.00  0.00    +0.104 C 
ATOM      3  C   UNL     1       6.708  -0.101  23.590  0.00  0.00    +0.040 C 
ATOM      4  C   UNL     1       6.511   1.327  23.061  0.00  0.00    +0.086 C 
ATOM      5  N   UNL     1       6.711   2.340  24.102  0.00  0.00    -0.300 NA
ATOM      6  C   UNL     1       5.844   2.093  25.278  0.00  0.00    +0.117 C 
ENDROOT
BRANCH   2   7
ATOM      7  N   UNL     1       5.904  -1.743  25.272  0.00  0.00    -0.306 N 
ATOM      8  H   UNL     1       6.796  -2.207  25.189  0.00  0.00    +0.149 HD
ATOM      9  C   UNL     1       4.824  -2.382  25.867  0.00  0.00    +0.248 C 
ATOM     10  O   UNL     1       3.721  -1.856  25.940  0.00  0.00    -0.270 OA
BRANCH   9  11
ATOM     11  C   UNL     1       5.096  -3.722  26.490  0.00  0.00    +0.080 A 
ATOM     12  C   UNL     1       5.231  -4.894  25.721  0.00  0.00    +0.134 A 
ATOM     13  C   UNL     1       5.378  -6.134  26.373  0.00  0.00    +0.070 A 
ATOM     14  C   UNL     1       5.400  -6.237  27.768  0.00  0.00    +0.047 A 
ATOM     15  C   UNL     1       5.210  -5.066  28.516  0.00  0.00    +0.062 A 
ATOM     16 CL   UNL     1       5.140  -5.120  30.241  0.00  0.00    -0.082 Cl
ATOM     17  C   UNL     1       5.082  -3.825  27.889  0.00  0.00    +0.038 A 
BRANCH  14  18
ATOM     18  N   UNL     1       5.368  -7.511  28.360  0.00  0.00    -0.357 N 
ATOM     19  H   UNL     1       6.203  -7.764  28.880  0.00  0.00    +0.142 HD
ATOM     20  H   UNL     1       4.509  -7.688  28.881  0.00  0.00    +0.142 HD
ENDBRANCH  14  18
BRANCH  12  21
ATOM     21  O   UNL     1       5.266  -4.784  24.355  0.00  0.00    -0.494 OA
ATOM     22  C   UNL     1       6.507  -5.100  23.726  0.00  0.00    +0.277 C 
ENDBRANCH  12  21
ENDBRANCH   9  11
ENDBRANCH   2   7
BRANCH   1  24
ATOM     23  C   UNL     1       7.788   0.041  27.524  0.00  0.00    +0.194 C 
ATOM     24  O   UNL     1       7.496   0.751  26.341  0.00  0.00    -0.377 OA
ENDBRANCH   1  24
BRANCH   5  25
ATOM     25  C   UNL     1       6.585   3.706  23.575  0.00  0.00    +0.088 C 
BRANCH  25  26
ATOM     26  C   UNL     1       7.931   4.396  23.312  0.00  0.00    +0.056 C 
BRANCH  26  27
ATOM     27  C   UNL     1       9.019   3.923  24.272  0.00  0.00    +0.230 C 
BRANCH  27  28
ATOM     28  O   UNL     1      10.138   3.462  23.508  0.00  0.00    -0.492 OA
BRANCH  28  29
ATOM     29  C   UNL     1      10.152   2.115  23.259  0.00  0.00    +0.121 A 
ATOM     30  C   UNL     1       9.957   1.524  22.006  0.00  0.00    +0.048 A 
ATOM     31  C   UNL     1      10.022   0.136  21.869  0.00  0.00    +0.042 A 
ATOM     32  C   UNL     1      10.268  -0.652  22.987  0.00  0.00    +0.124 A 
ATOM     33  F   UNL     1      10.345  -1.983  22.850  0.00  0.00    -0.205 F 
ATOM     34  C   UNL     1      10.430  -0.082  24.242  0.00  0.00    +0.042 A 
ATOM     35  C   UNL     1      10.364   1.306  24.378  0.00  0.00    +0.048 A 
ENDBRANCH  28  29
ENDBRANCH  27  28
ENDBRANCH  26  27
ENDBRANCH  25  26
ENDBRANCH   5  25
TORSDOF 10
ENDMDL
MODEL 3
REMARK VINA RESULT:      -6.9      4.628     10.173
REMARK  Name = 
REMARK  12 active torsions:
REMARK  status: ('A' for Active; 'I' for Inactive)
REMARK    1  A    between atoms: C_1  and  O_2
REMARK    2  A    between atoms: O_2  and  C_3
REMARK    3  A    between atoms: N_6  and  C_7
REMARK    4  A    between atoms: C_7  and  C_8
REMARK    5  A    between atoms: C_8  and  C_9
REMARK    6  A    between atoms: C_9  and  O_10
REMARK    7  A    between atoms: O_10  and  C_11
REMARK    8  A    between atoms: C_20  and  N_22
REMARK    9  A    between atoms: C_23  and  C_25
REMARK   10  A    between atoms: C_29  and  N_30
REMARK   11  A    between atoms: C_32  and  O_33
REMARK   12  A    between atoms: O_33  and  C_34
REMARK                            x       y       z     vdW  Elec       q    Type
REMARK                         _______ _______ _______ _____ _____    ______ ____
ROOT
ATOM      1  C   UNL     1       9.071  -1.917  24.597  0.00  0.00    +0.152 C 
ATOM      2  C   UNL     1       8.782  -1.062  23.336  0.00  0.00    +0.104 C 
ATOM      3  C   UNL     1       7.468  -1.522  22.699  0.00  0.00    +0.040 C 
ATOM      4  C   UNL     1       7.522  -3.018  22.362  0.00  0.00    +0.086 C 
ATOM      5  N   UNL     1       7.881  -3.839  23.524  0.00  0.00    -0.300 NA
ATOM      6  C   UNL     1       9.154  -3.393  24.136  0.00  0.00    +0.117 C 
ENDROOT
BRANCH   2   7
ATOM      7  N   UNL     1       8.798   0.386  23.573  0.00  0.00    -0.306 N 
ATOM      8  H   UNL     1       8.264   0.738  24.353  0.00  0.00    +0.149 HD
ATOM      9  C   UNL     1       9.572   1.241  22.799  0.00  0.00    +0.248 C 
ATOM     10  O   UNL     1      10.193   0.846  21.822  0.00  0.00    -0.270 OA
BRANCH   9  11
ATOM     11  C   UNL     1       9.672   2.665  23.267  0.00  0.00    +0.080 A 
ATOM     12  C   UNL     1       8.534   3.467  23.486  0.00  0.00    +0.134 A 
ATOM     13  C   UNL     1       8.700   4.824  23.821  0.00  0.00    +0.070 A 
ATOM     14  C   UNL     1       9.967   5.403  23.950  0.00  0.00    +0.047 A 
ATOM     15  C   UNL     1      11.085   4.604  23.676  0.00  0.00    +0.062 A 
ATOM     16 CL   UNL     1      12.681   5.265  23.731  0.00  0.00    -0.082 Cl
ATOM     17  C   UNL     1      10.943   3.251  23.361  0.00  0.00    +0.038 A 
BRANCH  14  18
ATOM     18  N   UNL     1      10.069   6.796  24.107  0.00  0.00    -0.357 N 
ATOM     19  H   UNL     1       9.719   7.343  23.325  0.00  0.00    +0.142 HD
ATOM     20  H   UNL     1       9.718   7.124  25.007  0.00  0.00    +0.142 HD
ENDBRANCH  14  18
BRANCH  12  21
ATOM     21  O   UNL     1       7.295   2.883  23.414  0.00  0.00    -0.494 OA
ATOM     22  C   UNL     1       6.472   3.278  22.318  0.00  0.00    +0.277 C 
ENDBRANCH  12  21
ENDBRANCH   9  11
ENDBRANCH   2   7
BRANCH   1  24
ATOM     23  C   UNL     1       8.320  -1.123  26.754  0.00  0.00    +0.194 C 
ATOM     24  O   UNL     1       8.039  -1.892  25.606  0.00  0.00    -0.377 OA
ENDBRANCH   1  24
BRANCH   5  25
ATOM     25  C   UNL     1       7.868  -5.274  23.211  0.00  0.00    +0.088 C 
BRANCH  25  26
ATOM     26  C   UNL     1       7.251  -5.605  21.844  0.00  0.00    +0.056 C 
BRANCH  26  27
ATOM     27  C   UNL     1       5.930  -6.358  21.975  0.00  0.00    +0.230 C 
BRANCH  27  28
ATOM     28  O   UNL     1       4.886  -5.414  22.235  0.00  0.00    -0.492 OA
BRANCH  28  29
ATOM     29  C   UNL     1       4.148  -5.665  23.361  0.00  0.00    +0.121 A 
ATOM     30  C   UNL     1       3.058  -4.904  23.798  0.00  0.00    +0.048 A 
ATOM     31  C   UNL     1       2.364  -5.276  24.951  0.00  0.00    +0.042 A 
ATOM     32  C   UNL     1       2.770  -6.395  25.667  0.00  0.00    +0.124 A 
ATOM     33  F   UNL     1       2.092  -6.758  26.764  0.00  0.00    -0.205 F 
ATOM     34  C   UNL     1       3.871  -7.139  25.265  0.00  0.00    +0.042 A 
ATOM     35  C   UNL     1       4.566  -6.767  24.112  0.00  0.00    +0.048 A 
ENDBRANCH  28  29
ENDBRANCH  27  28
ENDBRANCH  26  27
ENDBRANCH  25  26
ENDBRANCH   5  25
TORSDOF 10
ENDMDL
MODEL 4
REMARK VINA RESULT:      -6.8      4.470     10.036
REMARK  Name = 
REMARK  12 active torsions:
REMARK  status: ('A' for Active; 'I' for Inactive)
REMARK    1  A    between atoms: C_1  and  O_2
REMARK    2  A    between atoms: O_2  and  C_3
REMARK    3  A    between atoms: N_6  and  C_7
REMARK    4  A    between atoms: C_7  and  C_8
REMARK    5  A    between atoms: C_8  and  C_9
REMARK    6  A    between atoms: C_9  and  O_10
REMARK    7  A    between atoms: O_10  and  C_11
REMARK    8  A    between atoms: C_20  and  N_22
REMARK    9  A    between atoms: C_23  and  C_25
REMARK   10  A    between atoms: C_29  and  N_30
REMARK   11  A    between atoms: C_32  and  O_33
REMARK   12  A    between atoms: O_33  and  C_34
REMARK                            x       y       z     vdW  Elec       q    Type
REMARK                         _______ _______ _______ _____ _____    ______ ____
ROOT
ATOM      1  C   UNL     1       8.812  -2.282  24.427  0.00  0.00    +0.152 C 
ATOM      2  C   UNL     1       8.547  -1.361  23.208  0.00  0.00    +0.104 C 
ATOM      3  C   UNL     1       7.200  -1.724  22.578  0.00  0.00    +0.040 C 
ATOM      4  C   UNL     1       7.171  -3.206  22.178  0.00  0.00    +0.086 C 
ATOM      5  N   UNL     1       7.506  -4.093  23.297  0.00  0.00    -0.300 NA
ATOM      6  C   UNL     1       8.811  -3.739  23.903  0.00  0.00    +0.117 C 
ENDROOT
BRANCH   2   7
ATOM      7  N   UNL     1       8.642   0.074  23.505  0.00  0.00    -0.306 N 
ATOM      8  H   UNL     1       8.267   0.395  24.385  0.00  0.00    +0.149 HD
ATOM      9  C   UNL     1       9.282   0.954  22.642  0.00  0.00    +0.248 C 
ATOM     10  O   UNL     1       9.705   0.598  21.550  0.00  0.00    -0.270 OA
BRANCH   9  11
ATOM     11  C   UNL     1       9.501   2.351  23.150  0.00  0.00    +0.080 A 
ATOM     12  C   UNL     1       8.434   3.196  23.510  0.00  0.00    +0.134 A 
ATOM     13  C   UNL     1       8.701   4.530  23.876  0.00  0.00    +0.070 A 
ATOM     14  C   UNL     1      10.004   5.042  23.898  0.00  0.00    +0.047 A 
ATOM     15  C   UNL     1      11.047   4.202  23.485  0.00  0.00    +0.062 A 
ATOM     16 CL   UNL     1      12.672   4.783  23.403  0.00  0.00    -0.082 Cl
ATOM     17  C   UNL     1      10.804   2.871  23.137  0.00  0.00    +0.038 A 
BRANCH  14  18
ATOM     18  N   UNL     1      10.192   6.421  24.095  0.00  0.00    -0.357 N 
ATOM     19  H   UNL     1      10.650   6.671  24.967  0.00  0.00    +0.142 HD
ATOM     20  H   UNL     1      10.601   6.888  23.286  0.00  0.00    +0.142 HD
ENDBRANCH  14  18
BRANCH  12  21
ATOM     21  O   UNL     1       7.165   2.676  23.542  0.00  0.00    -0.494 OA
ATOM     22  C   UNL     1       6.322   2.995  22.436  0.00  0.00    +0.277 C 
ENDBRANCH  12  21
ENDBRANCH   9  11
ENDBRANCH   2   7
BRANCH   1  24
ATOM     23  C   UNL     1       8.184  -1.656  26.677  0.00  0.00    +0.194 C 
ATOM     24  O   UNL     1       7.800  -2.246  25.455  0.00  0.00    -0.377 OA
ENDBRANCH   1  24
BRANCH   5  25
ATOM     25  C   UNL     1       7.414  -5.511  22.925  0.00  0.00    +0.088 C 
BRANCH  25  26
ATOM     26  C   UNL     1       5.985  -5.980  22.616  0.00  0.00    +0.056 C 
BRANCH  26  27
ATOM     27  C   UNL     1       5.012  -5.644  23.743  0.00  0.00    +0.230 C 
BRANCH  27  28
ATOM     28  O   UNL     1       5.028  -6.711  24.697  0.00  0.00    -0.492 OA
BRANCH  28  29
ATOM     29  C   UNL     1       5.309  -6.331  25.983  0.00  0.00    +0.121 A 
ATOM     30  C   UNL     1       6.396  -5.541  26.371  0.00  0.00    +0.048 A 
ATOM     31  C   UNL     1       6.565  -5.194  27.714  0.00  0.00    +0.042 A 
ATOM     32  C   UNL     1       5.654  -5.649  28.659  0.00  0.00    +0.124 A 
ATOM     33  F   UNL     1       5.809  -5.301  29.944  0.00  0.00    -0.205 F 
ATOM     34  C   UNL     1       4.590  -6.462  28.294  0.00  0.00    +0.042 A 
ATOM     35  C   UNL     1       4.422  -6.809  26.952  0.00  0.00    +0.048 A 
ENDBRANCH  28  29
ENDBRANCH  27  28
ENDBRANCH  26  27
ENDBRANCH  25  26
ENDBRANCH   5  25
TORSDOF 10
ENDMDL
MODEL 5
REMARK VINA RESULT:      -6.8      3.105      4.205
REMARK  Name = 
REMARK  12 active torsions:
REMARK  status: ('A' for Active; 'I' for Inactive)
REMARK    1  A    between atoms: C_1  and  O_2
REMARK    2  A    between atoms: O_2  and  C_3
REMARK    3  A    between atoms: N_6  and  C_7
REMARK    4  A    between atoms: C_7  and  C_8
REMARK    5  A    between atoms: C_8  and  C_9
REMARK    6  A    between atoms: C_9  and  O_10
REMARK    7  A    between atoms: O_10  and  C_11
REMARK    8  A    between atoms: C_20  and  N_22
REMARK    9  A    between atoms: C_23  and  C_25
REMARK   10  A    between atoms: C_29  and  N_30
REMARK   11  A    between atoms: C_32  and  O_33
REMARK   12  A    between atoms: O_33  and  C_34
REMARK                            x       y       z     vdW  Elec       q    Type
REMARK                         _______ _______ _______ _____ _____    ______ ____
ROOT
ATOM      1  C   UNL     1       8.074  -2.725  23.136  0.00  0.00    +0.152 C 
ATOM      2  C   UNL     1       8.422  -2.675  24.646  0.00  0.00    +0.104 C 
ATOM      3  C   UNL     1       8.492  -1.217  25.106  0.00  0.00    +0.040 C 
ATOM      4  C   UNL     1       9.513  -0.433  24.270  0.00  0.00    +0.086 C 
ATOM      5  N   UNL     1       9.252  -0.538  22.830  0.00  0.00    -0.300 NA
ATOM      6  C   UNL     1       9.187  -1.951  22.389  0.00  0.00    +0.117 C 
ENDROOT
BRANCH   2   7
ATOM      7  N   UNL     1       7.532  -3.475  25.496  0.00  0.00    -0.306 N 
ATOM      8  H   UNL     1       6.652  -3.063  25.769  0.00  0.00    +0.149 HD
ATOM      9  C   UNL     1       7.850  -4.777  25.861  0.00  0.00    +0.248 C 
ATOM     10  O   UNL     1       8.928  -5.282  25.581  0.00  0.00    -0.270 OA
BRANCH   9  11
ATOM     11  C   UNL     1       6.772  -5.563  26.551  0.00  0.00    +0.080 A 
ATOM     12  C   UNL     1       5.647  -6.060  25.864  0.00  0.00    +0.134 A 
ATOM     13  C   UNL     1       4.620  -6.696  26.588  0.00  0.00    +0.070 A 
ATOM     14  C   UNL     1       4.687  -6.856  27.976  0.00  0.00    +0.047 A 
ATOM     15  C   UNL     1       5.787  -6.308  28.649  0.00  0.00    +0.062 A 
ATOM     16 CL   UNL     1       5.903  -6.390  30.371  0.00  0.00    -0.082 Cl
ATOM     17  C   UNL     1       6.825  -5.691  27.947  0.00  0.00    +0.038 A 
BRANCH  14  18
ATOM     18  N   UNL     1       3.557  -7.334  28.663  0.00  0.00    -0.357 N 
ATOM     19  H   UNL     1       2.715  -6.779  28.543  0.00  0.00    +0.142 HD
ATOM     20  H   UNL     1       3.396  -8.332  28.523  0.00  0.00    +0.142 HD
ENDBRANCH  14  18
BRANCH  12  21
ATOM     21  O   UNL     1       5.611  -5.951  24.497  0.00  0.00    -0.494 OA
ATOM     22  C   UNL     1       4.317  -5.964  23.895  0.00  0.00    +0.277 C 
ENDBRANCH  12  21
ENDBRANCH   9  11
ENDBRANCH   2   7
BRANCH   1  24
ATOM     23  C   UNL     1       5.827  -2.904  22.260  0.00  0.00    +0.194 C 
ATOM     24  O   UNL     1       6.842  -2.068  22.769  0.00  0.00    -0.377 OA
ENDBRANCH   1  24
BRANCH   5  25
ATOM     25  C   UNL     1      10.193   0.266  22.038  0.00  0.00    +0.088 C 
BRANCH  25  26
ATOM     26  C   UNL     1       9.760   1.729  21.859  0.00  0.00    +0.056 C 
BRANCH  26  27
ATOM     27  C   UNL     1       8.263   1.858  21.590  0.00  0.00    +0.230 C 
BRANCH  27  28
ATOM     28  O   UNL     1       7.737   2.903  22.416  0.00  0.00    -0.492 OA
BRANCH  28  29
ATOM     29  C   UNL     1       7.318   2.502  23.657  0.00  0.00    +0.121 A 
ATOM     30  C   UNL     1       7.902   2.886  24.869  0.00  0.00    +0.048 A 
ATOM     31  C   UNL     1       7.368   2.434  26.077  0.00  0.00    +0.042 A 
ATOM     32  C   UNL     1       6.263   1.592  26.066  0.00  0.00    +0.124 A 
ATOM     33  F   UNL     1       5.743   1.172  27.228  0.00  0.00    -0.205 F 
ATOM     34  C   UNL     1       5.694   1.175  24.870  0.00  0.00    +0.042 A 
ATOM     35  C   UNL     1       6.229   1.627  23.662  0.00  0.00    +0.048 A 
ENDBRANCH  28  29
ENDBRANCH  27  28
ENDBRANCH  26  27
ENDBRANCH  25  26
ENDBRANCH   5  25
TORSDOF 10
ENDMDL
MODEL 6
REMARK VINA RESULT:      -6.8      2.550      2.919
REMARK  Name = 
REMARK  12 active torsions:
REMARK  status: ('A' for Active; 'I' for Inactive)
REMARK    1  A    between atoms: C_1  and  O_2
REMARK    2  A    between atoms: O_2  and  C_3
REMARK    3  A    between atoms: N_6  and  C_7
REMARK    4  A    between atoms: C_7  and  C_8
REMARK    5  A    between atoms: C_8  and  C_9
REMARK    6  A    between atoms: C_9  and  O_10
REMARK    7  A    between atoms: O_10  and  C_11
REMARK    8  A    between atoms: C_20  and  N_22
REMARK    9  A    between atoms: C_23  and  C_25
REMARK   10  A    between atoms: C_29  and  N_30
REMARK   11  A    between atoms: C_32  and  O_33
REMARK   12  A    between atoms: O_33  and  C_34
REMARK                            x       y       z     vdW  Elec       q    Type
REMARK                         _______ _______ _______ _____ _____    ______ ____
ROOT
ATOM      1  C   UNL     1       8.496  -3.341  24.734  0.00  0.00    +0.152 C 
ATOM      2  C   UNL     1       7.245  -3.347  23.818  0.00  0.00    +0.104 C 
ATOM      3  C   UNL     1       7.682  -3.223  22.356  0.00  0.00    +0.040 C 
ATOM      4  C   UNL     1       8.524  -1.958  22.146  0.00  0.00    +0.086 C 
ATOM      5  N   UNL     1       9.666  -1.889  23.064  0.00  0.00    -0.300 NA
ATOM      6  C   UNL     1       9.239  -2.007  24.478  0.00  0.00    +0.117 C 
ENDROOT
BRANCH   2   7
ATOM      7  N   UNL     1       6.351  -4.492  24.027  0.00  0.00    -0.306 N 
ATOM      8  H   UNL     1       6.772  -5.376  24.267  0.00  0.00    +0.149 HD
ATOM      9  C   UNL     1       4.970  -4.357  23.964  0.00  0.00    +0.248 C 
ATOM     10  O   UNL     1       4.436  -3.308  23.631  0.00  0.00    -0.270 OA
BRANCH   9  11
ATOM     11  C   UNL     1       4.159  -5.544  24.402  0.00  0.00    +0.080 A 
ATOM     12  C   UNL     1       4.415  -6.226  25.607  0.00  0.00    +0.134 A 
ATOM     13  C   UNL     1       3.689  -7.395  25.908  0.00  0.00    +0.070 A 
ATOM     14  C   UNL     1       2.711  -7.899  25.043  0.00  0.00    +0.047 A 
ATOM     15  C   UNL     1       2.508  -7.237  23.824  0.00  0.00    +0.062 A 
ATOM     16 CL   UNL     1       1.379  -7.844  22.665  0.00  0.00    -0.082 Cl
ATOM     17  C   UNL     1       3.204  -6.066  23.516  0.00  0.00    +0.038 A 
BRANCH  14  18
ATOM     18  N   UNL     1       2.150  -9.160  25.307  0.00  0.00    -0.357 N 
ATOM     19  H   UNL     1       1.335  -9.148  25.915  0.00  0.00    +0.142 HD
ATOM     20  H   UNL     1       2.007  -9.719  24.466  0.00  0.00    +0.142 HD
ENDBRANCH  14  18
BRANCH  12  21
ATOM     21  O   UNL     1       5.333  -5.699  26.478  0.00  0.00    -0.494 OA
ATOM     22  C   UNL     1       5.360  -6.263  27.789  0.00  0.00    +0.277 C 
ENDBRANCH  12  21
ENDBRANCH   9  11
ENDBRANCH   2   7
BRANCH   1  24
ATOM     23  C   UNL     1       9.819  -5.195  25.547  0.00  0.00    +0.194 C 
ATOM     24  O   UNL     1       9.465  -4.375  24.456  0.00  0.00    -0.377 OA
ENDBRANCH   1  24
BRANCH   5  25
ATOM     25  C   UNL     1      10.504  -0.708  22.816  0.00  0.00    +0.088 C 
BRANCH  25  26
ATOM     26  C   UNL     1       9.883   0.297  21.836  0.00  0.00    +0.056 C 
BRANCH  26  27
ATOM     27  C   UNL     1       9.792   1.701  22.429  0.00  0.00    +0.230 C 
BRANCH  27  28
ATOM     28  O   UNL     1       8.413   2.028  22.627  0.00  0.00    -0.492 OA
BRANCH  28  29
ATOM     29  C   UNL     1       7.842   1.474  23.742  0.00  0.00    +0.121 A 
ATOM     30  C   UNL     1       8.333   1.600  25.046  0.00  0.00    +0.048 A 
ATOM     31  C   UNL     1       7.647   1.011  26.111  0.00  0.00    +0.042 A 
ATOM     32  C   UNL     1       6.485   0.291  25.865  0.00  0.00    +0.124 A 
ATOM     33  F   UNL     1       5.821  -0.260  26.890  0.00  0.00    -0.205 F 
ATOM     34  C   UNL     1       6.006   0.128  24.572  0.00  0.00    +0.042 A 
ATOM     35  C   UNL     1       6.692   0.716  23.507  0.00  0.00    +0.048 A 
ENDBRANCH  28  29
ENDBRANCH  27  28
ENDBRANCH  26  27
ENDBRANCH  25  26
ENDBRANCH   5  25
TORSDOF 10
ENDMDL
MODEL 7
REMARK VINA RESULT:      -6.8      2.829      4.294
REMARK  Name = 
REMARK  12 active torsions:
REMARK  status: ('A' for Active; 'I' for Inactive)
REMARK    1  A    between atoms: C_1  and  O_2
REMARK    2  A    between atoms: O_2  and  C_3
REMARK    3  A    between atoms: N_6  and  C_7
REMARK    4  A    between atoms: C_7  and  C_8
REMARK    5  A    between atoms: C_8  and  C_9
REMARK    6  A    between atoms: C_9  and  O_10
REMARK    7  A    between atoms: O_10  and  C_11
REMARK    8  A    between atoms: C_20  and  N_22
REMARK    9  A    between atoms: C_23  and  C_25
REMARK   10  A    between atoms: C_29  and  N_30
REMARK   11  A    between atoms: C_32  and  O_33
REMARK   12  A    between atoms: O_33  and  C_34
REMARK                            x       y       z     vdW  Elec       q    Type
REMARK                         _______ _______ _______ _____ _____    ______ ____
ROOT
ATOM      1  C   UNL     1       7.159   0.478  26.072  0.00  0.00    +0.152 C 
ATOM      2  C   UNL     1       5.812   0.338  25.315  0.00  0.00    +0.104 C 
ATOM      3  C   UNL     1       5.555   1.604  24.494  0.00  0.00    +0.040 C 
ATOM      4  C   UNL     1       5.566   2.847  25.395  0.00  0.00    +0.086 C 
ATOM      5  N   UNL     1       6.797   2.951  26.186  0.00  0.00    -0.300 NA
ATOM      6  C   UNL     1       7.041   1.725  26.981  0.00  0.00    +0.117 C 
ENDROOT
BRANCH   2   7
ATOM      7  N   UNL     1       5.704  -0.875  24.498  0.00  0.00    -0.306 N 
ATOM      8  H   UNL     1       5.842  -0.783  23.503  0.00  0.00    +0.149 HD
ATOM      9  C   UNL     1       5.485  -2.121  25.071  0.00  0.00    +0.248 C 
ATOM     10  O   UNL     1       5.270  -2.254  26.268  0.00  0.00    -0.270 OA
BRANCH   9  11
ATOM     11  C   UNL     1       5.603  -3.310  24.160  0.00  0.00    +0.080 A 
ATOM     12  C   UNL     1       6.745  -3.538  23.366  0.00  0.00    +0.134 A 
ATOM     13  C   UNL     1       6.749  -4.611  22.454  0.00  0.00    +0.070 A 
ATOM     14  C   UNL     1       5.650  -5.467  22.316  0.00  0.00    +0.047 A 
ATOM     15  C   UNL     1       4.504  -5.192  23.075  0.00  0.00    +0.062 A 
ATOM     16 CL   UNL     1       3.077  -6.149  22.901  0.00  0.00    -0.082 Cl
ATOM     17  C   UNL     1       4.487  -4.144  23.998  0.00  0.00    +0.038 A 
BRANCH  14  18
ATOM     18  N   UNL     1       5.642  -6.404  21.269  0.00  0.00    -0.357 N 
ATOM     19  H   UNL     1       5.138  -7.264  21.467  0.00  0.00    +0.142 HD
ATOM     20  H   UNL     1       5.388  -5.996  20.369  0.00  0.00    +0.142 HD
ENDBRANCH  14  18
BRANCH  12  21
ATOM     21  O   UNL     1       7.840  -2.733  23.544  0.00  0.00    -0.494 OA
ATOM     22  C   UNL     1       8.416  -2.178  22.362  0.00  0.00    +0.277 C 
ENDBRANCH  12  21
ENDBRANCH   9  11
ENDBRANCH   2   7
BRANCH   1  24
ATOM     23  C   UNL     1       9.398  -0.156  25.413  0.00  0.00    +0.194 C 
ATOM     24  O   UNL     1       8.310   0.724  25.236  0.00  0.00    -0.377 OA
ENDBRANCH   1  24
BRANCH   5  25
ATOM     25  C   UNL     1       6.830   4.176  26.998  0.00  0.00    +0.088 C 
BRANCH  25  26
ATOM     26  C   UNL     1       7.302   5.417  26.228  0.00  0.00    +0.056 C 
BRANCH  26  27
ATOM     27  C   UNL     1       8.588   5.158  25.449  0.00  0.00    +0.230 C 
BRANCH  27  28
ATOM     28  O   UNL     1       8.286   5.160  24.049  0.00  0.00    -0.492 OA
BRANCH  28  29
ATOM     29  C   UNL     1       8.658   4.025  23.378  0.00  0.00    +0.121 A 
ATOM     30  C   UNL     1       7.856   3.327  22.468  0.00  0.00    +0.048 A 
ATOM     31  C   UNL     1       8.356   2.195  21.821  0.00  0.00    +0.042 A 
ATOM     32  C   UNL     1       9.647   1.761  22.097  0.00  0.00    +0.124 A 
ATOM     33  F   UNL     1      10.130   0.683  21.463  0.00  0.00    -0.205 F 
ATOM     34  C   UNL     1      10.441   2.424  23.023  0.00  0.00    +0.042 A 
ATOM     35  C   UNL     1       9.941   3.555  23.670  0.00  0.00    +0.048 A 
ENDBRANCH  28  29
ENDBRANCH  27  28
ENDBRANCH  26  27
ENDBRANCH  25  26
ENDBRANCH   5  25
TORSDOF 10
ENDMDL
MODEL 8
REMARK VINA RESULT:      -6.7      1.395      2.007
REMARK  Name = 
REMARK  12 active torsions:
REMARK  status: ('A' for Active; 'I' for Inactive)
REMARK    1  A    between atoms: C_1  and  O_2
REMARK    2  A    between atoms: O_2  and  C_3
REMARK    3  A    between atoms: N_6  and  C_7
REMARK    4  A    between atoms: C_7  and  C_8
REMARK    5  A    between atoms: C_8  and  C_9
REMARK    6  A    between atoms: C_9  and  O_10
REMARK    7  A    between atoms: O_10  and  C_11
REMARK    8  A    between atoms: C_20  and  N_22
REMARK    9  A    between atoms: C_23  and  C_25
REMARK   10  A    between atoms: C_29  and  N_30
REMARK   11  A    between atoms: C_32  and  O_33
REMARK   12  A    between atoms: O_33  and  C_34
REMARK                            x       y       z     vdW  Elec       q    Type
REMARK                         _______ _______ _______ _____ _____    ______ ____
ROOT
ATOM      1  C   UNL     1       7.133  -1.473  23.504  0.00  0.00    +0.152 C 
ATOM      2  C   UNL     1       7.607  -2.945  23.624  0.00  0.00    +0.104 C 
ATOM      3  C   UNL     1       8.973  -2.985  24.315  0.00  0.00    +0.040 C 
ATOM      4  C   UNL     1       9.992  -2.128  23.553  0.00  0.00    +0.086 C 
ATOM      5  N   UNL     1       9.524  -0.752  23.351  0.00  0.00    -0.300 NA
ATOM      6  C   UNL     1       8.204  -0.717  22.681  0.00  0.00    +0.117 C 
ENDROOT
BRANCH   2   7
ATOM      7  N   UNL     1       6.640  -3.839  24.272  0.00  0.00    -0.306 N 
ATOM      8  H   UNL     1       6.113  -3.472  25.050  0.00  0.00    +0.149 HD
ATOM      9  C   UNL     1       6.404  -5.122  23.795  0.00  0.00    +0.248 C 
ATOM     10  O   UNL     1       7.060  -5.605  22.882  0.00  0.00    -0.270 OA
BRANCH   9  11
ATOM     11  C   UNL     1       5.247  -5.862  24.405  0.00  0.00    +0.080 A 
ATOM     12  C   UNL     1       5.288  -6.372  25.717  0.00  0.00    +0.134 A 
ATOM     13  C   UNL     1       4.212  -7.148  26.191  0.00  0.00    +0.070 A 
ATOM     14  C   UNL     1       3.096  -7.425  25.394  0.00  0.00    +0.047 A 
ATOM     15  C   UNL     1       3.097  -6.955  24.074  0.00  0.00    +0.062 A 
ATOM     16 CL   UNL     1       1.795  -7.325  23.001  0.00  0.00    -0.082 Cl
ATOM     17  C   UNL     1       4.145  -6.167  23.592  0.00  0.00    +0.038 A 
BRANCH  14  18
ATOM     18  N   UNL     1       2.142  -8.350  25.854  0.00  0.00    -0.357 N 
ATOM     19  H   UNL     1       1.191  -8.178  25.539  0.00  0.00    +0.142 HD
ATOM     20  H   UNL     1       2.431  -9.320  25.726  0.00  0.00    +0.142 HD
ENDBRANCH  14  18
BRANCH  12  21
ATOM     21  O   UNL     1       6.358  -6.051  26.513  0.00  0.00    -0.494 OA
ATOM     22  C   UNL     1       6.060  -5.352  27.721  0.00  0.00    +0.277 C 
ENDBRANCH  12  21
ENDBRANCH   9  11
ENDBRANCH   2   7
BRANCH   1  24
ATOM     23  C   UNL     1       5.898   0.063  24.906  0.00  0.00    +0.194 C 
ATOM     24  O   UNL     1       7.037  -0.755  24.753  0.00  0.00    -0.377 OA
ENDBRANCH   1  24
BRANCH   5  25
ATOM     25  C   UNL     1      10.530   0.081  22.678  0.00  0.00    +0.088 C 
BRANCH  25  26
ATOM     26  C   UNL     1      10.104   1.545  22.499  0.00  0.00    +0.056 C 
BRANCH  26  27
ATOM     27  C   UNL     1      10.502   2.411  23.691  0.00  0.00    +0.230 C 
BRANCH  27  28
ATOM     28  O   UNL     1       9.314   2.928  24.300  0.00  0.00    -0.492 OA
BRANCH  28  29
ATOM     29  C   UNL     1       8.781   4.029  23.684  0.00  0.00    +0.121 A 
ATOM     30  C   UNL     1       9.296   5.328  23.766  0.00  0.00    +0.048 A 
ATOM     31  C   UNL     1       8.680   6.369  23.068  0.00  0.00    +0.042 A 
ATOM     32  C   UNL     1       7.549   6.109  22.304  0.00  0.00    +0.124 A 
ATOM     33  F   UNL     1       6.970   7.108  21.624  0.00  0.00    -0.205 F 
ATOM     34  C   UNL     1       7.008   4.832  22.241  0.00  0.00    +0.042 A 
ATOM     35  C   UNL     1       7.623   3.792  22.940  0.00  0.00    +0.048 A 
ENDBRANCH  28  29
ENDBRANCH  27  28
ENDBRANCH  26  27
ENDBRANCH  25  26
ENDBRANCH   5  25
TORSDOF 10
ENDMDL
MODEL 9
REMARK VINA RESULT:      -6.7      1.661      1.942
REMARK  Name = 
REMARK  12 active torsions:
REMARK  status: ('A' for Active; 'I' for Inactive)
REMARK    1  A    between atoms: C_1  and  O_2
REMARK    2  A    between atoms: O_2  and  C_3
REMARK    3  A    between atoms: N_6  and  C_7
REMARK    4  A    between atoms: C_7  and  C_8
REMARK    5  A    between atoms: C_8  and  C_9
REMARK    6  A    between atoms: C_9  and  O_10
REMARK    7  A    between atoms: O_10  and  C_11
REMARK    8  A    between atoms: C_20  and  N_22
REMARK    9  A    between atoms: C_23  and  C_25
REMARK   10  A    between atoms: C_29  and  N_30
REMARK   11  A    between atoms: C_32  and  O_33
REMARK   12  A    between atoms: O_33  and  C_34
REMARK                            x       y       z     vdW  Elec       q    Type
REMARK                         _______ _______ _______ _____ _____    ______ ____
ROOT
ATOM      1  C   UNL     1       7.824  -3.088  25.039  0.00  0.00    +0.152 C 
ATOM      2  C   UNL     1       6.861  -3.455  23.881  0.00  0.00    +0.104 C 
ATOM      3  C   UNL     1       7.665  -3.661  22.595  0.00  0.00    +0.040 C 
ATOM      4  C   UNL     1       8.489  -2.409  22.263  0.00  0.00    +0.086 C 
ATOM      5  N   UNL     1       9.344  -1.993  23.380  0.00  0.00    -0.300 NA
ATOM      6  C   UNL     1       8.562  -1.792  24.622  0.00  0.00    +0.117 C 
ENDROOT
BRANCH   2   7
ATOM      7  N   UNL     1       5.983  -4.596  24.166  0.00  0.00    -0.306 N 
ATOM      8  H   UNL     1       6.347  -5.330  24.755  0.00  0.00    +0.149 HD
ATOM      9  C   UNL     1       4.674  -4.640  23.702  0.00  0.00    +0.248 C 
ATOM     10  O   UNL     1       4.224  -3.786  22.951  0.00  0.00    -0.270 OA
BRANCH   9  11
ATOM     11  C   UNL     1       3.812  -5.751  24.232  0.00  0.00    +0.080 A 
ATOM     12  C   UNL     1       3.885  -6.187  25.570  0.00  0.00    +0.134 A 
ATOM     13  C   UNL     1       3.127  -7.302  25.975  0.00  0.00    +0.070 A 
ATOM     14  C   UNL     1       2.293  -7.991  25.087  0.00  0.00    +0.047 A 
ATOM     15  C   UNL     1       2.275  -7.575  23.748  0.00  0.00    +0.062 A 
ATOM     16 CL   UNL     1       1.337  -8.424  22.571  0.00  0.00    -0.082 Cl
ATOM     17  C   UNL     1       3.004  -6.460  23.330  0.00  0.00    +0.038 A 
BRANCH  14  18
ATOM     18  N   UNL     1       1.704  -9.198  25.499  0.00  0.00    -0.357 N 
ATOM     19  H   UNL     1       2.038  -9.556  26.390  0.00  0.00    +0.142 HD
ATOM     20  H   UNL     1       0.686  -9.189  25.433  0.00  0.00    +0.142 HD
ENDBRANCH  14  18
BRANCH  12  21
ATOM     21  O   UNL     1       4.659  -5.476  26.451  0.00  0.00    -0.494 OA
ATOM     22  C   UNL     1       5.348  -6.236  27.443  0.00  0.00    +0.277 C 
ENDBRANCH  12  21
ENDBRANCH   9  11
ENDBRANCH   2   7
BRANCH   1  24
ATOM     23  C   UNL     1       8.759  -4.761  26.514  0.00  0.00    +0.194 C 
ATOM     24  O   UNL     1       8.866  -4.052  25.300  0.00  0.00    -0.377 OA
ENDBRANCH   1  24
BRANCH   5  25
ATOM     25  C   UNL     1      10.177  -0.833  23.035  0.00  0.00    +0.088 C 
BRANCH  25  26
ATOM     26  C   UNL     1       9.745  -0.121  21.745  0.00  0.00    +0.056 C 
BRANCH  26  27
ATOM     27  C   UNL     1       9.456   1.360  21.973  0.00  0.00    +0.230 C 
BRANCH  27  28
ATOM     28  O   UNL     1       9.701   1.670  23.349  0.00  0.00    -0.492 OA
BRANCH  28  29
ATOM     29  C   UNL     1       9.992   2.985  23.601  0.00  0.00    +0.121 A 
ATOM     30  C   UNL     1      11.208   3.612  23.308  0.00  0.00    +0.048 A 
ATOM     31  C   UNL     1      11.379   4.970  23.586  0.00  0.00    +0.042 A 
ATOM     32  C   UNL     1      10.341   5.688  24.167  0.00  0.00    +0.124 A 
ATOM     33  F   UNL     1      10.502   6.994  24.418  0.00  0.00    -0.205 F 
ATOM     34  C   UNL     1       9.141   5.071  24.494  0.00  0.00    +0.042 A 
ATOM     35  C   UNL     1       8.971   3.713  24.216  0.00  0.00    +0.048 A 
ENDBRANCH  28  29
ENDBRANCH  27  28
ENDBRANCH  26  27
ENDBRANCH  25  26
ENDBRANCH   5  25
TORSDOF 10
ENDMDL
