MODEL 1
REMARK VINA RESULT:      -5.0      0.000      0.000
REMARK  Name = 
REMARK  7 active torsions:
REMARK  status: ('A' for Active; 'I' for Inactive)
REMARK    1  A    between atoms: N_1  and  CA_2
REMARK    2  A    between atoms: CA_2  and  C_4
REMARK    3  A    between atoms: CA_2  and  C_11
REMARK    4  A    between atoms: C_4  and  C_5
REMARK    5  A    between atoms: C_5  and  N_6
REMARK    6  A    between atoms: N_9  and  O_10
REMARK    7  A    between atoms: C_11  and  O_12
REMARK                            x       y       z     vdW  Elec       q    Type
REMARK                         _______ _______ _______ _____ _____    ______ ____
ROOT
ATOM      1  C   UNL     1      10.067   4.858  24.032  0.00  0.00    +0.198 C 
ENDROOT
BRANCH   1   2
ATOM      2  N   UNL     1      11.123   4.723  23.047  0.00  0.00    -0.274 N 
ATOM      3  H   UNL     1      11.138   3.872  22.498  0.00  0.00    +0.258 HD
ATOM      4  C   UNL     1      12.321   5.359  23.124  0.00  0.00    +0.406 C 
ATOM      5  N   UNL     1      12.983   5.377  21.924  0.00  0.00    -0.142 N 
ATOM      6  H   UNL     1      12.370   5.597  21.143  0.00  0.00    +0.299 HD
ATOM      7  N   UNL     1      12.830   5.915  24.170  0.00  0.00    -0.128 NA
ATOM      8  H   UNL     1      12.200   5.794  24.962  0.00  0.00    +0.306 HD
BRANCH   5   9
ATOM      9  O   UNL     1      14.100   6.233  21.961  0.00  0.00    -0.233 OA
ATOM     10  H   UNL     1      14.819   5.648  21.620  0.00  0.00    +0.262 HD
ENDBRANCH   5   9
ENDBRANCH   1   2
BRANCH   1  11
ATOM     11  C   UNL     1       8.745   4.316  23.481  0.00  0.00    +0.067 C 
BRANCH  11  12
ATOM     12  CA  UNL     1       8.690   2.782  23.467  0.00  0.00    +0.164 C 
BRANCH  12  13
ATOM     13  N   UNL     1       9.824   2.222  24.270  0.00  0.00    -0.318 NA
ATOM     14  H1  UNL     1       9.443   1.745  25.098  0.00  0.00    +0.119 HD
ATOM     15  H2  UNL     1      10.252   1.466  23.725  0.00  0.00    +0.119 HD
ENDBRANCH  12  13
BRANCH  12  16
ATOM     16  C   UNL     1       8.784   2.198  22.039  0.00  0.00    +0.322 C 
ATOM     17  OXT UNL     1       7.855   1.744  21.393  0.00  0.00    -0.249 OA
BRANCH  16  18
ATOM     18  O   UNL     1      10.064   2.221  21.579  0.00  0.00    -0.480 OA
ATOM     19  H   UNL     1      10.369   3.157  21.688  0.00  0.00    +0.295 HD
ENDBRANCH  16  18
ENDBRANCH  12  16
ENDBRANCH  11  12
ENDBRANCH   1  11
TORSDOF 7
ENDMDL
MODEL 2
REMARK VINA RESULT:      -4.7      8.818     10.029
REMARK  Name = 
REMARK  7 active torsions:
REMARK  status: ('A' for Active; 'I' for Inactive)
REMARK    1  A    between atoms: N_1  and  CA_2
REMARK    2  A    between atoms: CA_2  and  C_4
REMARK    3  A    between atoms: CA_2  and  C_11
REMARK    4  A    between atoms: C_4  and  C_5
REMARK    5  A    between atoms: C_5  and  N_6
REMARK    6  A    between atoms: N_9  and  O_10
REMARK    7  A    between atoms: C_11  and  O_12
REMARK                            x       y       z     vdW  Elec       q    Type
REMARK                         _______ _______ _______ _____ _____    ______ ____
ROOT
ATOM      1  C   UNL     1       9.058  -3.286  24.073  0.00  0.00    +0.198 C 
ENDROOT
BRANCH   1   2
ATOM      2  N   UNL     1       7.769  -3.360  23.415  0.00  0.00    -0.274 N 
ATOM      3  H   UNL     1       7.021  -2.791  23.794  0.00  0.00    +0.258 HD
ATOM      4  C   UNL     1       7.344  -4.428  22.691  0.00  0.00    +0.406 C 
ATOM      5  N   UNL     1       6.288  -4.121  21.873  0.00  0.00    -0.142 N 
ATOM      6  H   UNL     1       6.410  -3.233  21.394  0.00  0.00    +0.299 HD
ATOM      7  N   UNL     1       7.841  -5.618  22.712  0.00  0.00    -0.128 NA
ATOM      8  H   UNL     1       8.610  -5.655  23.381  0.00  0.00    +0.306 HD
BRANCH   5   9
ATOM      9  O   UNL     1       6.014  -5.163  20.966  0.00  0.00    -0.233 OA
ATOM     10  H   UNL     1       5.839  -5.922  21.572  0.00  0.00    +0.262 HD
ENDBRANCH   5   9
ENDBRANCH   1   2
BRANCH   1  11
ATOM     11  C   UNL     1       8.890  -3.334  25.594  0.00  0.00    +0.067 C 
BRANCH  11  12
ATOM     12  CA  UNL     1       9.064  -4.746  26.169  0.00  0.00    +0.164 C 
BRANCH  12  13
ATOM     13  N   UNL     1       9.814  -5.605  25.197  0.00  0.00    -0.318 NA
ATOM     14  H1  UNL     1       9.945  -6.539  25.608  0.00  0.00    +0.119 HD
ATOM     15  H2  UNL     1       9.203  -5.774  24.391  0.00  0.00    +0.119 HD
ENDBRANCH  12  13
BRANCH  12  16
ATOM     16  C   UNL     1       7.714  -5.436  26.470  0.00  0.00    +0.322 C 
ATOM     17  OXT UNL     1       6.760  -5.494  25.713  0.00  0.00    -0.249 OA
BRANCH  16  18
ATOM     18  O   UNL     1       7.697  -5.964  27.724  0.00  0.00    -0.480 OA
ATOM     19  H   UNL     1       8.078  -6.874  27.635  0.00  0.00    +0.295 HD
ENDBRANCH  16  18
ENDBRANCH  12  16
ENDBRANCH  11  12
ENDBRANCH   1  11
TORSDOF 7
ENDMDL
MODEL 3
REMARK VINA RESULT:      -4.7      9.899     12.092
REMARK  Name = 
REMARK  7 active torsions:
REMARK  status: ('A' for Active; 'I' for Inactive)
REMARK    1  A    between atoms: N_1  and  CA_2
REMARK    2  A    between atoms: CA_2  and  C_4
REMARK    3  A    between atoms: CA_2  and  C_11
REMARK    4  A    between atoms: C_4  and  C_5
REMARK    5  A    between atoms: C_5  and  N_6
REMARK    6  A    between atoms: N_9  and  O_10
REMARK    7  A    between atoms: C_11  and  O_12
REMARK                            x       y       z     vdW  Elec       q    Type
REMARK                         _______ _______ _______ _____ _____    ______ ____
ROOT
ATOM      1  C   UNL     1       5.612  -4.643  24.900  0.00  0.00    +0.198 C 
ENDROOT
BRANCH   1   2
ATOM      2  N   UNL     1       5.100  -5.783  25.636  0.00  0.00    -0.274 N 
ATOM      3  H   UNL     1       5.506  -5.967  26.546  0.00  0.00    +0.258 HD
ATOM      4  C   UNL     1       4.518  -6.864  25.056  0.00  0.00    +0.406 C 
ATOM      5  N   UNL     1       3.792  -7.610  25.947  0.00  0.00    -0.142 N 
ATOM      6  H   UNL     1       3.229  -7.036  26.569  0.00  0.00    +0.299 HD
ATOM      7  N   UNL     1       4.589  -7.201  23.813  0.00  0.00    -0.128 NA
ATOM      8  H   UNL     1       5.175  -6.534  23.311  0.00  0.00    +0.306 HD
BRANCH   5   9
ATOM      9  O   UNL     1       3.011  -8.583  25.295  0.00  0.00    -0.233 OA
ATOM     10  H   UNL     1       2.102  -8.206  25.376  0.00  0.00    +0.262 HD
ENDBRANCH   5   9
ENDBRANCH   1   2
BRANCH   1  11
ATOM     11  C   UNL     1       6.941  -4.169  25.496  0.00  0.00    +0.067 C 
BRANCH  11  12
ATOM     12  CA  UNL     1       7.943  -5.312  25.703  0.00  0.00    +0.164 C 
BRANCH  12  13
ATOM     13  N   UNL     1       8.032  -5.657  27.158  0.00  0.00    -0.318 NA
ATOM     14  H1  UNL     1       7.238  -6.261  27.408  0.00  0.00    +0.119 HD
ATOM     15  H2  UNL     1       8.851  -6.259  27.290  0.00  0.00    +0.119 HD
ENDBRANCH  12  13
BRANCH  12  16
ATOM     16  C   UNL     1       9.364  -4.953  25.212  0.00  0.00    +0.322 C 
ATOM     17  OXT UNL     1       9.647  -4.033  24.463  0.00  0.00    -0.249 OA
BRANCH  16  18
ATOM     18  O   UNL     1      10.291  -5.821  25.700  0.00  0.00    -0.480 OA
ATOM     19  H   UNL     1       9.811  -6.373  26.368  0.00  0.00    +0.295 HD
ENDBRANCH  16  18
ENDBRANCH  12  16
ENDBRANCH  11  12
ENDBRANCH   1  11
TORSDOF 7
ENDMDL
MODEL 4
REMARK VINA RESULT:      -4.7      6.420      7.984
REMARK  Name = 
REMARK  7 active torsions:
REMARK  status: ('A' for Active; 'I' for Inactive)
REMARK    1  A    between atoms: N_1  and  CA_2
REMARK    2  A    between atoms: CA_2  and  C_4
REMARK    3  A    between atoms: CA_2  and  C_11
REMARK    4  A    between atoms: C_4  and  C_5
REMARK    5  A    between atoms: C_5  and  N_6
REMARK    6  A    between atoms: N_9  and  O_10
REMARK    7  A    between atoms: C_11  and  O_12
REMARK                            x       y       z     vdW  Elec       q    Type
REMARK                         _______ _______ _______ _____ _____    ______ ____
ROOT
ATOM      1  C   UNL     1       9.616  -2.681  24.064  0.00  0.00    +0.198 C 
ENDROOT
BRANCH   1   2
ATOM      2  N   UNL     1       8.851  -1.607  23.461  0.00  0.00    -0.274 N 
ATOM      3  H   UNL     1       7.864  -1.557  23.687  0.00  0.00    +0.258 HD
ATOM      4  C   UNL     1       9.189  -0.991  22.299  0.00  0.00    +0.406 C 
ATOM      5  N   UNL     1       8.548   0.210  22.137  0.00  0.00    -0.142 N 
ATOM      6  H   UNL     1       8.536   0.765  22.989  0.00  0.00    +0.299 HD
ATOM      7  N   UNL     1      10.019  -1.424  21.413  0.00  0.00    -0.128 NA
ATOM      8  H   UNL     1      10.387  -2.330  21.703  0.00  0.00    +0.306 HD
BRANCH   5   9
ATOM      9  O   UNL     1       9.079   0.940  21.055  0.00  0.00    -0.233 OA
ATOM     10  H   UNL     1       8.652   0.501  20.281  0.00  0.00    +0.262 HD
ENDBRANCH   5   9
ENDBRANCH   1   2
BRANCH   1  11
ATOM     11  C   UNL     1       8.737  -3.917  24.271  0.00  0.00    +0.067 C 
BRANCH  11  12
ATOM     12  CA  UNL     1       9.045  -4.656  25.580  0.00  0.00    +0.164 C 
BRANCH  12  13
ATOM     13  N   UNL     1      10.097  -5.697  25.343  0.00  0.00    -0.318 NA
ATOM     14  H1  UNL     1       9.887  -6.192  24.466  0.00  0.00    +0.119 HD
ATOM     15  H2  UNL     1      10.980  -5.213  25.148  0.00  0.00    +0.119 HD
ENDBRANCH  12  13
BRANCH  12  16
ATOM     16  C   UNL     1       7.804  -5.361  26.171  0.00  0.00    +0.322 C 
ATOM     17  OXT UNL     1       6.724  -5.484  25.618  0.00  0.00    -0.249 OA
BRANCH  16  18
ATOM     18  O   UNL     1       8.048  -5.820  27.429  0.00  0.00    -0.480 OA
ATOM     19  H   UNL     1       7.168  -6.104  27.783  0.00  0.00    +0.295 HD
ENDBRANCH  16  18
ENDBRANCH  12  16
ENDBRANCH  11  12
ENDBRANCH   1  11
TORSDOF 7
ENDMDL
MODEL 5
REMARK VINA RESULT:      -4.6      5.364      8.019
REMARK  Name = 
REMARK  7 active torsions:
REMARK  status: ('A' for Active; 'I' for Inactive)
REMARK    1  A    between atoms: N_1  and  CA_2
REMARK    2  A    between atoms: CA_2  and  C_4
REMARK    3  A    between atoms: CA_2  and  C_11
REMARK    4  A    between atoms: C_4  and  C_5
REMARK    5  A    between atoms: C_5  and  N_6
REMARK    6  A    between atoms: N_9  and  O_10
REMARK    7  A    between atoms: C_11  and  O_12
REMARK                            x       y       z     vdW  Elec       q    Type
REMARK                         _______ _______ _______ _____ _____    ______ ____
ROOT
ATOM      1  C   UNL     1       9.584  -2.472  23.677  0.00  0.00    +0.198 C 
ENDROOT
BRANCH   1   2
ATOM      2  N   UNL     1       9.105  -2.944  24.961  0.00  0.00    -0.274 N 
ATOM      3  H   UNL     1       9.010  -2.259  25.701  0.00  0.00    +0.258 HD
ATOM      4  C   UNL     1       9.239  -4.223  25.400  0.00  0.00    +0.406 C 
ATOM      5  N   UNL     1       8.396  -4.510  26.442  0.00  0.00    -0.142 N 
ATOM      6  H   UNL     1       7.458  -4.147  26.298  0.00  0.00    +0.299 HD
ATOM      7  N   UNL     1      10.037  -5.118  24.926  0.00  0.00    -0.128 NA
ATOM      8  H   UNL     1      10.585  -4.719  24.164  0.00  0.00    +0.306 HD
BRANCH   5   9
ATOM      9  O   UNL     1       8.377  -5.889  26.728  0.00  0.00    -0.233 OA
ATOM     10  H   UNL     1       8.435  -6.288  25.827  0.00  0.00    +0.262 HD
ENDBRANCH   5   9
ENDBRANCH   1   2
BRANCH   1  11
ATOM     11  C   UNL     1      10.036  -1.012  23.774  0.00  0.00    +0.067 C 
BRANCH  11  12
ATOM     12  CA  UNL     1       9.476  -0.137  22.645  0.00  0.00    +0.164 C 
BRANCH  12  13
ATOM     13  N   UNL     1       9.803  -0.747  21.316  0.00  0.00    -0.318 NA
ATOM     14  H1  UNL     1       8.963  -0.727  20.723  0.00  0.00    +0.119 HD
ATOM     15  H2  UNL     1      10.459  -0.121  20.836  0.00  0.00    +0.119 HD
ENDBRANCH  12  13
BRANCH  12  16
ATOM     16  C   UNL     1      10.049   1.298  22.665  0.00  0.00    +0.322 C 
ATOM     17  OXT UNL     1      10.593   1.834  23.615  0.00  0.00    -0.249 OA
BRANCH  16  18
ATOM     18  O   UNL     1       9.850   1.927  21.475  0.00  0.00    -0.480 OA
ATOM     19  H   UNL     1       8.873   2.076  21.414  0.00  0.00    +0.295 HD
ENDBRANCH  16  18
ENDBRANCH  12  16
ENDBRANCH  11  12
ENDBRANCH   1  11
TORSDOF 7
ENDMDL
MODEL 6
REMARK VINA RESULT:      -4.6     10.037     10.804
REMARK  Name = 
REMARK  7 active torsions:
REMARK  status: ('A' for Active; 'I' for Inactive)
REMARK    1  A    between atoms: N_1  and  CA_2
REMARK    2  A    between atoms: CA_2  and  C_4
REMARK    3  A    between atoms: CA_2  and  C_11
REMARK    4  A    between atoms: C_4  and  C_5
REMARK    5  A    between atoms: C_5  and  N_6
REMARK    6  A    between atoms: N_9  and  O_10
REMARK    7  A    between atoms: C_11  and  O_12
REMARK                            x       y       z     vdW  Elec       q    Type
REMARK                         _______ _______ _______ _____ _____    ______ ____
ROOT
ATOM      1  C   UNL     1       7.581  -4.353  23.445  0.00  0.00    +0.198 C 
ENDROOT
BRANCH   1   2
ATOM      2  N   UNL     1       8.171  -5.075  24.556  0.00  0.00    -0.274 N 
ATOM      3  H   UNL     1       9.002  -5.622  24.364  0.00  0.00    +0.258 HD
ATOM      4  C   UNL     1       7.481  -5.475  25.656  0.00  0.00    +0.406 C 
ATOM      5  N   UNL     1       8.305  -5.789  26.706  0.00  0.00    -0.142 N 
ATOM      6  H   UNL     1       9.056  -5.115  26.828  0.00  0.00    +0.299 HD
ATOM      7  N   UNL     1       6.200  -5.560  25.771  0.00  0.00    -0.128 NA
ATOM      8  H   UNL     1       5.760  -5.294  24.890  0.00  0.00    +0.306 HD
BRANCH   5   9
ATOM      9  O   UNL     1       7.578  -5.972  27.898  0.00  0.00    -0.233 OA
ATOM     10  H   UNL     1       7.167  -5.085  28.027  0.00  0.00    +0.262 HD
ENDBRANCH   5   9
ENDBRANCH   1   2
BRANCH   1  11
ATOM     11  C   UNL     1       7.233  -5.312  22.304  0.00  0.00    +0.067 C 
BRANCH  11  12
ATOM     12  CA  UNL     1       5.837  -5.061  21.719  0.00  0.00    +0.164 C 
BRANCH  12  13
ATOM     13  N   UNL     1       5.611  -3.589  21.550  0.00  0.00    -0.318 NA
ATOM     14  H1  UNL     1       4.778  -3.444  20.964  0.00  0.00    +0.119 HD
ATOM     15  H2  UNL     1       5.341  -3.205  22.461  0.00  0.00    +0.119 HD
ENDBRANCH  12  13
BRANCH  12  16
ATOM     16  C   UNL     1       4.708  -5.615  22.617  0.00  0.00    +0.322 C 
ATOM     17  OXT UNL     1       3.612  -5.104  22.780  0.00  0.00    -0.249 OA
BRANCH  16  18
ATOM     18  O   UNL     1       5.093  -6.757  23.249  0.00  0.00    -0.480 OA
ATOM     19  H   UNL     1       5.936  -6.530  23.717  0.00  0.00    +0.295 HD
ENDBRANCH  16  18
ENDBRANCH  12  16
ENDBRANCH  11  12
ENDBRANCH   1  11
TORSDOF 7
ENDMDL
MODEL 7
REMARK VINA RESULT:      -4.6      6.481      8.159
REMARK  Name = 
REMARK  7 active torsions:
REMARK  status: ('A' for Active; 'I' for Inactive)
REMARK    1  A    between atoms: N_1  and  CA_2
REMARK    2  A    between atoms: CA_2  and  C_4
REMARK    3  A    between atoms: CA_2  and  C_11
REMARK    4  A    between atoms: C_4  and  C_5
REMARK    5  A    between atoms: C_5  and  N_6
REMARK    6  A    between atoms: N_9  and  O_10
REMARK    7  A    between atoms: C_11  and  O_12
REMARK                            x       y       z     vdW  Elec       q    Type
REMARK                         _______ _______ _______ _____ _____    ______ ____
ROOT
ATOM      1  C   UNL     1       7.725  -2.260  25.624  0.00  0.00    +0.198 C 
ENDROOT
BRANCH   1   2
ATOM      2  N   UNL     1       8.674  -1.528  24.807  0.00  0.00    -0.274 N 
ATOM      3  H   UNL     1       8.884  -0.576  25.082  0.00  0.00    +0.258 HD
ATOM      4  C   UNL     1       8.919  -1.797  23.499  0.00  0.00    +0.406 C 
ATOM      5  N   UNL     1      10.094  -1.243  23.061  0.00  0.00    -0.142 N 
ATOM      6  H   UNL     1      10.853  -1.359  23.727  0.00  0.00    +0.299 HD
ATOM      7  N   UNL     1       8.182  -2.498  22.707  0.00  0.00    -0.128 NA
ATOM      8  H   UNL     1       7.353  -2.819  23.207  0.00  0.00    +0.306 HD
BRANCH   5   9
ATOM      9  O   UNL     1      10.449  -1.721  21.785  0.00  0.00    -0.233 OA
ATOM     10  H   UNL     1      11.046  -1.007  21.455  0.00  0.00    +0.262 HD
ENDBRANCH   5   9
ENDBRANCH   1   2
BRANCH   1  11
ATOM     11  C   UNL     1       8.438  -3.336  26.445  0.00  0.00    +0.067 C 
BRANCH  11  12
ATOM     12  CA  UNL     1       8.041  -4.761  26.036  0.00  0.00    +0.164 C 
BRANCH  12  13
ATOM     13  N   UNL     1       8.175  -5.685  27.208  0.00  0.00    -0.318 NA
ATOM     14  H1  UNL     1       7.285  -5.700  27.725  0.00  0.00    +0.119 HD
ATOM     15  H2  UNL     1       8.266  -6.640  26.846  0.00  0.00    +0.119 HD
ENDBRANCH  12  13
BRANCH  12  16
ATOM     16  C   UNL     1       8.918  -5.316  24.891  0.00  0.00    +0.322 C 
ATOM     17  OXT UNL     1       8.584  -5.413  23.722  0.00  0.00    -0.249 OA
BRANCH  16  18
ATOM     18  O   UNL     1      10.132  -5.724  25.350  0.00  0.00    -0.480 OA
ATOM     19  H   UNL     1      10.225  -6.665  25.056  0.00  0.00    +0.295 HD
ENDBRANCH  16  18
ENDBRANCH  12  16
ENDBRANCH  11  12
ENDBRANCH   1  11
TORSDOF 7
ENDMDL
MODEL 8
REMARK VINA RESULT:      -4.5      3.592      4.244
REMARK  Name = 
REMARK  7 active torsions:
REMARK  status: ('A' for Active; 'I' for Inactive)
REMARK    1  A    between atoms: N_1  and  CA_2
REMARK    2  A    between atoms: CA_2  and  C_4
REMARK    3  A    between atoms: CA_2  and  C_11
REMARK    4  A    between atoms: C_4  and  C_5
REMARK    5  A    between atoms: C_5  and  N_6
REMARK    6  A    between atoms: N_9  and  O_10
REMARK    7  A    between atoms: C_11  and  O_12
REMARK                            x       y       z     vdW  Elec       q    Type
REMARK                         _______ _______ _______ _____ _____    ______ ____
ROOT
ATOM      1  C   UNL     1       8.553   2.989  23.393  0.00  0.00    +0.198 C 
ENDROOT
BRANCH   1   2
ATOM      2  N   UNL     1       8.548   4.404  23.074  0.00  0.00    -0.274 N 
ATOM      3  H   UNL     1       9.094   5.015  23.670  0.00  0.00    +0.258 HD
ATOM      4  C   UNL     1       7.549   5.029  22.400  0.00  0.00    +0.406 C 
ATOM      5  N   UNL     1       7.935   6.245  21.898  0.00  0.00    -0.142 N 
ATOM      6  H   UNL     1       8.858   6.216  21.473  0.00  0.00    +0.299 HD
ATOM      7  N   UNL     1       6.355   4.581  22.206  0.00  0.00    -0.128 NA
ATOM      8  H   UNL     1       6.254   3.672  22.657  0.00  0.00    +0.306 HD
BRANCH   5   9
ATOM      9  O   UNL     1       6.974   6.769  21.012  0.00  0.00    -0.233 OA
ATOM     10  H   UNL     1       7.531   7.306  20.399  0.00  0.00    +0.262 HD
ENDBRANCH   5   9
ENDBRANCH   1   2
BRANCH   1  11
ATOM     11  C   UNL     1       9.918   2.371  23.082  0.00  0.00    +0.067 C 
BRANCH  11  12
ATOM     12  CA  UNL     1       9.890   1.451  21.854  0.00  0.00    +0.164 C 
BRANCH  12  13
ATOM     13  N   UNL     1       8.604   1.634  21.108  0.00  0.00    -0.318 NA
ATOM     14  H1  UNL     1       7.968   2.211  21.674  0.00  0.00    +0.119 HD
ATOM     15  H2  UNL     1       8.798   2.216  20.286  0.00  0.00    +0.119 HD
ENDBRANCH  12  13
BRANCH  12  16
ATOM     16  C   UNL     1      10.013  -0.044  22.229  0.00  0.00    +0.322 C 
ATOM     17  OXT UNL     1      10.336  -0.480  23.321  0.00  0.00    -0.249 OA
BRANCH  16  18
ATOM     18  O   UNL     1       9.740  -0.845  21.164  0.00  0.00    -0.480 OA
ATOM     19  H   UNL     1       9.962  -0.307  20.363  0.00  0.00    +0.295 HD
ENDBRANCH  16  18
ENDBRANCH  12  16
ENDBRANCH  11  12
ENDBRANCH   1  11
TORSDOF 7
ENDMDL
MODEL 9
REMARK VINA RESULT:      -4.5      9.582     10.470
REMARK  Name = 
REMARK  7 active torsions:
REMARK  status: ('A' for Active; 'I' for Inactive)
REMARK    1  A    between atoms: N_1  and  CA_2
REMARK    2  A    between atoms: CA_2  and  C_4
REMARK    3  A    between atoms: CA_2  and  C_11
REMARK    4  A    between atoms: C_4  and  C_5
REMARK    5  A    between atoms: C_5  and  N_6
REMARK    6  A    between atoms: N_9  and  O_10
REMARK    7  A    between atoms: C_11  and  O_12
REMARK                            x       y       z     vdW  Elec       q    Type
REMARK                         _______ _______ _______ _____ _____    ______ ____
ROOT
ATOM      1  C   UNL     1       5.772  -4.530  24.627  0.00  0.00    +0.198 C 
ENDROOT
BRANCH   1   2
ATOM      2  N   UNL     1       6.378  -5.152  23.466  0.00  0.00    -0.274 N 
ATOM      3  H   UNL     1       7.301  -5.554  23.584  0.00  0.00    +0.258 HD
ATOM      4  C   UNL     1       6.071  -4.831  22.182  0.00  0.00    +0.406 C 
ATOM      5  N   UNL     1       6.477  -5.790  21.290  0.00  0.00    -0.142 N 
ATOM      6  H   UNL     1       6.276  -6.733  21.612  0.00  0.00    +0.299 HD
ATOM      7  N   UNL     1       5.456  -3.771  21.781  0.00  0.00    -0.128 NA
ATOM      8  H   UNL     1       5.241  -3.177  22.582  0.00  0.00    +0.306 HD
BRANCH   5   9
ATOM      9  O   UNL     1       5.949  -5.559  20.005  0.00  0.00    -0.233 OA
ATOM     10  H   UNL     1       5.686  -4.609  20.057  0.00  0.00    +0.262 HD
ENDBRANCH   5   9
ENDBRANCH   1   2
BRANCH   1  11
ATOM     11  C   UNL     1       6.832  -4.220  25.687  0.00  0.00    +0.067 C 
BRANCH  11  12
ATOM     12  CA  UNL     1       7.879  -5.332  25.827  0.00  0.00    +0.164 C 
BRANCH  12  13
ATOM     13  N   UNL     1       8.104  -5.642  27.276  0.00  0.00    -0.318 NA
ATOM     14  H1  UNL     1       7.323  -6.215  27.621  0.00  0.00    +0.119 HD
ATOM     15  H2  UNL     1       8.915  -6.266  27.342  0.00  0.00    +0.119 HD
ENDBRANCH  12  13
BRANCH  12  16
ATOM     16  C   UNL     1       9.241  -4.949  25.206  0.00  0.00    +0.322 C 
ATOM     17  OXT UNL     1       9.411  -4.149  24.301  0.00  0.00    -0.249 OA
BRANCH  16  18
ATOM     18  O   UNL     1      10.260  -5.644  25.780  0.00  0.00    -0.480 OA
ATOM     19  H   UNL     1       9.876  -6.523  26.027  0.00  0.00    +0.295 HD
ENDBRANCH  16  18
ENDBRANCH  12  16
ENDBRANCH  11  12
ENDBRANCH   1  11
TORSDOF 7
ENDMDL
