MODEL 1
REMARK VINA RESULT:      -5.9      0.000      0.000
REMARK  Name = 
REMARK  8 active torsions:
REMARK  status: ('A' for Active; 'I' for Inactive)
REMARK    1  A    between atoms: C_2  and  C_3
REMARK    2  A    between atoms: C_2  and  C_5
REMARK    3  A    between atoms: C_2  and  N_12
REMARK    4  A    between atoms: C_3  and  S_4
REMARK    5  A    between atoms: C_5  and  C_6
REMARK    6  A    between atoms: C_13  and  C_15
REMARK    7  A    between atoms: C_15  and  C_16
REMARK    8  A    between atoms: C_16  and  O_17
REMARK                            x       y       z     vdW  Elec       q    Type
REMARK                         _______ _______ _______ _____ _____    ______ ____
ROOT
ATOM      1  C   UNL     1       8.642  -2.807  24.301  0.00  0.00    +0.087 C 
ENDROOT
BRANCH   1   2
ATOM      2  N   UNL     1       8.287  -4.096  23.694  0.00  0.00    -0.311 N 
ATOM      3  H   UNL     1       8.533  -4.942  24.197  0.00  0.00    +0.149 HD
ATOM      4  C   UNL     1       7.455  -4.175  22.601  0.00  0.00    +0.224 C 
ATOM      5  O   UNL     1       6.963  -3.188  22.058  0.00  0.00    -0.275 OA
BRANCH   4   6
ATOM      6  C   UNL     1       7.205  -5.574  22.111  0.00  0.00    +0.216 C 
BRANCH   6   7
ATOM      7  C   UNL     1       5.967  -5.803  21.289  0.00  0.00    +0.314 C 
ATOM      8  O   UNL     1       5.979  -5.674  20.068  0.00  0.00    -0.250 OA
BRANCH   7   9
ATOM      9  O   UNL     1       4.842  -6.157  21.935  0.00  0.00    -0.480 OA
ATOM     10  H   UNL     1       4.434  -5.431  22.469  0.00  0.00    +0.295 HD
ENDBRANCH   7   9
ENDBRANCH   6   7
ENDBRANCH   4   6
ENDBRANCH   1   2
BRANCH   1  11
ATOM     11  C   UNL     1       8.555  -2.865  25.841  0.00  0.00    +0.088 C 
BRANCH  11  12
ATOM     12  S   UNL     1       8.464  -4.555  26.530  0.00  0.00    -0.176 S 
ATOM     13  H   UNL     1       7.137  -4.713  26.402  0.00  0.00    +0.102 HD
ENDBRANCH  11  12
ENDBRANCH   1  11
BRANCH   1  14
ATOM     14  C   UNL     1      10.016  -2.301  23.809  0.00  0.00    +0.058 C 
BRANCH  14  15
ATOM     15  C   UNL     1      10.003  -0.878  23.298  0.00  0.00    -0.046 A 
ATOM     16  C   UNL     1       9.520  -0.602  22.011  0.00  0.00    +0.004 A 
ATOM     17  C   UNL     1       9.497   0.706  21.528  0.00  0.00    +0.000 A 
ATOM     18  C   UNL     1       9.960   1.751  22.326  0.00  0.00    +0.000 A 
ATOM     19  C   UNL     1      10.451   1.487  23.603  0.00  0.00    +0.000 A 
ATOM     20  C   UNL     1      10.476   0.178  24.087  0.00  0.00    +0.004 A 
ENDBRANCH  14  15
ENDBRANCH   1  14
TORSDOF 8
ENDMDL
MODEL 2
REMARK VINA RESULT:      -5.7      2.448      3.251
REMARK  Name = 
REMARK  8 active torsions:
REMARK  status: ('A' for Active; 'I' for Inactive)
REMARK    1  A    between atoms: C_2  and  C_3
REMARK    2  A    between atoms: C_2  and  C_5
REMARK    3  A    between atoms: C_2  and  N_12
REMARK    4  A    between atoms: C_3  and  S_4
REMARK    5  A    between atoms: C_5  and  C_6
REMARK    6  A    between atoms: C_13  and  C_15
REMARK    7  A    between atoms: C_15  and  C_16
REMARK    8  A    between atoms: C_16  and  O_17
REMARK                            x       y       z     vdW  Elec       q    Type
REMARK                         _______ _______ _______ _____ _____    ______ ____
ROOT
ATOM      1  C   UNL     1       8.020  -2.055  22.422  0.00  0.00    +0.087 C 
ENDROOT
BRANCH   1   2
ATOM      2  N   UNL     1       8.160  -3.024  23.515  0.00  0.00    -0.311 N 
ATOM      3  H   UNL     1       8.410  -2.673  24.433  0.00  0.00    +0.149 HD
ATOM      4  C   UNL     1       7.754  -4.332  23.377  0.00  0.00    +0.224 C 
ATOM      5  O   UNL     1       7.258  -4.777  22.343  0.00  0.00    -0.275 OA
BRANCH   4   6
ATOM      6  C   UNL     1       7.978  -5.184  24.595  0.00  0.00    +0.216 C 
BRANCH   6   7
ATOM      7  C   UNL     1       9.273  -4.994  25.338  0.00  0.00    +0.314 C 
ATOM      8  O   UNL     1      10.318  -4.748  24.744  0.00  0.00    -0.250 OA
BRANCH   7   9
ATOM      9  O   UNL     1       9.248  -5.101  26.678  0.00  0.00    -0.480 OA
ATOM     10  H   UNL     1       8.415  -5.494  27.039  0.00  0.00    +0.295 HD
ENDBRANCH   7   9
ENDBRANCH   6   7
ENDBRANCH   4   6
ENDBRANCH   1   2
BRANCH   1  11
ATOM     11  C   UNL     1       7.070  -0.900  22.809  0.00  0.00    +0.088 C 
BRANCH  11  12
ATOM     12  S   UNL     1       6.543  -0.912  24.559  0.00  0.00    -0.176 S 
ATOM     13  H   UNL     1       6.511   0.419  24.729  0.00  0.00    +0.102 HD
ENDBRANCH  11  12
ENDBRANCH   1  11
BRANCH   1  14
ATOM     14  C   UNL     1       9.392  -1.545  21.928  0.00  0.00    +0.058 C 
BRANCH  14  15
ATOM     15  C   UNL     1       9.831  -0.244  22.560  0.00  0.00    -0.046 A 
ATOM     16  C   UNL     1       9.752   0.951  21.829  0.00  0.00    +0.004 A 
ATOM     17  C   UNL     1      10.148   2.159  22.401  0.00  0.00    +0.000 A 
ATOM     18  C   UNL     1      10.632   2.185  23.708  0.00  0.00    +0.000 A 
ATOM     19  C   UNL     1      10.723   1.003  24.440  0.00  0.00    +0.000 A 
ATOM     20  C   UNL     1      10.328  -0.207  23.869  0.00  0.00    +0.004 A 
ENDBRANCH  14  15
ENDBRANCH   1  14
TORSDOF 8
ENDMDL
MODEL 3
REMARK VINA RESULT:      -5.6      2.885      3.881
REMARK  Name = 
REMARK  8 active torsions:
REMARK  status: ('A' for Active; 'I' for Inactive)
REMARK    1  A    between atoms: C_2  and  C_3
REMARK    2  A    between atoms: C_2  and  C_5
REMARK    3  A    between atoms: C_2  and  N_12
REMARK    4  A    between atoms: C_3  and  S_4
REMARK    5  A    between atoms: C_5  and  C_6
REMARK    6  A    between atoms: C_13  and  C_15
REMARK    7  A    between atoms: C_15  and  C_16
REMARK    8  A    between atoms: C_16  and  O_17
REMARK                            x       y       z     vdW  Elec       q    Type
REMARK                         _______ _______ _______ _____ _____    ______ ____
ROOT
ATOM      1  C   UNL     1       7.644  -3.070  22.810  0.00  0.00    +0.087 C 
ENDROOT
BRANCH   1   2
ATOM      2  N   UNL     1       7.932  -3.873  24.004  0.00  0.00    -0.311 N 
ATOM      3  H   UNL     1       7.217  -4.514  24.331  0.00  0.00    +0.149 HD
ATOM      4  C   UNL     1       9.196  -3.937  24.544  0.00  0.00    +0.224 C 
ATOM      5  O   UNL     1      10.158  -3.331  24.076  0.00  0.00    -0.275 OA
BRANCH   4   6
ATOM      6  C   UNL     1       9.306  -4.802  25.768  0.00  0.00    +0.216 C 
BRANCH   6   7
ATOM      7  C   UNL     1       8.154  -4.772  26.736  0.00  0.00    +0.314 C 
ATOM      8  O   UNL     1       7.439  -3.781  26.846  0.00  0.00    -0.250 OA
BRANCH   7   9
ATOM      9  O   UNL     1       7.932  -5.871  27.480  0.00  0.00    -0.480 OA
ATOM     10  H   UNL     1       7.015  -5.937  27.843  0.00  0.00    +0.295 HD
ENDBRANCH   7   9
ENDBRANCH   6   7
ENDBRANCH   4   6
ENDBRANCH   1   2
BRANCH   1  11
ATOM     11  C   UNL     1       6.665  -3.798  21.863  0.00  0.00    +0.088 C 
BRANCH  11  12
ATOM     12  S   UNL     1       6.921  -5.605  21.757  0.00  0.00    -0.176 S 
ATOM     13  H   UNL     1       6.573  -5.894  23.020  0.00  0.00    +0.102 HD
ENDBRANCH  11  12
ENDBRANCH   1  11
BRANCH   1  14
ATOM     14  C   UNL     1       7.159  -1.650  23.176  0.00  0.00    +0.058 C 
BRANCH  14  15
ATOM     15  C   UNL     1       8.253  -0.606  23.177  0.00  0.00    -0.046 A 
ATOM     16  C   UNL     1       8.680  -0.040  24.387  0.00  0.00    +0.004 A 
ATOM     17  C   UNL     1       9.691   0.920  24.403  0.00  0.00    +0.000 A 
ATOM     18  C   UNL     1      10.284   1.326  23.209  0.00  0.00    +0.000 A 
ATOM     19  C   UNL     1       9.862   0.777  22.000  0.00  0.00    +0.000 A 
ATOM     20  C   UNL     1       8.849  -0.182  21.982  0.00  0.00    +0.004 A 
ENDBRANCH  14  15
ENDBRANCH   1  14
TORSDOF 8
ENDMDL
MODEL 4
REMARK VINA RESULT:      -5.5      1.079      1.630
REMARK  Name = 
REMARK  8 active torsions:
REMARK  status: ('A' for Active; 'I' for Inactive)
REMARK    1  A    between atoms: C_2  and  C_3
REMARK    2  A    between atoms: C_2  and  C_5
REMARK    3  A    between atoms: C_2  and  N_12
REMARK    4  A    between atoms: C_3  and  S_4
REMARK    5  A    between atoms: C_5  and  C_6
REMARK    6  A    between atoms: C_13  and  C_15
REMARK    7  A    between atoms: C_15  and  C_16
REMARK    8  A    between atoms: C_16  and  O_17
REMARK                            x       y       z     vdW  Elec       q    Type
REMARK                         _______ _______ _______ _____ _____    ______ ____
ROOT
ATOM      1  C   UNL     1       8.682  -2.620  24.243  0.00  0.00    +0.087 C 
ENDROOT
BRANCH   1   2
ATOM      2  N   UNL     1       7.848  -3.311  23.252  0.00  0.00    -0.311 N 
ATOM      3  H   UNL     1       7.991  -4.307  23.121  0.00  0.00    +0.149 HD
ATOM      4  C   UNL     1       6.757  -2.703  22.675  0.00  0.00    +0.224 C 
ATOM      5  O   UNL     1       6.411  -1.552  22.939  0.00  0.00    -0.275 OA
BRANCH   4   6
ATOM      6  C   UNL     1       6.024  -3.556  21.679  0.00  0.00    +0.216 C 
BRANCH   6   7
ATOM      7  C   UNL     1       6.175  -5.048  21.808  0.00  0.00    +0.314 C 
ATOM      8  O   UNL     1       6.418  -5.750  20.832  0.00  0.00    -0.250 OA
BRANCH   7   9
ATOM      9  O   UNL     1       6.037  -5.588  23.032  0.00  0.00    -0.480 OA
ATOM     10  H   UNL     1       5.100  -5.660  23.341  0.00  0.00    +0.295 HD
ENDBRANCH   7   9
ENDBRANCH   6   7
ENDBRANCH   4   6
ENDBRANCH   1   2
BRANCH   1  11
ATOM     11  C   UNL     1       8.870  -3.474  25.516  0.00  0.00    +0.088 C 
BRANCH  11  12
ATOM     12  S   UNL     1       9.124  -5.256  25.199  0.00  0.00    -0.176 S 
ATOM     13  H   UNL     1       9.481  -5.595  26.448  0.00  0.00    +0.102 HD
ENDBRANCH  11  12
ENDBRANCH   1  11
BRANCH   1  14
ATOM     14  C   UNL     1      10.027  -2.160  23.640  0.00  0.00    +0.058 C 
BRANCH  14  15
ATOM     15  C   UNL     1      10.085  -0.685  23.316  0.00  0.00    -0.046 A 
ATOM     16  C   UNL     1      10.550   0.225  24.276  0.00  0.00    +0.004 A 
ATOM     17  C   UNL     1      10.614   1.588  23.989  0.00  0.00    +0.000 A 
ATOM     18  C   UNL     1      10.211   2.056  22.740  0.00  0.00    +0.000 A 
ATOM     19  C   UNL     1       9.739   1.162  21.781  0.00  0.00    +0.000 A 
ATOM     20  C   UNL     1       9.673  -0.202  22.067  0.00  0.00    +0.004 A 
ENDBRANCH  14  15
ENDBRANCH   1  14
TORSDOF 8
ENDMDL
MODEL 5
REMARK VINA RESULT:      -5.5      5.928      8.500
REMARK  Name = 
REMARK  8 active torsions:
REMARK  status: ('A' for Active; 'I' for Inactive)
REMARK    1  A    between atoms: C_2  and  C_3
REMARK    2  A    between atoms: C_2  and  C_5
REMARK    3  A    between atoms: C_2  and  N_12
REMARK    4  A    between atoms: C_3  and  S_4
REMARK    5  A    between atoms: C_5  and  C_6
REMARK    6  A    between atoms: C_13  and  C_15
REMARK    7  A    between atoms: C_15  and  C_16
REMARK    8  A    between atoms: C_16  and  O_17
REMARK                            x       y       z     vdW  Elec       q    Type
REMARK                         _______ _______ _______ _____ _____    ______ ____
ROOT
ATOM      1  C   UNL     1       8.873   3.164  23.141  0.00  0.00    +0.087 C 
ENDROOT
BRANCH   1   2
ATOM      2  N   UNL     1       9.782   4.315  23.105  0.00  0.00    -0.311 N 
ATOM      3  H   UNL     1       9.375   5.241  23.021  0.00  0.00    +0.149 HD
ATOM      4  C   UNL     1      11.120   4.189  23.399  0.00  0.00    +0.224 C 
ATOM      5  O   UNL     1      11.644   3.119  23.702  0.00  0.00    -0.275 OA
BRANCH   4   6
ATOM      6  C   UNL     1      11.900   5.470  23.307  0.00  0.00    +0.216 C 
BRANCH   6   7
ATOM      7  C   UNL     1      13.230   5.417  22.605  0.00  0.00    +0.314 C 
ATOM      8  O   UNL     1      13.343   5.748  21.429  0.00  0.00    -0.250 OA
BRANCH   7   9
ATOM      9  O   UNL     1      14.294   4.994  23.310  0.00  0.00    -0.480 OA
ATOM     10  H   UNL     1      14.777   4.234  22.901  0.00  0.00    +0.295 HD
ENDBRANCH   7   9
ENDBRANCH   6   7
ENDBRANCH   4   6
ENDBRANCH   1   2
BRANCH   1  11
ATOM     11  C   UNL     1       7.395   3.609  23.089  0.00  0.00    +0.088 C 
BRANCH  11  12
ATOM     12  S   UNL     1       7.152   5.372  22.674  0.00  0.00    -0.176 S 
ATOM     13  H   UNL     1       5.814   5.336  22.580  0.00  0.00    +0.102 HD
ENDBRANCH  11  12
ENDBRANCH   1  11
BRANCH   1  14
ATOM     14  C   UNL     1       9.213   2.129  22.046  0.00  0.00    +0.058 C 
BRANCH  14  15
ATOM     15  C   UNL     1       9.456   0.732  22.570  0.00  0.00    -0.046 A 
ATOM     16  C   UNL     1       9.436   0.490  23.952  0.00  0.00    +0.004 A 
ATOM     17  C   UNL     1       9.653  -0.794  24.449  0.00  0.00    +0.000 A 
ATOM     18  C   UNL     1       9.896  -1.849  23.572  0.00  0.00    +0.000 A 
ATOM     19  C   UNL     1       9.927  -1.618  22.198  0.00  0.00    +0.000 A 
ATOM     20  C   UNL     1       9.711  -0.334  21.698  0.00  0.00    +0.004 A 
ENDBRANCH  14  15
ENDBRANCH   1  14
TORSDOF 8
ENDMDL
MODEL 6
REMARK VINA RESULT:      -5.3      2.713      6.000
REMARK  Name = 
REMARK  8 active torsions:
REMARK  status: ('A' for Active; 'I' for Inactive)
REMARK    1  A    between atoms: C_2  and  C_3
REMARK    2  A    between atoms: C_2  and  C_5
REMARK    3  A    between atoms: C_2  and  N_12
REMARK    4  A    between atoms: C_3  and  S_4
REMARK    5  A    between atoms: C_5  and  C_6
REMARK    6  A    between atoms: C_13  and  C_15
REMARK    7  A    between atoms: C_15  and  C_16
REMARK    8  A    between atoms: C_16  and  O_17
REMARK                            x       y       z     vdW  Elec       q    Type
REMARK                         _______ _______ _______ _____ _____    ______ ____
ROOT
ATOM      1  C   UNL     1       8.205  -2.362  24.495  0.00  0.00    +0.087 C 
ENDROOT
BRANCH   1   2
ATOM      2  N   UNL     1       8.807  -1.065  24.165  0.00  0.00    -0.311 N 
ATOM      3  H   UNL     1       8.490  -0.249  24.678  0.00  0.00    +0.149 HD
ATOM      4  C   UNL     1       9.916  -0.968  23.357  0.00  0.00    +0.224 C 
ATOM      5  O   UNL     1      10.470  -1.944  22.855  0.00  0.00    -0.275 OA
BRANCH   4   6
ATOM      6  C   UNL     1      10.392   0.438  23.122  0.00  0.00    +0.216 C 
BRANCH   6   7
ATOM      7  C   UNL     1       9.696   1.229  22.048  0.00  0.00    +0.314 C 
ATOM      8  O   UNL     1       8.608   0.879  21.602  0.00  0.00    -0.250 OA
BRANCH   7   9
ATOM      9  O   UNL     1      10.306   2.338  21.591  0.00  0.00    -0.480 OA
ATOM     10  H   UNL     1      10.242   2.463  20.613  0.00  0.00    +0.295 HD
ENDBRANCH   7   9
ENDBRANCH   6   7
ENDBRANCH   4   6
ENDBRANCH   1   2
BRANCH   1  11
ATOM     11  C   UNL     1       8.319  -2.670  26.004  0.00  0.00    +0.088 C 
BRANCH  11  12
ATOM     12  S   UNL     1       8.761  -4.401  26.390  0.00  0.00    -0.176 S 
ATOM     13  H   UNL     1      10.079  -4.202  26.550  0.00  0.00    +0.102 HD
ENDBRANCH  11  12
ENDBRANCH   1  11
BRANCH   1  14
ATOM     14  C   UNL     1       6.752  -2.468  23.982  0.00  0.00    +0.058 C 
BRANCH  14  15
ATOM     15  C   UNL     1       6.445  -3.761  23.261  0.00  0.00    -0.046 A 
ATOM     16  C   UNL     1       7.423  -4.363  22.457  0.00  0.00    +0.004 A 
ATOM     17  C   UNL     1       7.155  -5.559  21.791  0.00  0.00    +0.000 A 
ATOM     18  C   UNL     1       5.905  -6.161  21.918  0.00  0.00    +0.000 A 
ATOM     19  C   UNL     1       4.922  -5.567  22.707  0.00  0.00    +0.000 A 
ATOM     20  C   UNL     1       5.188  -4.371  23.374  0.00  0.00    +0.004 A 
ENDBRANCH  14  15
ENDBRANCH   1  14
TORSDOF 8
ENDMDL
MODEL 7
REMARK VINA RESULT:      -5.2      3.279      4.178
REMARK  Name = 
REMARK  8 active torsions:
REMARK  status: ('A' for Active; 'I' for Inactive)
REMARK    1  A    between atoms: C_2  and  C_3
REMARK    2  A    between atoms: C_2  and  C_5
REMARK    3  A    between atoms: C_2  and  N_12
REMARK    4  A    between atoms: C_3  and  S_4
REMARK    5  A    between atoms: C_5  and  C_6
REMARK    6  A    between atoms: C_13  and  C_15
REMARK    7  A    between atoms: C_15  and  C_16
REMARK    8  A    between atoms: C_16  and  O_17
REMARK                            x       y       z     vdW  Elec       q    Type
REMARK                         _______ _______ _______ _____ _____    ______ ____
ROOT
ATOM      1  C   UNL     1       9.002  -2.474  24.308  0.00  0.00    +0.087 C 
ENDROOT
BRANCH   1   2
ATOM      2  N   UNL     1       7.743  -1.725  24.220  0.00  0.00    -0.311 N 
ATOM      3  H   UNL     1       7.255  -1.717  23.331  0.00  0.00    +0.149 HD
ATOM      4  C   UNL     1       7.114  -1.235  25.342  0.00  0.00    +0.224 C 
ATOM      5  O   UNL     1       7.558  -1.381  26.479  0.00  0.00    -0.275 OA
BRANCH   4   6
ATOM      6  C   UNL     1       5.839  -0.489  25.064  0.00  0.00    +0.216 C 
BRANCH   6   7
ATOM      7  C   UNL     1       5.959   0.847  24.383  0.00  0.00    +0.314 C 
ATOM      8  O   UNL     1       7.037   1.253  23.961  0.00  0.00    -0.250 OA
BRANCH   7   9
ATOM      9  O   UNL     1       4.842   1.585  24.249  0.00  0.00    -0.480 OA
ATOM     10  H   UNL     1       4.127   1.359  24.893  0.00  0.00    +0.295 HD
ENDBRANCH   7   9
ENDBRANCH   6   7
ENDBRANCH   4   6
ENDBRANCH   1   2
BRANCH   1  11
ATOM     11  C   UNL     1       8.759  -3.997  24.237  0.00  0.00    +0.088 C 
BRANCH  11  12
ATOM     12  S   UNL     1       9.322  -4.920  25.711  0.00  0.00    -0.176 S 
ATOM     13  H   UNL     1      10.141  -5.768  25.071  0.00  0.00    +0.102 HD
ENDBRANCH  11  12
ENDBRANCH   1  11
BRANCH   1  14
ATOM     14  C   UNL     1      10.029  -1.994  23.258  0.00  0.00    +0.058 C 
BRANCH  14  15
ATOM     15  C   UNL     1      10.121  -0.490  23.128  0.00  0.00    -0.046 A 
ATOM     16  C   UNL     1      10.555   0.281  24.216  0.00  0.00    +0.004 A 
ATOM     17  C   UNL     1      10.650   1.668  24.108  0.00  0.00    +0.000 A 
ATOM     18  C   UNL     1      10.308   2.298  22.913  0.00  0.00    +0.000 A 
ATOM     19  C   UNL     1       9.867   1.543  21.828  0.00  0.00    +0.000 A 
ATOM     20  C   UNL     1       9.771   0.155  21.935  0.00  0.00    +0.004 A 
ENDBRANCH  14  15
ENDBRANCH   1  14
TORSDOF 8
ENDMDL
MODEL 8
REMARK VINA RESULT:      -5.1      3.228      6.354
REMARK  Name = 
REMARK  8 active torsions:
REMARK  status: ('A' for Active; 'I' for Inactive)
REMARK    1  A    between atoms: C_2  and  C_3
REMARK    2  A    between atoms: C_2  and  C_5
REMARK    3  A    between atoms: C_2  and  N_12
REMARK    4  A    between atoms: C_3  and  S_4
REMARK    5  A    between atoms: C_5  and  C_6
REMARK    6  A    between atoms: C_13  and  C_15
REMARK    7  A    between atoms: C_15  and  C_16
REMARK    8  A    between atoms: C_16  and  O_17
REMARK                            x       y       z     vdW  Elec       q    Type
REMARK                         _______ _______ _______ _____ _____    ______ ____
ROOT
ATOM      1  C   UNL     1       7.308  -3.545  22.870  0.00  0.00    +0.087 C 
ENDROOT
BRANCH   1   2
ATOM      2  N   UNL     1       8.387  -2.720  22.316  0.00  0.00    -0.311 N 
ATOM      3  H   UNL     1       9.098  -3.180  21.757  0.00  0.00    +0.149 HD
ATOM      4  C   UNL     1       8.336  -1.346  22.349  0.00  0.00    +0.224 C 
ATOM      5  O   UNL     1       7.401  -0.719  22.843  0.00  0.00    -0.275 OA
BRANCH   4   6
ATOM      6  C   UNL     1       9.530  -0.665  21.741  0.00  0.00    +0.216 C 
BRANCH   6   7
ATOM      7  C   UNL     1       9.518   0.839  21.701  0.00  0.00    +0.314 C 
ATOM      8  O   UNL     1      10.295   1.501  22.382  0.00  0.00    -0.250 OA
BRANCH   7   9
ATOM      9  O   UNL     1       8.625   1.438  20.892  0.00  0.00    -0.480 OA
ATOM     10  H   UNL     1       9.028   2.034  20.214  0.00  0.00    +0.295 HD
ENDBRANCH   7   9
ENDBRANCH   6   7
ENDBRANCH   4   6
ENDBRANCH   1   2
BRANCH   1  11
ATOM     11  C   UNL     1       6.226  -3.848  21.810  0.00  0.00    +0.088 C 
BRANCH  11  12
ATOM     12  S   UNL     1       6.288  -5.544  21.133  0.00  0.00    -0.176 S 
ATOM     13  H   UNL     1       6.787  -5.222  19.929  0.00  0.00    +0.102 HD
ENDBRANCH  11  12
ENDBRANCH   1  11
BRANCH   1  14
ATOM     14  C   UNL     1       7.851  -4.828  23.538  0.00  0.00    +0.058 C 
BRANCH  14  15
ATOM     15  C   UNL     1       7.235  -5.131  24.885  0.00  0.00    -0.046 A 
ATOM     16  C   UNL     1       5.883  -5.495  24.971  0.00  0.00    +0.004 A 
ATOM     17  C   UNL     1       5.303  -5.782  26.206  0.00  0.00    +0.000 A 
ATOM     18  C   UNL     1       6.068  -5.705  27.368  0.00  0.00    +0.000 A 
ATOM     19  C   UNL     1       7.410  -5.336  27.296  0.00  0.00    +0.000 A 
ATOM     20  C   UNL     1       7.991  -5.047  26.061  0.00  0.00    +0.004 A 
ENDBRANCH  14  15
ENDBRANCH   1  14
TORSDOF 8
ENDMDL
MODEL 9
REMARK VINA RESULT:      -5.0      3.366      3.863
REMARK  Name = 
REMARK  8 active torsions:
REMARK  status: ('A' for Active; 'I' for Inactive)
REMARK    1  A    between atoms: C_2  and  C_3
REMARK    2  A    between atoms: C_2  and  C_5
REMARK    3  A    between atoms: C_2  and  N_12
REMARK    4  A    between atoms: C_3  and  S_4
REMARK    5  A    between atoms: C_5  and  C_6
REMARK    6  A    between atoms: C_13  and  C_15
REMARK    7  A    between atoms: C_15  and  C_16
REMARK    8  A    between atoms: C_16  and  O_17
REMARK                            x       y       z     vdW  Elec       q    Type
REMARK                         _______ _______ _______ _____ _____    ______ ____
ROOT
ATOM      1  C   UNL     1       8.906  -1.787  24.941  0.00  0.00    +0.087 C 
ENDROOT
BRANCH   1   2
ATOM      2  N   UNL     1       8.545  -2.998  25.687  0.00  0.00    -0.311 N 
ATOM      3  H   UNL     1       7.724  -2.963  26.283  0.00  0.00    +0.149 HD
ATOM      4  C   UNL     1       9.146  -4.210  25.434  0.00  0.00    +0.224 C 
ATOM      5  O   UNL     1      10.020  -4.361  24.582  0.00  0.00    -0.275 OA
BRANCH   4   6
ATOM      6  C   UNL     1       8.657  -5.339  26.298  0.00  0.00    +0.216 C 
BRANCH   6   7
ATOM      7  C   UNL     1       7.246  -5.250  26.811  0.00  0.00    +0.314 C 
ATOM      8  O   UNL     1       6.920  -4.400  27.633  0.00  0.00    -0.250 OA
BRANCH   7   9
ATOM      9  O   UNL     1       6.351  -6.135  26.339  0.00  0.00    -0.480 OA
ATOM     10  H   UNL     1       6.442  -6.330  25.373  0.00  0.00    +0.295 HD
ENDBRANCH   7   9
ENDBRANCH   6   7
ENDBRANCH   4   6
ENDBRANCH   1   2
BRANCH   1  11
ATOM     11  C   UNL     1       8.001  -1.595  23.705  0.00  0.00    +0.088 C 
BRANCH  11  12
ATOM     12  S   UNL     1       8.875  -1.714  22.104  0.00  0.00    -0.176 S 
ATOM     13  H   UNL     1       9.034  -0.396  21.906  0.00  0.00    +0.102 HD
ENDBRANCH  11  12
ENDBRANCH   1  11
BRANCH   1  14
ATOM     14  C   UNL     1       8.931  -0.539  25.850  0.00  0.00    +0.058 C 
BRANCH  14  15
ATOM     15  C   UNL     1       9.253   0.747  25.123  0.00  0.00    -0.046 A 
ATOM     16  C   UNL     1      10.480   0.887  24.459  0.00  0.00    +0.004 A 
ATOM     17  C   UNL     1      10.788   2.066  23.779  0.00  0.00    +0.000 A 
ATOM     18  C   UNL     1       9.874   3.117  23.761  0.00  0.00    +0.000 A 
ATOM     19  C   UNL     1       8.655   2.993  24.424  0.00  0.00    +0.000 A 
ATOM     20  C   UNL     1       8.346   1.815  25.106  0.00  0.00    +0.004 A 
ENDBRANCH  14  15
ENDBRANCH   1  14
TORSDOF 8
ENDMDL
