MODEL 1
REMARK VINA RESULT:      -6.3      0.000      0.000
REMARK  Name = 
REMARK  5 active torsions:
REMARK  status: ('A' for Active; 'I' for Inactive)
REMARK    1  A    between atoms: C_7  and  C_11
REMARK    2  A    between atoms: C_14  and  C_16
REMARK    3  A    between atoms: C_16  and  O_17
REMARK    4  A    between atoms: C_18  and  O_20
REMARK    5  A    between atoms: C_21  and  O_23
REMARK                            x       y       z     vdW  Elec       q    Type
REMARK                         _______ _______ _______ _____ _____    ______ ____
ROOT
ATOM      1  N   UNL     1      10.234   2.206  21.802  0.00  0.00    -0.341 N 
ATOM      2  H   UNL     1      10.967   1.660  21.367  0.00  0.00    +0.144 HD
ATOM      3  H   UNL     1       9.980   3.089  21.378  0.00  0.00    +0.144 HD
ATOM      4  C   UNL     1       9.122   1.457  22.156  0.00  0.00    +0.147 A 
ATOM      5  C   UNL     1       9.111   0.050  22.354  0.00  0.00    +0.150 A 
ATOM      6  C   UNL     1       7.890  -0.593  22.745  0.00  0.00    +0.119 A 
ATOM      7  C   UNL     1       8.145  -1.929  22.885  0.00  0.00    +0.093 A 
ATOM      8  N   UNL     1       9.477  -2.040  22.581  0.00  0.00    -0.276 N 
ATOM      9  H   UNL     1      10.029  -2.892  22.579  0.00  0.00    +0.189 HD
ATOM     10  N   UNL     1       6.713   0.026  22.951  0.00  0.00    -0.232 NA
ATOM     11  C   UNL     1       6.832   1.356  22.699  0.00  0.00    +0.224 A 
ATOM     12  N   UNL     1      10.082  -0.883  22.237  0.00  0.00    -0.168 NA
ATOM     13  N   UNL     1       7.927   2.085  22.322  0.00  0.00    -0.219 NA
ENDROOT
BRANCH   7  14
ATOM     14  C   UNL     1       7.327  -3.089  23.321  0.00  0.00    +0.200 C 
ATOM     15  C   UNL     1       7.988  -4.471  23.251  0.00  0.00    +0.180 C 
ATOM     16  C   UNL     1       8.576  -4.698  24.640  0.00  0.00    +0.177 C 
ATOM     17  C   UNL     1       8.053  -3.526  25.473  0.00  0.00    +0.175 C 
ATOM     18  O   UNL     1       7.006  -2.891  24.718  0.00  0.00    -0.360 OA
BRANCH  15  19
ATOM     19  O   UNL     1       6.978  -5.473  23.001  0.00  0.00    -0.386 OA
ATOM     20  H   UNL     1       6.205  -5.034  22.605  0.00  0.00    +0.210 HD
ENDBRANCH  15  19
BRANCH  16  21
ATOM     21  O   UNL     1      10.003  -4.685  24.621  0.00  0.00    -0.386 OA
ATOM     22  H   UNL     1      10.292  -4.888  25.530  0.00  0.00    +0.210 HD
ENDBRANCH  16  21
BRANCH  17  23
ATOM     23  C   UNL     1       7.556  -3.974  26.845  0.00  0.00    +0.190 C 
BRANCH  23  24
ATOM     24  O   UNL     1       8.255  -5.142  27.268  0.00  0.00    -0.392 OA
ATOM     25  H   UNL     1       8.959  -4.856  27.878  0.00  0.00    +0.210 HD
ENDBRANCH  23  24
ENDBRANCH  17  23
ENDBRANCH   7  14
TORSDOF 5
ENDMDL
MODEL 2
REMARK VINA RESULT:      -6.2      3.289      5.776
REMARK  Name = 
REMARK  5 active torsions:
REMARK  status: ('A' for Active; 'I' for Inactive)
REMARK    1  A    between atoms: C_7  and  C_11
REMARK    2  A    between atoms: C_14  and  C_16
REMARK    3  A    between atoms: C_16  and  O_17
REMARK    4  A    between atoms: C_18  and  O_20
REMARK    5  A    between atoms: C_21  and  O_23
REMARK                            x       y       z     vdW  Elec       q    Type
REMARK                         _______ _______ _______ _____ _____    ______ ____
ROOT
ATOM      1  N   UNL     1       9.714  -6.017  25.604  0.00  0.00    -0.341 N 
ATOM      2  H   UNL     1      10.667  -5.672  25.594  0.00  0.00    +0.144 HD
ATOM      3  H   UNL     1       9.423  -6.595  26.381  0.00  0.00    +0.144 HD
ATOM      4  C   UNL     1       8.773  -5.048  25.290  0.00  0.00    +0.147 A 
ATOM      5  C   UNL     1       9.040  -3.845  24.582  0.00  0.00    +0.150 A 
ATOM      6  C   UNL     1       7.961  -2.943  24.303  0.00  0.00    +0.119 A 
ATOM      7  C   UNL     1       8.469  -1.882  23.606  0.00  0.00    +0.093 A 
ATOM      8  N   UNL     1       9.803  -2.177  23.492  0.00  0.00    -0.276 N 
ATOM      9  H   UNL     1      10.511  -1.615  23.028  0.00  0.00    +0.189 HD
ATOM     10  N   UNL     1       6.676  -3.128  24.658  0.00  0.00    -0.232 NA
ATOM     11  C   UNL     1       6.545  -4.286  25.357  0.00  0.00    +0.224 A 
ATOM     12  N   UNL     1      10.184  -3.330  24.082  0.00  0.00    -0.168 NA
ATOM     13  N   UNL     1       7.484  -5.224  25.687  0.00  0.00    -0.219 NA
ENDROOT
BRANCH   7  14
ATOM     14  C   UNL     1       7.864  -0.675  22.988  0.00  0.00    +0.200 C 
ATOM     15  C   UNL     1       7.113   0.282  23.921  0.00  0.00    +0.180 C 
ATOM     16  C   UNL     1       8.146   1.328  24.327  0.00  0.00    +0.177 C 
ATOM     17  C   UNL     1       9.365   1.021  23.454  0.00  0.00    +0.175 C 
ATOM     18  O   UNL     1       8.942   0.109  22.425  0.00  0.00    -0.360 OA
BRANCH  15  19
ATOM     19  O   UNL     1       6.051   0.931  23.188  0.00  0.00    -0.386 OA
ATOM     20  H   UNL     1       5.641   0.274  22.599  0.00  0.00    +0.210 HD
ENDBRANCH  15  19
BRANCH  16  21
ATOM     21  O   UNL     1       8.495   1.224  25.707  0.00  0.00    -0.386 OA
ATOM     22  H   UNL     1       7.904   1.834  26.186  0.00  0.00    +0.210 HD
ENDBRANCH  16  21
BRANCH  17  23
ATOM     23  C   UNL     1       9.976   2.287  22.859  0.00  0.00    +0.190 C 
BRANCH  23  24
ATOM     24  O   UNL     1       9.987   2.211  21.436  0.00  0.00    -0.392 OA
ATOM     25  H   UNL     1      10.131   1.279  21.194  0.00  0.00    +0.210 HD
ENDBRANCH  23  24
ENDBRANCH  17  23
ENDBRANCH   7  14
TORSDOF 5
ENDMDL
MODEL 3
REMARK VINA RESULT:      -6.1      2.178      2.986
REMARK  Name = 
REMARK  5 active torsions:
REMARK  status: ('A' for Active; 'I' for Inactive)
REMARK    1  A    between atoms: C_7  and  C_11
REMARK    2  A    between atoms: C_14  and  C_16
REMARK    3  A    between atoms: C_16  and  O_17
REMARK    4  A    between atoms: C_18  and  O_20
REMARK    5  A    between atoms: C_21  and  O_23
REMARK                            x       y       z     vdW  Elec       q    Type
REMARK                         _______ _______ _______ _____ _____    ______ ____
ROOT
ATOM      1  N   UNL     1       9.148   2.211  24.926  0.00  0.00    -0.341 N 
ATOM      2  H   UNL     1       9.151   2.148  25.937  0.00  0.00    +0.144 HD
ATOM      3  H   UNL     1       9.667   2.962  24.493  0.00  0.00    +0.144 HD
ATOM      4  C   UNL     1       9.366   0.994  24.297  0.00  0.00    +0.147 A 
ATOM      5  C   UNL     1       9.159  -0.282  24.888  0.00  0.00    +0.150 A 
ATOM      6  C   UNL     1       9.400  -1.462  24.108  0.00  0.00    +0.119 A 
ATOM      7  C   UNL     1       9.116  -2.548  24.889  0.00  0.00    +0.093 A 
ATOM      8  N   UNL     1       8.722  -1.996  26.081  0.00  0.00    -0.276 N 
ATOM      9  H   UNL     1       8.429  -2.499  26.914  0.00  0.00    +0.189 HD
ATOM     10  N   UNL     1       9.818  -1.480  22.829  0.00  0.00    -0.232 NA
ATOM     11  C   UNL     1      10.016  -0.213  22.381  0.00  0.00    +0.224 A 
ATOM     12  N   UNL     1       8.757  -0.647  26.125  0.00  0.00    -0.168 NA
ATOM     13  N   UNL     1       9.826   0.984  23.017  0.00  0.00    -0.219 NA
ENDROOT
BRANCH   7  14
ATOM     14  C   UNL     1       9.106  -4.012  24.646  0.00  0.00    +0.200 C 
ATOM     15  C   UNL     1       9.190  -4.922  25.877  0.00  0.00    +0.180 C 
ATOM     16  C   UNL     1       7.741  -5.236  26.235  0.00  0.00    +0.177 C 
ATOM     17  C   UNL     1       6.926  -4.650  25.080  0.00  0.00    +0.175 C 
ATOM     18  O   UNL     1       7.843  -4.337  24.017  0.00  0.00    -0.360 OA
BRANCH  15  19
ATOM     19  O   UNL     1       9.861  -6.151  25.520  0.00  0.00    -0.386 OA
ATOM     20  H   UNL     1      10.812  -5.966  25.440  0.00  0.00    +0.210 HD
ENDBRANCH  15  19
BRANCH  16  21
ATOM     21  O   UNL     1       7.353  -4.625  27.466  0.00  0.00    -0.386 OA
ATOM     22  H   UNL     1       7.062  -3.721  27.244  0.00  0.00    +0.210 HD
ENDBRANCH  16  21
BRANCH  17  23
ATOM     23  C   UNL     1       5.833  -5.605  24.608  0.00  0.00    +0.190 C 
BRANCH  23  24
ATOM     24  O   UNL     1       5.355  -6.390  25.698  0.00  0.00    -0.392 OA
ATOM     25  H   UNL     1       6.099  -6.519  26.313  0.00  0.00    +0.210 HD
ENDBRANCH  23  24
ENDBRANCH  17  23
ENDBRANCH   7  14
TORSDOF 5
ENDMDL
MODEL 4
REMARK VINA RESULT:      -6.1      1.528      2.772
REMARK  Name = 
REMARK  5 active torsions:
REMARK  status: ('A' for Active; 'I' for Inactive)
REMARK    1  A    between atoms: C_7  and  C_11
REMARK    2  A    between atoms: C_14  and  C_16
REMARK    3  A    between atoms: C_16  and  O_17
REMARK    4  A    between atoms: C_18  and  O_20
REMARK    5  A    between atoms: C_21  and  O_23
REMARK                            x       y       z     vdW  Elec       q    Type
REMARK                         _______ _______ _______ _____ _____    ______ ____
ROOT
ATOM      1  N   UNL     1      10.131   2.077  21.542  0.00  0.00    -0.341 N 
ATOM      2  H   UNL     1      10.899   1.517  21.193  0.00  0.00    +0.144 HD
ATOM      3  H   UNL     1       9.811   2.853  20.977  0.00  0.00    +0.144 HD
ATOM      4  C   UNL     1       9.078   1.324  22.040  0.00  0.00    +0.147 A 
ATOM      5  C   UNL     1       9.172  -0.026  22.477  0.00  0.00    +0.150 A 
ATOM      6  C   UNL     1       8.004  -0.675  22.997  0.00  0.00    +0.119 A 
ATOM      7  C   UNL     1       8.356  -1.946  23.360  0.00  0.00    +0.093 A 
ATOM      8  N   UNL     1       9.691  -2.013  23.054  0.00  0.00    -0.276 N 
ATOM      9  H   UNL     1      10.304  -2.812  23.188  0.00  0.00    +0.189 HD
ATOM     10  N   UNL     1       6.786  -0.115  23.115  0.00  0.00    -0.232 NA
ATOM     11  C   UNL     1       6.805   1.156  22.635  0.00  0.00    +0.224 A 
ATOM     12  N   UNL     1      10.207  -0.893  22.505  0.00  0.00    -0.168 NA
ATOM     13  N   UNL     1       7.842   1.885  22.119  0.00  0.00    -0.219 NA
ENDROOT
BRANCH   7  14
ATOM     14  C   UNL     1       7.628  -3.068  24.004  0.00  0.00    +0.200 C 
ATOM     15  C   UNL     1       6.103  -3.093  23.840  0.00  0.00    +0.180 C 
ATOM     16  C   UNL     1       5.853  -3.976  22.621  0.00  0.00    +0.177 C 
ATOM     17  C   UNL     1       7.227  -4.556  22.280  0.00  0.00    +0.175 C 
ATOM     18  O   UNL     1       8.097  -4.294  23.395  0.00  0.00    -0.360 OA
BRANCH  15  19
ATOM     19  O   UNL     1       5.507  -3.716  24.999  0.00  0.00    -0.386 OA
ATOM     20  H   UNL     1       5.602  -3.109  25.753  0.00  0.00    +0.210 HD
ENDBRANCH  15  19
BRANCH  16  21
ATOM     21  O   UNL     1       5.352  -3.225  21.515  0.00  0.00    -0.386 OA
ATOM     22  H   UNL     1       4.387  -3.365  21.502  0.00  0.00    +0.210 HD
ENDBRANCH  16  21
BRANCH  17  23
ATOM     23  C   UNL     1       7.157  -6.048  21.967  0.00  0.00    +0.190 C 
BRANCH  23  24
ATOM     24  O   UNL     1       5.816  -6.433  21.678  0.00  0.00    -0.392 OA
ATOM     25  H   UNL     1       5.794  -7.405  21.630  0.00  0.00    +0.210 HD
ENDBRANCH  23  24
ENDBRANCH  17  23
ENDBRANCH   7  14
TORSDOF 5
ENDMDL
MODEL 5
REMARK VINA RESULT:      -6.0      0.825      1.966
REMARK  Name = 
REMARK  5 active torsions:
REMARK  status: ('A' for Active; 'I' for Inactive)
REMARK    1  A    between atoms: C_7  and  C_11
REMARK    2  A    between atoms: C_14  and  C_16
REMARK    3  A    between atoms: C_16  and  O_17
REMARK    4  A    between atoms: C_18  and  O_20
REMARK    5  A    between atoms: C_21  and  O_23
REMARK                            x       y       z     vdW  Elec       q    Type
REMARK                         _______ _______ _______ _____ _____    ______ ____
ROOT
ATOM      1  N   UNL     1       8.812   2.288  22.065  0.00  0.00    -0.341 N 
ATOM      2  H   UNL     1       8.089   2.702  22.641  0.00  0.00    +0.144 HD
ATOM      3  H   UNL     1       9.719   2.735  22.041  0.00  0.00    +0.144 HD
ATOM      4  C   UNL     1       8.911   0.912  22.206  0.00  0.00    +0.147 A 
ATOM      5  C   UNL     1       7.882   0.063  22.699  0.00  0.00    +0.150 A 
ATOM      6  C   UNL     1       8.114  -1.350  22.765  0.00  0.00    +0.119 A 
ATOM      7  C   UNL     1       6.980  -1.939  23.252  0.00  0.00    +0.093 A 
ATOM      8  N   UNL     1       6.127  -0.885  23.455  0.00  0.00    -0.276 N 
ATOM      9  H   UNL     1       5.177  -0.933  23.812  0.00  0.00    +0.189 HD
ATOM     10  N   UNL     1       9.247  -1.975  22.395  0.00  0.00    -0.232 NA
ATOM     11  C   UNL     1      10.168  -1.067  21.977  0.00  0.00    +0.224 A 
ATOM     12  N   UNL     1       6.639   0.328  23.157  0.00  0.00    -0.168 NA
ATOM     13  N   UNL     1      10.074   0.293  21.867  0.00  0.00    -0.219 NA
ENDROOT
BRANCH   7  14
ATOM     14  C   UNL     1       6.576  -3.348  23.490  0.00  0.00    +0.200 C 
ATOM     15  C   UNL     1       7.610  -4.432  23.162  0.00  0.00    +0.180 C 
ATOM     16  C   UNL     1       8.337  -4.694  24.478  0.00  0.00    +0.177 C 
ATOM     17  C   UNL     1       7.551  -3.890  25.516  0.00  0.00    +0.175 C 
ATOM     18  O   UNL     1       6.311  -3.489  24.906  0.00  0.00    -0.360 OA
BRANCH  15  19
ATOM     19  O   UNL     1       6.926  -5.639  22.758  0.00  0.00    -0.386 OA
ATOM     20  H   UNL     1       7.412  -6.400  23.120  0.00  0.00    +0.210 HD
ENDBRANCH  15  19
BRANCH  16  21
ATOM     21  O   UNL     1       9.691  -4.244  24.435  0.00  0.00    -0.386 OA
ATOM     22  H   UNL     1      10.226  -5.010  24.157  0.00  0.00    +0.210 HD
ENDBRANCH  16  21
BRANCH  17  23
ATOM     23  C   UNL     1       7.309  -4.686  26.795  0.00  0.00    +0.190 C 
BRANCH  23  24
ATOM     24  O   UNL     1       8.343  -5.649  26.983  0.00  0.00    -0.392 OA
ATOM     25  H   UNL     1       8.129  -6.420  26.427  0.00  0.00    +0.210 HD
ENDBRANCH  23  24
ENDBRANCH  17  23
ENDBRANCH   7  14
TORSDOF 5
ENDMDL
MODEL 6
REMARK VINA RESULT:      -6.0      3.368      5.827
REMARK  Name = 
REMARK  5 active torsions:
REMARK  status: ('A' for Active; 'I' for Inactive)
REMARK    1  A    between atoms: C_7  and  C_11
REMARK    2  A    between atoms: C_14  and  C_16
REMARK    3  A    between atoms: C_16  and  O_17
REMARK    4  A    between atoms: C_18  and  O_20
REMARK    5  A    between atoms: C_21  and  O_23
REMARK                            x       y       z     vdW  Elec       q    Type
REMARK                         _______ _______ _______ _____ _____    ______ ____
ROOT
ATOM      1  N   UNL     1       5.459  -6.368  25.892  0.00  0.00    -0.341 N 
ATOM      2  H   UNL     1       5.021  -6.557  24.998  0.00  0.00    +0.144 HD
ATOM      3  H   UNL     1       5.566  -7.134  26.543  0.00  0.00    +0.144 HD
ATOM      4  C   UNL     1       6.612  -5.602  25.790  0.00  0.00    +0.147 A 
ATOM      5  C   UNL     1       6.944  -4.763  24.693  0.00  0.00    +0.150 A 
ATOM      6  C   UNL     1       8.161  -4.005  24.735  0.00  0.00    +0.119 A 
ATOM      7  C   UNL     1       8.240  -3.274  23.582  0.00  0.00    +0.093 A 
ATOM      8  N   UNL     1       7.096  -3.609  22.905  0.00  0.00    -0.276 N 
ATOM      9  H   UNL     1       6.804  -3.258  21.997  0.00  0.00    +0.189 HD
ATOM     10  N   UNL     1       9.050  -4.010  25.745  0.00  0.00    -0.232 NA
ATOM     11  C   UNL     1       8.650  -4.871  26.717  0.00  0.00    +0.224 A 
ATOM     12  N   UNL     1       6.309  -4.512  23.527  0.00  0.00    -0.168 NA
ATOM     13  N   UNL     1       7.525  -5.645  26.798  0.00  0.00    -0.219 NA
ENDROOT
BRANCH   7  14
ATOM     14  C   UNL     1       9.205  -2.269  23.068  0.00  0.00    +0.200 C 
ATOM     15  C   UNL     1       8.708  -1.329  21.963  0.00  0.00    +0.180 C 
ATOM     16  C   UNL     1       8.209  -0.088  22.697  0.00  0.00    +0.177 C 
ATOM     17  C   UNL     1       8.626  -0.311  24.153  0.00  0.00    +0.175 C 
ATOM     18  O   UNL     1       9.559  -1.405  24.174  0.00  0.00    -0.360 OA
BRANCH  15  19
ATOM     19  O   UNL     1       9.818  -0.956  21.116  0.00  0.00    -0.386 OA
ATOM     20  H   UNL     1      10.509  -0.563  21.676  0.00  0.00    +0.210 HD
ENDBRANCH  15  19
BRANCH  16  21
ATOM     21  O   UNL     1       6.790   0.046  22.611  0.00  0.00    -0.386 OA
ATOM     22  H   UNL     1       6.489  -0.626  21.971  0.00  0.00    +0.210 HD
ENDBRANCH  16  21
BRANCH  17  23
ATOM     23  C   UNL     1       9.228   0.946  24.775  0.00  0.00    +0.190 C 
BRANCH  23  24
ATOM     24  O   UNL     1      10.551   0.687  25.235  0.00  0.00    -0.392 OA
ATOM     25  H   UNL     1      11.143   0.729  24.462  0.00  0.00    +0.210 HD
ENDBRANCH  23  24
ENDBRANCH  17  23
ENDBRANCH   7  14
TORSDOF 5
ENDMDL
MODEL 7
REMARK VINA RESULT:      -5.9      3.947      6.470
REMARK  Name = 
REMARK  5 active torsions:
REMARK  status: ('A' for Active; 'I' for Inactive)
REMARK    1  A    between atoms: C_7  and  C_11
REMARK    2  A    between atoms: C_14  and  C_16
REMARK    3  A    between atoms: C_16  and  O_17
REMARK    4  A    between atoms: C_18  and  O_20
REMARK    5  A    between atoms: C_21  and  O_23
REMARK                            x       y       z     vdW  Elec       q    Type
REMARK                         _______ _______ _______ _____ _____    ______ ____
ROOT
ATOM      1  N   UNL     1       8.872  -3.823  25.814  0.00  0.00    -0.341 N 
ATOM      2  H   UNL     1       8.144  -3.589  26.479  0.00  0.00    +0.144 HD
ATOM      3  H   UNL     1       8.792  -4.692  25.305  0.00  0.00    +0.144 HD
ATOM      4  C   UNL     1       9.229  -2.764  24.991  0.00  0.00    +0.147 A 
ATOM      5  C   UNL     1       9.003  -1.391  25.279  0.00  0.00    +0.150 A 
ATOM      6  C   UNL     1       9.450  -0.398  24.346  0.00  0.00    +0.119 A 
ATOM      7  C   UNL     1       9.132   0.831  24.855  0.00  0.00    +0.093 A 
ATOM      8  N   UNL     1       8.521   0.540  26.047  0.00  0.00    -0.276 N 
ATOM      9  H   UNL     1       8.145   1.208  26.714  0.00  0.00    +0.189 HD
ATOM     10  N   UNL     1      10.085  -0.647  23.185  0.00  0.00    -0.232 NA
ATOM     11  C   UNL     1      10.214  -1.986  22.998  0.00  0.00    +0.224 A 
ATOM     12  N   UNL     1       8.405  -0.776  26.323  0.00  0.00    -0.168 NA
ATOM     13  N   UNL     1       9.834  -3.026  23.802  0.00  0.00    -0.219 NA
ENDROOT
BRANCH   7  14
ATOM     14  C   UNL     1       9.380   2.224  24.404  0.00  0.00    +0.200 C 
ATOM     15  C   UNL     1      10.154   2.402  23.092  0.00  0.00    +0.180 C 
ATOM     16  C   UNL     1       9.080   2.522  22.015  0.00  0.00    +0.177 C 
ATOM     17  C   UNL     1       7.765   2.599  22.792  0.00  0.00    +0.175 C 
ATOM     18  O   UNL     1       8.090   2.838  24.173  0.00  0.00    -0.360 OA
BRANCH  15  19
ATOM     19  O   UNL     1      10.905   3.636  23.144  0.00  0.00    -0.386 OA
ATOM     20  H   UNL     1      11.832   3.436  22.925  0.00  0.00    +0.210 HD
ENDBRANCH  15  19
BRANCH  16  21
ATOM     21  O   UNL     1       9.069   1.389  21.147  0.00  0.00    -0.386 OA
ATOM     22  H   UNL     1       8.224   0.930  21.306  0.00  0.00    +0.210 HD
ENDBRANCH  16  21
BRANCH  17  23
ATOM     23  C   UNL     1       6.838   3.681  22.244  0.00  0.00    +0.190 C 
BRANCH  23  24
ATOM     24  O   UNL     1       7.582   4.846  21.902  0.00  0.00    -0.392 OA
ATOM     25  H   UNL     1       6.992   5.613  22.014  0.00  0.00    +0.210 HD
ENDBRANCH  23  24
ENDBRANCH  17  23
ENDBRANCH   7  14
TORSDOF 5
ENDMDL
MODEL 8
REMARK VINA RESULT:      -5.9      3.388      6.026
REMARK  Name = 
REMARK  5 active torsions:
REMARK  status: ('A' for Active; 'I' for Inactive)
REMARK    1  A    between atoms: C_7  and  C_11
REMARK    2  A    between atoms: C_14  and  C_16
REMARK    3  A    between atoms: C_16  and  O_17
REMARK    4  A    between atoms: C_18  and  O_20
REMARK    5  A    between atoms: C_21  and  O_23
REMARK                            x       y       z     vdW  Elec       q    Type
REMARK                         _______ _______ _______ _____ _____    ______ ____
ROOT
ATOM      1  N   UNL     1       5.434  -6.079  24.857  0.00  0.00    -0.341 N 
ATOM      2  H   UNL     1       5.041  -5.891  23.942  0.00  0.00    +0.144 HD
ATOM      3  H   UNL     1       5.646  -7.038  25.098  0.00  0.00    +0.144 HD
ATOM      4  C   UNL     1       6.460  -5.213  25.206  0.00  0.00    +0.147 A 
ATOM      5  C   UNL     1       6.677  -3.928  24.638  0.00  0.00    +0.150 A 
ATOM      6  C   UNL     1       7.765  -3.126  25.116  0.00  0.00    +0.119 A 
ATOM      7  C   UNL     1       7.750  -1.944  24.430  0.00  0.00    +0.093 A 
ATOM      8  N   UNL     1       6.678  -2.073  23.585  0.00  0.00    -0.276 N 
ATOM      9  H   UNL     1       6.349  -1.385  22.914  0.00  0.00    +0.189 HD
ATOM     10  N   UNL     1       8.632  -3.482  26.082  0.00  0.00    -0.232 NA
ATOM     11  C   UNL     1       8.353  -4.736  26.524  0.00  0.00    +0.224 A 
ATOM     12  N   UNL     1       6.027  -3.253  23.665  0.00  0.00    -0.168 NA
ATOM     13  N   UNL     1       7.356  -5.597  26.155  0.00  0.00    -0.219 NA
ENDROOT
BRANCH   7  14
ATOM     14  C   UNL     1       8.560  -0.702  24.506  0.00  0.00    +0.200 C 
ATOM     15  C   UNL     1      10.027  -0.801  24.071  0.00  0.00    +0.180 C 
ATOM     16  C   UNL     1      10.030  -0.401  22.599  0.00  0.00    +0.177 C 
ATOM     17  C   UNL     1       8.604   0.088  22.333  0.00  0.00    +0.175 C 
ATOM     18  O   UNL     1       7.960   0.261  23.607  0.00  0.00    -0.360 OA
BRANCH  15  19
ATOM     19  O   UNL     1      10.814   0.154  24.818  0.00  0.00    -0.386 OA
ATOM     20  H   UNL     1      11.694  -0.231  24.970  0.00  0.00    +0.210 HD
ENDBRANCH  15  19
BRANCH  16  21
ATOM     21  O   UNL     1      10.334  -1.505  21.748  0.00  0.00    -0.386 OA
ATOM     22  H   UNL     1      11.196  -1.307  21.338  0.00  0.00    +0.210 HD
ENDBRANCH  16  21
BRANCH  17  23
ATOM     23  C   UNL     1       8.584   1.379  21.519  0.00  0.00    +0.190 C 
BRANCH  23  24
ATOM     24  O   UNL     1       9.877   1.976  21.503  0.00  0.00    -0.392 OA
ATOM     25  H   UNL     1       9.767   2.917  21.732  0.00  0.00    +0.210 HD
ENDBRANCH  23  24
ENDBRANCH  17  23
ENDBRANCH   7  14
TORSDOF 5
ENDMDL
MODEL 9
REMARK VINA RESULT:      -5.8      3.480      5.665
REMARK  Name = 
REMARK  5 active torsions:
REMARK  status: ('A' for Active; 'I' for Inactive)
REMARK    1  A    between atoms: C_7  and  C_11
REMARK    2  A    between atoms: C_14  and  C_16
REMARK    3  A    between atoms: C_16  and  O_17
REMARK    4  A    between atoms: C_18  and  O_20
REMARK    5  A    between atoms: C_21  and  O_23
REMARK                            x       y       z     vdW  Elec       q    Type
REMARK                         _______ _______ _______ _____ _____    ______ ____
ROOT
ATOM      1  N   UNL     1       5.625  -6.573  26.455  0.00  0.00    -0.341 N 
ATOM      2  H   UNL     1       6.134  -6.446  27.321  0.00  0.00    +0.144 HD
ATOM      3  H   UNL     1       4.627  -6.728  26.506  0.00  0.00    +0.144 HD
ATOM      4  C   UNL     1       5.962  -5.652  25.474  0.00  0.00    +0.147 A 
ATOM      5  C   UNL     1       7.170  -4.904  25.434  0.00  0.00    +0.150 A 
ATOM      6  C   UNL     1       7.399  -4.003  24.342  0.00  0.00    +0.119 A 
ATOM      7  C   UNL     1       8.624  -3.423  24.525  0.00  0.00    +0.093 A 
ATOM      8  N   UNL     1       9.078  -3.983  25.691  0.00  0.00    -0.276 N 
ATOM      9  H   UNL     1       9.965  -3.795  26.149  0.00  0.00    +0.189 HD
ATOM     10  N   UNL     1       6.554  -3.788  23.317  0.00  0.00    -0.232 NA
ATOM     11  C   UNL     1       5.424  -4.524  23.477  0.00  0.00    +0.224 A 
ATOM     12  N   UNL     1       8.227  -4.855  26.274  0.00  0.00    -0.168 NA
ATOM     13  N   UNL     1       5.086  -5.411  24.463  0.00  0.00    -0.219 NA
ENDROOT
BRANCH   7  14
ATOM     14  C   UNL     1       9.439  -2.473  23.727  0.00  0.00    +0.200 C 
ATOM     15  C   UNL     1       8.794  -1.897  22.461  0.00  0.00    +0.180 C 
ATOM     16  C   UNL     1       8.166  -0.579  22.903  0.00  0.00    +0.177 C 
ATOM     17  C   UNL     1       8.652  -0.387  24.341  0.00  0.00    +0.175 C 
ATOM     18  O   UNL     1       9.716  -1.328  24.569  0.00  0.00    -0.360 OA
BRANCH  15  19
ATOM     19  O   UNL     1       9.822  -1.621  21.483  0.00  0.00    -0.386 OA
ATOM     20  H   UNL     1       9.598  -2.097  20.665  0.00  0.00    +0.210 HD
ENDBRANCH  15  19
BRANCH  16  21
ATOM     21  O   UNL     1       6.740  -0.634  22.872  0.00  0.00    -0.386 OA
ATOM     22  H   UNL     1       6.495  -0.939  21.979  0.00  0.00    +0.210 HD
ENDBRANCH  16  21
BRANCH  17  23
ATOM     23  C   UNL     1       9.110   1.045  24.604  0.00  0.00    +0.190 C 
BRANCH  23  24
ATOM     24  O   UNL     1      10.487   1.066  24.971  0.00  0.00    -0.392 OA
ATOM     25  H   UNL     1      10.561   0.658  25.852  0.00  0.00    +0.210 HD
ENDBRANCH  23  24
ENDBRANCH  17  23
ENDBRANCH   7  14
TORSDOF 5
ENDMDL
