MODEL 1
REMARK VINA RESULT:      -7.1      0.000      0.000
REMARK  Name = 
REMARK  26 active torsions:
REMARK  status: ('A' for Active; 'I' for Inactive)
REMARK    1  A    between atoms: C_1  and  C_2
REMARK    2  A    between atoms: N_4  and  C_5
REMARK    3  A    between atoms: C_7  and  O_9
REMARK    4  A    between atoms: O_9  and  P_10
REMARK    5  A    between atoms: P_10  and  O_11
REMARK    6  A    between atoms: P_10  and  O_13
REMARK    7  A    between atoms: O_13  and  P_14
REMARK    8  A    between atoms: P_14  and  O_15
REMARK    9  A    between atoms: P_14  and  O_17
REMARK   10  A    between atoms: O_17  and  C_18
REMARK   11  A    between atoms: C_18  and  C_19
REMARK   12  A    between atoms: C_22  and  N_30
REMARK   13  A    between atoms: C_24  and  O_26
REMARK   14  A    between atoms: C_27  and  O_29
REMARK   15  A    between atoms: C_39  and  C_41
REMARK   16  A    between atoms: C_41  and  O_42
REMARK   17  A    between atoms: C_43  and  O_45
REMARK   18  A    between atoms: C_46  and  O_48
REMARK   19  A    between atoms: O_48  and  C_49
REMARK   20  A    between atoms: C_49  and  C_50
REMARK   21  A    between atoms: C_49  and  O_51
REMARK   22  A    between atoms: C_49  and  C_56
REMARK   23  A    between atoms: O_51  and  P_52
REMARK   24  A    between atoms: P_52  and  O_53
REMARK   25  A    between atoms: P_52  and  O_54
REMARK   26  A    between atoms: C_56  and  O_57
REMARK                            x       y       z     vdW  Elec       q    Type
REMARK                         _______ _______ _______ _____ _____    ______ ____
ROOT
ATOM      1  C   UNL     1       5.714  -2.889  25.931  0.00  0.00    +0.161 C 
ATOM      2  C   UNL     1       5.491  -4.441  25.893  0.00  0.00    +0.178 C 
ATOM      3  C   UNL     1       6.496  -5.021  26.895  0.00  0.00    +0.176 C 
ATOM      4  C   UNL     1       7.941  -4.657  26.518  0.00  0.00    +0.178 C 
ATOM      5  O   UNL     1       8.127  -3.242  26.308  0.00  0.00    -0.341 OA
ATOM      6  C   UNL     1       7.149  -2.557  25.489  0.00  0.00    +0.285 C 
ENDROOT
BRANCH   1   9
ATOM      7  C   UNL     1       4.376  -0.572  28.629  0.00  0.00    +0.109 C 
ATOM      8  C   UNL     1       4.409  -1.329  27.332  0.00  0.00    +0.210 C 
ATOM      9  N   UNL     1       5.433  -2.240  27.222  0.00  0.00    -0.305 N 
ATOM     10  H   UNL     1       6.137  -2.269  27.952  0.00  0.00    +0.149 HD
ATOM     11  O   UNL     1       3.603  -1.140  26.426  0.00  0.00    -0.276 OA
ENDBRANCH   1   9
BRANCH   3  12
ATOM     12  O   UNL     1       6.309  -6.411  27.091  0.00  0.00    -0.387 OA
ATOM     13  H   UNL     1       7.029  -6.775  27.631  0.00  0.00    +0.210 HD
ENDBRANCH   3  12
BRANCH   4  14
ATOM     14  C   UNL     1       8.577  -5.448  25.369  0.00  0.00    +0.190 C 
BRANCH  14  15
ATOM     15  O   UNL     1       9.699  -4.715  24.854  0.00  0.00    -0.392 OA
ATOM     16  H   UNL     1       9.409  -4.335  24.004  0.00  0.00    +0.210 HD
ENDBRANCH  14  15
ENDBRANCH   4  14
BRANCH   6  17
ATOM     17  O   UNL     1       7.332  -2.728  24.103  0.00  0.00    -0.254 OA
BRANCH  17  18
ATOM     18  P   UNL     1       7.110  -1.453  23.055  0.00  0.00    +0.486 P 
ATOM     19  O   UNL     1       7.942  -1.953  21.856  0.00  0.00    -0.227 OA
BRANCH  18  20
ATOM     20  O   UNL     1       5.790  -2.331  22.362  0.00  0.00    -0.302 OA
ATOM     21  H   UNL     1       5.129  -1.646  22.103  0.00  0.00    +0.222 HD
ENDBRANCH  18  20
BRANCH  18  22
ATOM     22  O   UNL     1       8.430  -0.574  23.747  0.00  0.00    -0.186 OA
BRANCH  22  23
ATOM     23  P   UNL     1       9.797  -0.737  22.700  0.00  0.00    +0.483 P 
ATOM     24  O   UNL     1      10.984  -0.126  23.450  0.00  0.00    -0.227 OA
BRANCH  23  25
ATOM     25  O   UNL     1      10.201  -2.237  23.460  0.00  0.00    -0.302 OA
ATOM     26  H   UNL     1      11.103  -2.424  23.124  0.00  0.00    +0.222 HD
ENDBRANCH  23  25
BRANCH  23  27
ATOM     27  O   UNL     1       9.393   0.763  21.939  0.00  0.00    -0.284 OA
BRANCH  27  28
ATOM     28  C   UNL     1      10.087   1.939  22.370  0.00  0.00    +0.206 C 
BRANCH  28  29
ATOM     29  C   UNL     1       9.193   3.006  23.070  0.00  0.00    +0.178 C 
ATOM     30  C   UNL     1       7.807   3.179  22.452  0.00  0.00    +0.178 C 
ATOM     31  C   UNL     1       6.809   2.902  23.568  0.00  0.00    +0.195 C 
ATOM     32  C   UNL     1       7.660   2.347  24.722  0.00  0.00    +0.255 C 
ATOM     33  O   UNL     1       9.021   2.747  24.479  0.00  0.00    -0.346 OA
BRANCH  32  34
ATOM     34  N   UNL     1       7.201   2.699  26.083  0.00  0.00    -0.271 N 
ATOM     35  C   UNL     1       7.195   1.680  27.038  0.00  0.00    +0.331 A 
ATOM     36  O   UNL     1       7.275   0.489  26.738  0.00  0.00    -0.246 OA
ATOM     37  N   UNL     1       7.133   2.066  28.350  0.00  0.00    -0.275 N 
ATOM     38  H   UNL     1       7.333   1.355  29.044  0.00  0.00    +0.173 HD
ATOM     39  C   UNL     1       7.122   3.352  28.796  0.00  0.00    +0.254 A 
ATOM     40  O   UNL     1       7.255   3.669  29.972  0.00  0.00    -0.268 OA
ATOM     41  C   UNL     1       6.930   4.373  27.755  0.00  0.00    +0.088 A 
ATOM     42  C   UNL     1       7.013   4.014  26.470  0.00  0.00    +0.098 A 
ENDBRANCH  32  34
BRANCH  31  43
ATOM     43  O   UNL     1       5.839   1.957  23.101  0.00  0.00    -0.385 OA
ATOM     44  H   UNL     1       5.078   2.041  23.722  0.00  0.00    +0.210 HD
ENDBRANCH  31  43
BRANCH  30  45
ATOM     45  O   UNL     1       7.649   4.526  21.976  0.00  0.00    -0.386 OA
ATOM     46  H   UNL     1       8.185   4.642  21.170  0.00  0.00    +0.210 HD
ENDBRANCH  30  45
ENDBRANCH  28  29
ENDBRANCH  27  28
ENDBRANCH  23  27
ENDBRANCH  22  23
ENDBRANCH  18  22
ENDBRANCH  17  18
ENDBRANCH   6  17
BRANCH   2  47
ATOM     47  O   UNL     1       5.693  -4.879  24.527  0.00  0.00    -0.332 OA
BRANCH  47  48
ATOM     48  C   UNL     1       4.572  -5.234  23.651  0.00  0.00    +0.276 C 
ATOM     49  C   UNL     1       3.434  -4.284  24.070  0.00  0.00    +0.087 C 
BRANCH  48  50
ATOM     50  C   UNL     1       4.158  -6.687  24.019  0.00  0.00    +0.365 C 
ATOM     51  O   UNL     1       4.664  -7.395  24.874  0.00  0.00    -0.245 OA
BRANCH  50  52
ATOM     52  O   UNL     1       3.119  -7.123  23.247  0.00  0.00    -0.477 OA
ATOM     53  H   UNL     1       3.390  -7.968  22.829  0.00  0.00    +0.295 HD
ENDBRANCH  50  52
ENDBRANCH  48  50
BRANCH  48  54
ATOM     54  O   UNL     1       4.836  -4.946  22.321  0.00  0.00    -0.243 OA
BRANCH  54  55
ATOM     55  P   UNL     1       6.002  -5.667  21.510  0.00  0.00    +0.475 P 
ATOM     56  O   UNL     1       6.040  -5.689  20.033  0.00  0.00    -0.227 OA
BRANCH  55  57
ATOM     57  O   UNL     1       7.237  -4.873  22.160  0.00  0.00    -0.303 OA
ATOM     58  H   UNL     1       6.954  -4.392  22.954  0.00  0.00    +0.222 HD
ENDBRANCH  55  57
BRANCH  55  59
ATOM     59  O   UNL     1       6.217  -7.043  22.282  0.00  0.00    -0.303 OA
ATOM     60  H   UNL     1       6.563  -7.696  21.650  0.00  0.00    +0.222 HD
ENDBRANCH  55  59
ENDBRANCH  54  55
ENDBRANCH  48  54
ENDBRANCH  47  48
ENDBRANCH   2  47
TORSDOF 24
ENDMDL
MODEL 2
REMARK VINA RESULT:      -6.8      2.818      8.214
REMARK  Name = 
REMARK  26 active torsions:
REMARK  status: ('A' for Active; 'I' for Inactive)
REMARK    1  A    between atoms: C_1  and  C_2
REMARK    2  A    between atoms: N_4  and  C_5
REMARK    3  A    between atoms: C_7  and  O_9
REMARK    4  A    between atoms: O_9  and  P_10
REMARK    5  A    between atoms: P_10  and  O_11
REMARK    6  A    between atoms: P_10  and  O_13
REMARK    7  A    between atoms: O_13  and  P_14
REMARK    8  A    between atoms: P_14  and  O_15
REMARK    9  A    between atoms: P_14  and  O_17
REMARK   10  A    between atoms: O_17  and  C_18
REMARK   11  A    between atoms: C_18  and  C_19
REMARK   12  A    between atoms: C_22  and  N_30
REMARK   13  A    between atoms: C_24  and  O_26
REMARK   14  A    between atoms: C_27  and  O_29
REMARK   15  A    between atoms: C_39  and  C_41
REMARK   16  A    between atoms: C_41  and  O_42
REMARK   17  A    between atoms: C_43  and  O_45
REMARK   18  A    between atoms: C_46  and  O_48
REMARK   19  A    between atoms: O_48  and  C_49
REMARK   20  A    between atoms: C_49  and  C_50
REMARK   21  A    between atoms: C_49  and  O_51
REMARK   22  A    between atoms: C_49  and  C_56
REMARK   23  A    between atoms: O_51  and  P_52
REMARK   24  A    between atoms: P_52  and  O_53
REMARK   25  A    between atoms: P_52  and  O_54
REMARK   26  A    between atoms: C_56  and  O_57
REMARK                            x       y       z     vdW  Elec       q    Type
REMARK                         _______ _______ _______ _____ _____    ______ ____
ROOT
ATOM      1  C   UNL     1       9.658   3.410  24.060  0.00  0.00    +0.161 C 
ATOM      2  C   UNL     1       9.397   2.161  23.148  0.00  0.00    +0.178 C 
ATOM      3  C   UNL     1       8.427   2.645  22.064  0.00  0.00    +0.176 C 
ATOM      4  C   UNL     1       7.118   3.173  22.674  0.00  0.00    +0.178 C 
ATOM      5  O   UNL     1       7.336   4.163  23.701  0.00  0.00    -0.341 OA
ATOM      6  C   UNL     1       8.340   3.873  24.703  0.00  0.00    +0.285 C 
ENDROOT
BRANCH   1   9
ATOM      7  C   UNL     1      12.230   5.918  22.824  0.00  0.00    +0.109 C 
ATOM      8  C   UNL     1      11.683   4.605  23.305  0.00  0.00    +0.210 C 
ATOM      9  N   UNL     1      10.313   4.550  23.400  0.00  0.00    -0.305 N 
ATOM     10  H   UNL     1       9.782   5.401  23.245  0.00  0.00    +0.149 HD
ATOM     11  O   UNL     1      12.398   3.656  23.615  0.00  0.00    -0.276 OA
ENDBRANCH   1   9
BRANCH   3  12
ATOM     12  O   UNL     1       8.216   1.665  21.065  0.00  0.00    -0.387 OA
ATOM     13  H   UNL     1       8.345   0.775  21.433  0.00  0.00    +0.210 HD
ENDBRANCH   3  12
BRANCH   4  14
ATOM     14  C   UNL     1       6.108   2.126  23.159  0.00  0.00    +0.190 C 
BRANCH  14  15
ATOM     15  O   UNL     1       6.438   0.851  22.590  0.00  0.00    -0.392 OA
ATOM     16  H   UNL     1       5.596   0.370  22.491  0.00  0.00    +0.210 HD
ENDBRANCH  14  15
ENDBRANCH   4  14
BRANCH   6  17
ATOM     17  O   UNL     1       7.907   2.998  25.719  0.00  0.00    -0.254 OA
BRANCH  17  18
ATOM     18  P   UNL     1       6.736   3.474  26.804  0.00  0.00    +0.486 P 
ATOM     19  O   UNL     1       7.427   3.078  28.124  0.00  0.00    -0.227 OA
BRANCH  18  20
ATOM     20  O   UNL     1       7.571   4.983  26.950  0.00  0.00    -0.302 OA
ATOM     21  H   UNL     1       7.009   5.534  27.545  0.00  0.00    +0.222 HD
ENDBRANCH  18  20
BRANCH  18  22
ATOM     22  O   UNL     1       5.900   1.967  26.657  0.00  0.00    -0.186 OA
BRANCH  22  23
ATOM     23  P   UNL     1       4.208   2.265  26.852  0.00  0.00    +0.483 P 
ATOM     24  O   UNL     1       3.884   1.954  28.316  0.00  0.00    -0.227 OA
BRANCH  23  25
ATOM     25  O   UNL     1       4.550   3.882  27.362  0.00  0.00    -0.302 OA
ATOM     26  H   UNL     1       3.807   4.090  27.967  0.00  0.00    +0.222 HD
ENDBRANCH  23  25
BRANCH  23  27
ATOM     27  O   UNL     1       3.864   0.648  26.341  0.00  0.00    -0.284 OA
BRANCH  27  28
ATOM     28  C   UNL     1       3.096  -0.181  27.220  0.00  0.00    +0.206 C 
BRANCH  28  29
ATOM     29  C   UNL     1       3.591  -1.654  27.328  0.00  0.00    +0.178 C 
ATOM     30  C   UNL     1       2.516  -2.707  27.070  0.00  0.00    +0.178 C 
ATOM     31  C   UNL     1       3.025  -3.557  25.913  0.00  0.00    +0.195 C 
ATOM     32  C   UNL     1       4.264  -2.807  25.396  0.00  0.00    +0.255 C 
ATOM     33  O   UNL     1       4.703  -1.931  26.451  0.00  0.00    -0.346 OA
BRANCH  32  34
ATOM     34  N   UNL     1       5.357  -3.659  24.877  0.00  0.00    -0.271 N 
ATOM     35  C   UNL     1       6.193  -3.102  23.907  0.00  0.00    +0.331 A 
ATOM     36  O   UNL     1       5.898  -2.084  23.283  0.00  0.00    -0.246 OA
ATOM     37  N   UNL     1       7.394  -3.724  23.699  0.00  0.00    -0.275 N 
ATOM     38  H   UNL     1       8.082  -3.217  23.153  0.00  0.00    +0.173 HD
ATOM     39  C   UNL     1       7.854  -4.805  24.387  0.00  0.00    +0.254 A 
ATOM     40  O   UNL     1       9.002  -5.226  24.312  0.00  0.00    -0.268 OA
ATOM     41  C   UNL     1       6.862  -5.465  25.249  0.00  0.00    +0.088 A 
ATOM     42  C   UNL     1       5.695  -4.856  25.480  0.00  0.00    +0.098 A 
ENDBRANCH  32  34
BRANCH  31  43
ATOM     43  O   UNL     1       1.996  -3.658  24.922  0.00  0.00    -0.385 OA
ATOM     44  H   UNL     1       1.461  -4.443  25.185  0.00  0.00    +0.210 HD
ENDBRANCH  31  43
BRANCH  30  45
ATOM     45  O   UNL     1       2.342  -3.525  28.240  0.00  0.00    -0.386 OA
ATOM     46  H   UNL     1       1.390  -3.679  28.379  0.00  0.00    +0.210 HD
ENDBRANCH  30  45
ENDBRANCH  28  29
ENDBRANCH  27  28
ENDBRANCH  23  27
ENDBRANCH  22  23
ENDBRANCH  18  22
ENDBRANCH  17  18
ENDBRANCH   6  17
BRANCH   2  47
ATOM     47  O   UNL     1       8.869   1.107  23.990  0.00  0.00    -0.332 OA
BRANCH  47  48
ATOM     48  C   UNL     1       9.708   0.006  24.476  0.00  0.00    +0.276 C 
ATOM     49  C   UNL     1      11.151   0.532  24.352  0.00  0.00    +0.087 C 
BRANCH  48  50
ATOM     50  C   UNL     1       9.528  -1.170  23.474  0.00  0.00    +0.365 C 
ATOM     51  O   UNL     1      10.211  -2.177  23.402  0.00  0.00    -0.245 OA
BRANCH  50  52
ATOM     52  O   UNL     1       8.475  -0.952  22.631  0.00  0.00    -0.477 OA
ATOM     53  H   UNL     1       8.784  -1.124  21.716  0.00  0.00    +0.295 HD
ENDBRANCH  50  52
ENDBRANCH  48  50
BRANCH  48  54
ATOM     54  O   UNL     1       9.511  -0.246  25.824  0.00  0.00    -0.243 OA
BRANCH  54  55
ATOM     55  P   UNL     1       8.157  -0.873  26.383  0.00  0.00    +0.475 P 
ATOM     56  O   UNL     1       8.024  -2.311  26.699  0.00  0.00    -0.227 OA
BRANCH  55  57
ATOM     57  O   UNL     1       8.001   0.072  27.671  0.00  0.00    -0.303 OA
ATOM     58  H   UNL     1       8.725  -0.082  28.298  0.00  0.00    +0.222 HD
ENDBRANCH  55  57
BRANCH  55  59
ATOM     59  O   UNL     1       7.022  -0.196  25.495  0.00  0.00    -0.303 OA
ATOM     60  H   UNL     1       7.107   0.770  25.578  0.00  0.00    +0.222 HD
ENDBRANCH  55  59
ENDBRANCH  54  55
ENDBRANCH  48  54
ENDBRANCH  47  48
ENDBRANCH   2  47
TORSDOF 24
ENDMDL
MODEL 3
REMARK VINA RESULT:      -6.7      2.004      2.809
REMARK  Name = 
REMARK  26 active torsions:
REMARK  status: ('A' for Active; 'I' for Inactive)
REMARK    1  A    between atoms: C_1  and  C_2
REMARK    2  A    between atoms: N_4  and  C_5
REMARK    3  A    between atoms: C_7  and  O_9
REMARK    4  A    between atoms: O_9  and  P_10
REMARK    5  A    between atoms: P_10  and  O_11
REMARK    6  A    between atoms: P_10  and  O_13
REMARK    7  A    between atoms: O_13  and  P_14
REMARK    8  A    between atoms: P_14  and  O_15
REMARK    9  A    between atoms: P_14  and  O_17
REMARK   10  A    between atoms: O_17  and  C_18
REMARK   11  A    between atoms: C_18  and  C_19
REMARK   12  A    between atoms: C_22  and  N_30
REMARK   13  A    between atoms: C_24  and  O_26
REMARK   14  A    between atoms: C_27  and  O_29
REMARK   15  A    between atoms: C_39  and  C_41
REMARK   16  A    between atoms: C_41  and  O_42
REMARK   17  A    between atoms: C_43  and  O_45
REMARK   18  A    between atoms: C_46  and  O_48
REMARK   19  A    between atoms: O_48  and  C_49
REMARK   20  A    between atoms: C_49  and  C_50
REMARK   21  A    between atoms: C_49  and  O_51
REMARK   22  A    between atoms: C_49  and  C_56
REMARK   23  A    between atoms: O_51  and  P_52
REMARK   24  A    between atoms: P_52  and  O_53
REMARK   25  A    between atoms: P_52  and  O_54
REMARK   26  A    between atoms: C_56  and  O_57
REMARK                            x       y       z     vdW  Elec       q    Type
REMARK                         _______ _______ _______ _____ _____    ______ ____
ROOT
ATOM      1  C   UNL     1       5.338  -2.864  25.524  0.00  0.00    +0.161 C 
ATOM      2  C   UNL     1       4.288  -4.029  25.485  0.00  0.00    +0.178 C 
ATOM      3  C   UNL     1       4.117  -4.472  26.943  0.00  0.00    +0.176 C 
ATOM      4  C   UNL     1       5.450  -4.944  27.548  0.00  0.00    +0.178 C 
ATOM      5  O   UNL     1       6.512  -3.981  27.385  0.00  0.00    -0.341 OA
ATOM      6  C   UNL     1       6.676  -3.385  26.076  0.00  0.00    +0.285 C 
ENDROOT
BRANCH   1   9
ATOM      7  C   UNL     1       4.915   0.716  26.724  0.00  0.00    +0.109 C 
ATOM      8  C   UNL     1       5.166  -0.413  25.765  0.00  0.00    +0.210 C 
ATOM      9  N   UNL     1       4.928  -1.667  26.275  0.00  0.00    -0.305 N 
ATOM     10  H   UNL     1       4.706  -1.756  27.261  0.00  0.00    +0.149 HD
ATOM     11  O   UNL     1       5.575  -0.240  24.621  0.00  0.00    -0.276 OA
ENDBRANCH   1   9
BRANCH   3  12
ATOM     12  O   UNL     1       3.076  -5.420  27.091  0.00  0.00    -0.387 OA
ATOM     13  H   UNL     1       2.914  -5.597  28.032  0.00  0.00    +0.210 HD
ENDBRANCH   3  12
BRANCH   4  14
ATOM     14  C   UNL     1       5.938  -6.340  27.145  0.00  0.00    +0.190 C 
BRANCH  14  15
ATOM     15  O   UNL     1       5.226  -7.328  27.903  0.00  0.00    -0.392 OA
ATOM     16  H   UNL     1       4.278  -7.146  27.766  0.00  0.00    +0.210 HD
ENDBRANCH  14  15
ENDBRANCH   4  14
BRANCH   6  17
ATOM     17  O   UNL     1       7.352  -4.203  25.149  0.00  0.00    -0.254 OA
BRANCH  17  18
ATOM     18  P   UNL     1       8.999  -4.066  24.943  0.00  0.00    +0.486 P 
ATOM     19  O   UNL     1       9.478  -4.616  26.303  0.00  0.00    -0.227 OA
BRANCH  18  20
ATOM     20  O   UNL     1       9.006  -5.711  24.403  0.00  0.00    -0.302 OA
ATOM     21  H   UNL     1       8.488  -5.710  23.563  0.00  0.00    +0.222 HD
ENDBRANCH  18  20
BRANCH  18  22
ATOM     22  O   UNL     1       8.993  -2.423  25.482  0.00  0.00    -0.186 OA
BRANCH  22  23
ATOM     23  P   UNL     1       9.057  -1.397  24.092  0.00  0.00    +0.483 P 
ATOM     24  O   UNL     1      10.486  -1.496  23.552  0.00  0.00    -0.227 OA
BRANCH  23  25
ATOM     25  O   UNL     1       8.674  -2.745  23.078  0.00  0.00    -0.302 OA
ATOM     26  H   UNL     1       8.536  -3.476  23.717  0.00  0.00    +0.222 HD
ENDBRANCH  23  25
BRANCH  23  27
ATOM     27  O   UNL     1       9.438  -0.047  25.105  0.00  0.00    -0.284 OA
BRANCH  27  28
ATOM     28  C   UNL     1      10.499   0.821  24.690  0.00  0.00    +0.206 C 
BRANCH  28  29
ATOM     29  C   UNL     1      10.041   2.073  23.884  0.00  0.00    +0.178 C 
ATOM     30  C   UNL     1       9.375   1.758  22.546  0.00  0.00    +0.178 C 
ATOM     31  C   UNL     1       7.991   2.391  22.603  0.00  0.00    +0.195 C 
ATOM     32  C   UNL     1       7.829   2.838  24.066  0.00  0.00    +0.255 C 
ATOM     33  O   UNL     1       9.148   2.921  24.635  0.00  0.00    -0.346 OA
BRANCH  32  34
ATOM     34  N   UNL     1       7.044   4.075  24.273  0.00  0.00    -0.271 N 
ATOM     35  C   UNL     1       5.657   3.942  24.362  0.00  0.00    +0.331 A 
ATOM     36  O   UNL     1       5.063   2.926  24.000  0.00  0.00    -0.246 OA
ATOM     37  N   UNL     1       4.971   4.992  24.911  0.00  0.00    -0.275 N 
ATOM     38  H   UNL     1       4.004   4.823  25.163  0.00  0.00    +0.173 HD
ATOM     39  C   UNL     1       5.533   6.126  25.414  0.00  0.00    +0.254 A 
ATOM     40  O   UNL     1       4.919   6.962  26.065  0.00  0.00    -0.268 OA
ATOM     41  C   UNL     1       6.963   6.299  25.119  0.00  0.00    +0.088 A 
ATOM     42  C   UNL     1       7.649   5.273  24.605  0.00  0.00    +0.098 A 
ENDBRANCH  32  34
BRANCH  31  43
ATOM     43  O   UNL     1       7.017   1.414  22.220  0.00  0.00    -0.385 OA
ATOM     44  H   UNL     1       6.305   1.923  21.766  0.00  0.00    +0.210 HD
ENDBRANCH  31  43
BRANCH  30  45
ATOM     45  O   UNL     1      10.136   2.339  21.473  0.00  0.00    -0.386 OA
ATOM     46  H   UNL     1      10.945   2.739  21.839  0.00  0.00    +0.210 HD
ENDBRANCH  30  45
ENDBRANCH  28  29
ENDBRANCH  27  28
ENDBRANCH  23  27
ENDBRANCH  22  23
ENDBRANCH  18  22
ENDBRANCH  17  18
ENDBRANCH   6  17
BRANCH   2  47
ATOM     47  O   UNL     1       4.809  -5.058  24.608  0.00  0.00    -0.332 OA
BRANCH  47  48
ATOM     48  C   UNL     1       3.964  -5.738  23.621  0.00  0.00    +0.276 C 
ATOM     49  C   UNL     1       2.641  -4.949  23.630  0.00  0.00    +0.087 C 
BRANCH  48  50
ATOM     50  C   UNL     1       3.688  -7.165  24.174  0.00  0.00    +0.365 C 
ATOM     51  O   UNL     1       4.143  -7.651  25.195  0.00  0.00    -0.245 OA
BRANCH  50  52
ATOM     52  O   UNL     1       2.845  -7.864  23.357  0.00  0.00    -0.477 OA
ATOM     53  H   UNL     1       3.054  -8.817  23.456  0.00  0.00    +0.295 HD
ENDBRANCH  50  52
ENDBRANCH  48  50
BRANCH  48  54
ATOM     54  O   UNL     1       4.466  -5.621  22.334  0.00  0.00    -0.243 OA
BRANCH  54  55
ATOM     55  P   UNL     1       6.016  -5.397  22.043  0.00  0.00    +0.475 P 
ATOM     56  O   UNL     1       7.049  -6.359  22.478  0.00  0.00    -0.227 OA
BRANCH  55  57
ATOM     57  O   UNL     1       5.915  -5.261  20.446  0.00  0.00    -0.303 OA
ATOM     58  H   UNL     1       5.660  -6.107  20.047  0.00  0.00    +0.222 HD
ENDBRANCH  55  57
BRANCH  55  59
ATOM     59  O   UNL     1       6.250  -3.854  22.363  0.00  0.00    -0.303 OA
ATOM     60  H   UNL     1       5.552  -3.561  22.974  0.00  0.00    +0.222 HD
ENDBRANCH  55  59
ENDBRANCH  54  55
ENDBRANCH  48  54
ENDBRANCH  47  48
ENDBRANCH   2  47
TORSDOF 24
ENDMDL
MODEL 4
REMARK VINA RESULT:      -6.7      2.383      8.525
REMARK  Name = 
REMARK  26 active torsions:
REMARK  status: ('A' for Active; 'I' for Inactive)
REMARK    1  A    between atoms: C_1  and  C_2
REMARK    2  A    between atoms: N_4  and  C_5
REMARK    3  A    between atoms: C_7  and  O_9
REMARK    4  A    between atoms: O_9  and  P_10
REMARK    5  A    between atoms: P_10  and  O_11
REMARK    6  A    between atoms: P_10  and  O_13
REMARK    7  A    between atoms: O_13  and  P_14
REMARK    8  A    between atoms: P_14  and  O_15
REMARK    9  A    between atoms: P_14  and  O_17
REMARK   10  A    between atoms: O_17  and  C_18
REMARK   11  A    between atoms: C_18  and  C_19
REMARK   12  A    between atoms: C_22  and  N_30
REMARK   13  A    between atoms: C_24  and  O_26
REMARK   14  A    between atoms: C_27  and  O_29
REMARK   15  A    between atoms: C_39  and  C_41
REMARK   16  A    between atoms: C_41  and  O_42
REMARK   17  A    between atoms: C_43  and  O_45
REMARK   18  A    between atoms: C_46  and  O_48
REMARK   19  A    between atoms: O_48  and  C_49
REMARK   20  A    between atoms: C_49  and  C_50
REMARK   21  A    between atoms: C_49  and  O_51
REMARK   22  A    between atoms: C_49  and  C_56
REMARK   23  A    between atoms: O_51  and  P_52
REMARK   24  A    between atoms: P_52  and  O_53
REMARK   25  A    between atoms: P_52  and  O_54
REMARK   26  A    between atoms: C_56  and  O_57
REMARK                            x       y       z     vdW  Elec       q    Type
REMARK                         _______ _______ _______ _____ _____    ______ ____
ROOT
ATOM      1  C   UNL     1       8.370   3.206  25.090  0.00  0.00    +0.161 C 
ATOM      2  C   UNL     1       9.423   2.472  24.188  0.00  0.00    +0.178 C 
ATOM      3  C   UNL     1       9.286   3.111  22.801  0.00  0.00    +0.176 C 
ATOM      4  C   UNL     1       7.863   2.945  22.242  0.00  0.00    +0.178 C 
ATOM      5  O   UNL     1       6.844   3.396  23.160  0.00  0.00    -0.341 OA
ATOM      6  C   UNL     1       6.954   2.969  24.538  0.00  0.00    +0.285 C 
ENDROOT
BRANCH   1   9
ATOM      7  C   UNL     1       8.173   6.793  26.328  0.00  0.00    +0.109 C 
ATOM      8  C   UNL     1       8.079   5.295  26.375  0.00  0.00    +0.210 C 
ATOM      9  N   UNL     1       8.591   4.649  25.275  0.00  0.00    -0.305 N 
ATOM     10  H   UNL     1       8.894   5.207  24.483  0.00  0.00    +0.149 HD
ATOM     11  O   UNL     1       7.565   4.686  27.309  0.00  0.00    -0.276 OA
ENDBRANCH   1   9
BRANCH   3  12
ATOM     12  O   UNL     1      10.287   2.658  21.908  0.00  0.00    -0.387 OA
ATOM     13  H   UNL     1      10.832   1.974  22.331  0.00  0.00    +0.210 HD
ENDBRANCH   3  12
BRANCH   4  14
ATOM     14  C   UNL     1       7.494   1.566  21.683  0.00  0.00    +0.190 C 
BRANCH  14  15
ATOM     15  O   UNL     1       8.378   1.243  20.600  0.00  0.00    -0.392 OA
ATOM     16  H   UNL     1       8.259   0.291  20.425  0.00  0.00    +0.210 HD
ENDBRANCH  14  15
ENDBRANCH   4  14
BRANCH   6  17
ATOM     17  O   UNL     1       6.504   1.655  24.775  0.00  0.00    -0.254 OA
BRANCH  17  18
ATOM     18  P   UNL     1       4.939   1.371  25.269  0.00  0.00    +0.486 P 
ATOM     19  O   UNL     1       4.687   2.655  26.087  0.00  0.00    -0.227 OA
BRANCH  18  20
ATOM     20  O   UNL     1       4.406   2.277  23.894  0.00  0.00    -0.302 OA
ATOM     21  H   UNL     1       4.458   3.223  24.170  0.00  0.00    +0.222 HD
ENDBRANCH  18  20
BRANCH  18  22
ATOM     22  O   UNL     1       5.471   0.465  26.643  0.00  0.00    -0.186 OA
BRANCH  22  23
ATOM     23  P   UNL     1       4.168  -0.547  27.161  0.00  0.00    +0.483 P 
ATOM     24  O   UNL     1       3.703   0.011  28.509  0.00  0.00    -0.227 OA
BRANCH  23  25
ATOM     25  O   UNL     1       3.035   0.530  26.422  0.00  0.00    -0.302 OA
ATOM     26  H   UNL     1       2.378  -0.075  26.019  0.00  0.00    +0.222 HD
ENDBRANCH  23  25
BRANCH  23  27
ATOM     27  O   UNL     1       5.301  -1.627  27.899  0.00  0.00    -0.284 OA
BRANCH  27  28
ATOM     28  C   UNL     1       4.917  -2.998  28.049  0.00  0.00    +0.206 C 
BRANCH  28  29
ATOM     29  C   UNL     1       5.876  -4.022  27.371  0.00  0.00    +0.178 C 
ATOM     30  C   UNL     1       5.690  -5.467  27.830  0.00  0.00    +0.178 C 
ATOM     31  C   UNL     1       5.380  -6.273  26.576  0.00  0.00    +0.195 C 
ATOM     32  C   UNL     1       5.163  -5.218  25.479  0.00  0.00    +0.255 C 
ATOM     33  O   UNL     1       5.783  -4.000  25.931  0.00  0.00    -0.346 OA
BRANCH  32  34
ATOM     34  N   UNL     1       5.603  -5.606  24.122  0.00  0.00    -0.271 N 
ATOM     35  C   UNL     1       4.673  -6.268  23.316  0.00  0.00    +0.331 A 
ATOM     36  O   UNL     1       3.648  -6.777  23.767  0.00  0.00    -0.246 OA
ATOM     37  N   UNL     1       4.934  -6.298  21.972  0.00  0.00    -0.275 N 
ATOM     38  H   UNL     1       4.175  -6.591  21.367  0.00  0.00    +0.173 HD
ATOM     39  C   UNL     1       5.993  -5.700  21.359  0.00  0.00    +0.254 A 
ATOM     40  O   UNL     1       6.102  -5.583  20.145  0.00  0.00    -0.268 OA
ATOM     41  C   UNL     1       7.034  -5.193  22.265  0.00  0.00    +0.088 A 
ATOM     42  C   UNL     1       6.783  -5.136  23.576  0.00  0.00    +0.098 A 
ENDBRANCH  32  34
BRANCH  31  43
ATOM     43  O   UNL     1       4.210  -7.065  26.810  0.00  0.00    -0.385 OA
ATOM     44  H   UNL     1       4.482  -7.735  27.480  0.00  0.00    +0.210 HD
ENDBRANCH  31  43
BRANCH  30  45
ATOM     45  O   UNL     1       6.903  -5.947  28.435  0.00  0.00    -0.386 OA
ATOM     46  H   UNL     1       6.768  -6.025  29.397  0.00  0.00    +0.210 HD
ENDBRANCH  30  45
ENDBRANCH  28  29
ENDBRANCH  27  28
ENDBRANCH  23  27
ENDBRANCH  22  23
ENDBRANCH  18  22
ENDBRANCH  17  18
ENDBRANCH   6  17
BRANCH   2  47
ATOM     47  O   UNL     1       9.118   1.056  24.224  0.00  0.00    -0.332 OA
BRANCH  47  48
ATOM     48  C   UNL     1      10.166   0.039  24.351  0.00  0.00    +0.276 C 
ATOM     49  C   UNL     1      11.470   0.841  24.515  0.00  0.00    +0.087 C 
BRANCH  48  50
ATOM     50  C   UNL     1      10.223  -0.718  22.994  0.00  0.00    +0.365 C 
ATOM     51  O   UNL     1      10.306  -0.219  21.884  0.00  0.00    -0.245 OA
BRANCH  50  52
ATOM     52  O   UNL     1      10.161  -2.071  23.172  0.00  0.00    -0.477 OA
ATOM     53  H   UNL     1       9.274  -2.371  22.883  0.00  0.00    +0.295 HD
ENDBRANCH  50  52
ENDBRANCH  48  50
BRANCH  48  54
ATOM     54  O   UNL     1      10.031  -0.708  25.511  0.00  0.00    -0.243 OA
BRANCH  54  55
ATOM     55  P   UNL     1       8.612  -1.179  26.060  0.00  0.00    +0.475 P 
ATOM     56  O   UNL     1       8.454  -2.367  26.924  0.00  0.00    -0.227 OA
BRANCH  55  57
ATOM     57  O   UNL     1       8.202   0.190  26.792  0.00  0.00    -0.303 OA
ATOM     58  H   UNL     1       8.417   0.954  26.233  0.00  0.00    +0.222 HD
ENDBRANCH  55  57
BRANCH  55  59
ATOM     59  O   UNL     1       7.644  -1.035  24.804  0.00  0.00    -0.303 OA
ATOM     60  H   UNL     1       6.961  -0.377  25.020  0.00  0.00    +0.222 HD
ENDBRANCH  55  59
ENDBRANCH  54  55
ENDBRANCH  48  54
ENDBRANCH  47  48
ENDBRANCH   2  47
TORSDOF 24
ENDMDL
MODEL 5
REMARK VINA RESULT:      -6.7      2.579      4.354
REMARK  Name = 
REMARK  26 active torsions:
REMARK  status: ('A' for Active; 'I' for Inactive)
REMARK    1  A    between atoms: C_1  and  C_2
REMARK    2  A    between atoms: N_4  and  C_5
REMARK    3  A    between atoms: C_7  and  O_9
REMARK    4  A    between atoms: O_9  and  P_10
REMARK    5  A    between atoms: P_10  and  O_11
REMARK    6  A    between atoms: P_10  and  O_13
REMARK    7  A    between atoms: O_13  and  P_14
REMARK    8  A    between atoms: P_14  and  O_15
REMARK    9  A    between atoms: P_14  and  O_17
REMARK   10  A    between atoms: O_17  and  C_18
REMARK   11  A    between atoms: C_18  and  C_19
REMARK   12  A    between atoms: C_22  and  N_30
REMARK   13  A    between atoms: C_24  and  O_26
REMARK   14  A    between atoms: C_27  and  O_29
REMARK   15  A    between atoms: C_39  and  C_41
REMARK   16  A    between atoms: C_41  and  O_42
REMARK   17  A    between atoms: C_43  and  O_45
REMARK   18  A    between atoms: C_46  and  O_48
REMARK   19  A    between atoms: O_48  and  C_49
REMARK   20  A    between atoms: C_49  and  C_50
REMARK   21  A    between atoms: C_49  and  O_51
REMARK   22  A    between atoms: C_49  and  C_56
REMARK   23  A    between atoms: O_51  and  P_52
REMARK   24  A    between atoms: P_52  and  O_53
REMARK   25  A    between atoms: P_52  and  O_54
REMARK   26  A    between atoms: C_56  and  O_57
REMARK                            x       y       z     vdW  Elec       q    Type
REMARK                         _______ _______ _______ _____ _____    ______ ____
ROOT
ATOM      1  C   UNL     1       4.128  -3.453  27.387  0.00  0.00    +0.161 C 
ATOM      2  C   UNL     1       2.937  -4.464  27.530  0.00  0.00    +0.178 C 
ATOM      3  C   UNL     1       2.930  -4.878  29.005  0.00  0.00    +0.176 C 
ATOM      4  C   UNL     1       4.262  -5.527  29.414  0.00  0.00    +0.178 C 
ATOM      5  O   UNL     1       5.408  -4.718  29.075  0.00  0.00    -0.341 OA
ATOM      6  C   UNL     1       5.451  -4.151  27.744  0.00  0.00    +0.285 C 
ENDROOT
BRANCH   1   9
ATOM      7  C   UNL     1       4.157   0.191  28.464  0.00  0.00    +0.109 C 
ATOM      8  C   UNL     1       4.066  -0.989  27.539  0.00  0.00    +0.210 C 
ATOM      9  N   UNL     1       4.000  -2.211  28.166  0.00  0.00    -0.305 N 
ATOM     10  H   UNL     1       4.118  -2.246  29.173  0.00  0.00    +0.149 HD
ATOM     11  O   UNL     1       4.073  -0.881  26.316  0.00  0.00    -0.276 OA
ENDBRANCH   1   9
BRANCH   3  12
ATOM     12  O   UNL     1       1.805  -5.676  29.327  0.00  0.00    -0.387 OA
ATOM     13  H   UNL     1       2.022  -6.290  30.047  0.00  0.00    +0.210 HD
ENDBRANCH   3  12
BRANCH   4  14
ATOM     14  C   UNL     1       4.492  -6.977  28.972  0.00  0.00    +0.190 C 
BRANCH  14  15
ATOM     15  O   UNL     1       5.886  -7.293  29.093  0.00  0.00    -0.392 OA
ATOM     16  H   UNL     1       5.945  -8.031  29.727  0.00  0.00    +0.210 HD
ENDBRANCH  14  15
ENDBRANCH   4  14
BRANCH   6  17
ATOM     17  O   UNL     1       5.863  -5.053  26.743  0.00  0.00    -0.254 OA
BRANCH  17  18
ATOM     18  P   UNL     1       7.452  -5.098  26.246  0.00  0.00    +0.486 P 
ATOM     19  O   UNL     1       8.006  -3.894  27.036  0.00  0.00    -0.227 OA
BRANCH  18  20
ATOM     20  O   UNL     1       7.803  -6.040  27.654  0.00  0.00    -0.302 OA
ATOM     21  H   UNL     1       6.974  -6.025  28.190  0.00  0.00    +0.222 HD
ENDBRANCH  18  20
BRANCH  18  22
ATOM     22  O   UNL     1       7.103  -4.156  24.838  0.00  0.00    -0.186 OA
BRANCH  22  23
ATOM     23  P   UNL     1       8.283  -4.530  23.630  0.00  0.00    +0.483 P 
ATOM     24  O   UNL     1       9.488  -3.630  23.918  0.00  0.00    -0.227 OA
BRANCH  23  25
ATOM     25  O   UNL     1       9.005  -5.688  24.692  0.00  0.00    -0.302 OA
ATOM     26  H   UNL     1       8.788  -6.547  24.271  0.00  0.00    +0.222 HD
ENDBRANCH  23  25
BRANCH  23  27
ATOM     27  O   UNL     1       7.561  -3.372  22.566  0.00  0.00    -0.284 OA
BRANCH  27  28
ATOM     28  C   UNL     1       8.149  -2.068  22.500  0.00  0.00    +0.206 C 
BRANCH  28  29
ATOM     29  C   UNL     1       7.430  -0.983  23.357  0.00  0.00    +0.178 C 
ATOM     30  C   UNL     1       7.994  -0.809  24.766  0.00  0.00    +0.178 C 
ATOM     31  C   UNL     1       8.412   0.650  24.878  0.00  0.00    +0.195 C 
ATOM     32  C   UNL     1       8.293   1.199  23.446  0.00  0.00    +0.255 C 
ATOM     33  O   UNL     1       7.422   0.312  22.721  0.00  0.00    -0.346 OA
BRANCH  32  34
ATOM     34  N   UNL     1       7.877   2.615  23.336  0.00  0.00    -0.271 N 
ATOM     35  C   UNL     1       8.885   3.580  23.374  0.00  0.00    +0.331 A 
ATOM     36  O   UNL     1      10.024   3.334  23.768  0.00  0.00    -0.246 OA
ATOM     37  N   UNL     1       8.561   4.827  22.911  0.00  0.00    -0.275 N 
ATOM     38  H   UNL     1       9.330   5.466  22.746  0.00  0.00    +0.173 HD
ATOM     39  C   UNL     1       7.359   5.186  22.380  0.00  0.00    +0.254 A 
ATOM     40  O   UNL     1       7.156   6.248  21.806  0.00  0.00    -0.268 OA
ATOM     41  C   UNL     1       6.283   4.197  22.546  0.00  0.00    +0.088 A 
ATOM     42  C   UNL     1       6.590   2.969  22.974  0.00  0.00    +0.098 A 
ENDBRANCH  32  34
BRANCH  31  43
ATOM     43  O   UNL     1       9.754   0.713  25.376  0.00  0.00    -0.385 OA
ATOM     44  H   UNL     1       9.863   1.636  25.706  0.00  0.00    +0.210 HD
ENDBRANCH  31  43
BRANCH  30  45
ATOM     45  O   UNL     1       6.977  -1.104  25.739  0.00  0.00    -0.386 OA
ATOM     46  H   UNL     1       6.272  -1.624  25.312  0.00  0.00    +0.210 HD
ENDBRANCH  30  45
ENDBRANCH  28  29
ENDBRANCH  27  28
ENDBRANCH  23  27
ENDBRANCH  22  23
ENDBRANCH  18  22
ENDBRANCH  17  18
ENDBRANCH   6  17
BRANCH   2  47
ATOM     47  O   UNL     1       3.176  -5.554  26.606  0.00  0.00    -0.332 OA
BRANCH  47  48
ATOM     48  C   UNL     1       2.110  -6.108  25.765  0.00  0.00    +0.276 C 
ATOM     49  C   UNL     1       0.933  -5.127  25.931  0.00  0.00    +0.087 C 
BRANCH  48  50
ATOM     50  C   UNL     1       1.704  -7.471  26.395  0.00  0.00    +0.365 C 
ATOM     51  O   UNL     1       0.937  -7.643  27.327  0.00  0.00    -0.245 OA
BRANCH  50  52
ATOM     52  O   UNL     1       2.330  -8.515  25.774  0.00  0.00    -0.477 OA
ATOM     53  H   UNL     1       1.743  -9.297  25.839  0.00  0.00    +0.295 HD
ENDBRANCH  50  52
ENDBRANCH  48  50
BRANCH  48  54
ATOM     54  O   UNL     1       2.439  -6.081  24.419  0.00  0.00    -0.243 OA
BRANCH  54  55
ATOM     55  P   UNL     1       3.942  -6.212  23.908  0.00  0.00    +0.475 P 
ATOM     56  O   UNL     1       4.819  -7.332  24.310  0.00  0.00    -0.227 OA
BRANCH  55  57
ATOM     57  O   UNL     1       3.634  -6.188  22.332  0.00  0.00    -0.303 OA
ATOM     58  H   UNL     1       4.445  -6.348  21.823  0.00  0.00    +0.222 HD
ENDBRANCH  55  57
BRANCH  55  59
ATOM     59  O   UNL     1       4.520  -4.733  24.025  0.00  0.00    -0.303 OA
ATOM     60  H   UNL     1       5.455  -4.750  23.756  0.00  0.00    +0.222 HD
ENDBRANCH  55  59
ENDBRANCH  54  55
ENDBRANCH  48  54
ENDBRANCH  47  48
ENDBRANCH   2  47
TORSDOF 24
ENDMDL
MODEL 6
REMARK VINA RESULT:      -6.6      1.593      2.283
REMARK  Name = 
REMARK  26 active torsions:
REMARK  status: ('A' for Active; 'I' for Inactive)
REMARK    1  A    between atoms: C_1  and  C_2
REMARK    2  A    between atoms: N_4  and  C_5
REMARK    3  A    between atoms: C_7  and  O_9
REMARK    4  A    between atoms: O_9  and  P_10
REMARK    5  A    between atoms: P_10  and  O_11
REMARK    6  A    between atoms: P_10  and  O_13
REMARK    7  A    between atoms: O_13  and  P_14
REMARK    8  A    between atoms: P_14  and  O_15
REMARK    9  A    between atoms: P_14  and  O_17
REMARK   10  A    between atoms: O_17  and  C_18
REMARK   11  A    between atoms: C_18  and  C_19
REMARK   12  A    between atoms: C_22  and  N_30
REMARK   13  A    between atoms: C_24  and  O_26
REMARK   14  A    between atoms: C_27  and  O_29
REMARK   15  A    between atoms: C_39  and  C_41
REMARK   16  A    between atoms: C_41  and  O_42
REMARK   17  A    between atoms: C_43  and  O_45
REMARK   18  A    between atoms: C_46  and  O_48
REMARK   19  A    between atoms: O_48  and  C_49
REMARK   20  A    between atoms: C_49  and  C_50
REMARK   21  A    between atoms: C_49  and  O_51
REMARK   22  A    between atoms: C_49  and  C_56
REMARK   23  A    between atoms: O_51  and  P_52
REMARK   24  A    between atoms: P_52  and  O_53
REMARK   25  A    between atoms: P_52  and  O_54
REMARK   26  A    between atoms: C_56  and  O_57
REMARK                            x       y       z     vdW  Elec       q    Type
REMARK                         _______ _______ _______ _____ _____    ______ ____
ROOT
ATOM      1  C   UNL     1       4.550  -2.514  26.568  0.00  0.00    +0.161 C 
ATOM      2  C   UNL     1       3.638  -3.764  26.309  0.00  0.00    +0.178 C 
ATOM      3  C   UNL     1       3.590  -4.515  27.644  0.00  0.00    +0.176 C 
ATOM      4  C   UNL     1       4.995  -4.937  28.104  0.00  0.00    +0.178 C 
ATOM      5  O   UNL     1       5.932  -3.840  28.123  0.00  0.00    -0.341 OA
ATOM      6  C   UNL     1       5.964  -2.971  26.966  0.00  0.00    +0.285 C 
ENDROOT
BRANCH   1   9
ATOM      7  C   UNL     1       3.649   0.676  28.425  0.00  0.00    +0.109 C 
ATOM      8  C   UNL     1       3.956  -0.218  27.258  0.00  0.00    +0.210 C 
ATOM      9  N   UNL     1       4.043  -1.556  27.563  0.00  0.00    -0.305 N 
ATOM     10  H   UNL     1       4.000  -1.834  28.538  0.00  0.00    +0.149 HD
ATOM     11  O   UNL     1       4.140   0.206  26.121  0.00  0.00    -0.276 OA
ENDBRANCH   1   9
BRANCH   3  12
ATOM     12  O   UNL     1       2.672  -5.592  27.613  0.00  0.00    -0.387 OA
ATOM     13  H   UNL     1       3.134  -6.424  27.419  0.00  0.00    +0.210 HD
ENDBRANCH   3  12
BRANCH   4  14
ATOM     14  C   UNL     1       5.619  -6.150  27.404  0.00  0.00    +0.190 C 
BRANCH  14  15
ATOM     15  O   UNL     1       6.924  -6.392  27.950  0.00  0.00    -0.392 OA
ATOM     16  H   UNL     1       7.109  -7.338  27.806  0.00  0.00    +0.210 HD
ENDBRANCH  14  15
ENDBRANCH   4  14
BRANCH   6  17
ATOM     17  O   UNL     1       6.682  -3.491  25.871  0.00  0.00    -0.254 OA
BRANCH  17  18
ATOM     18  P   UNL     1       8.304  -3.157  25.687  0.00  0.00    +0.486 P 
ATOM     19  O   UNL     1       8.480  -2.101  26.798  0.00  0.00    -0.227 OA
BRANCH  18  20
ATOM     20  O   UNL     1       8.623  -4.336  26.913  0.00  0.00    -0.302 OA
ATOM     21  H   UNL     1       8.364  -5.201  26.515  0.00  0.00    +0.222 HD
ENDBRANCH  18  20
BRANCH  18  22
ATOM     22  O   UNL     1       7.985  -1.979  24.461  0.00  0.00    -0.186 OA
BRANCH  22  23
ATOM     23  P   UNL     1       9.193  -2.136  23.233  0.00  0.00    +0.483 P 
ATOM     24  O   UNL     1      10.249  -3.094  23.792  0.00  0.00    -0.227 OA
BRANCH  23  25
ATOM     25  O   UNL     1       8.382  -3.531  22.612  0.00  0.00    -0.302 OA
ATOM     26  H   UNL     1       7.446  -3.244  22.560  0.00  0.00    +0.222 HD
ENDBRANCH  23  25
BRANCH  23  27
ATOM     27  O   UNL     1      10.004  -0.739  23.853  0.00  0.00    -0.284 OA
BRANCH  27  28
ATOM     28  C   UNL     1      10.130   0.398  22.992  0.00  0.00    +0.206 C 
BRANCH  28  29
ATOM     29  C   UNL     1       9.074   1.518  23.232  0.00  0.00    +0.178 C 
ATOM     30  C   UNL     1       7.672   1.191  22.722  0.00  0.00    +0.178 C 
ATOM     31  C   UNL     1       6.749   1.294  23.929  0.00  0.00    +0.195 C 
ATOM     32  C   UNL     1       7.696   1.441  25.131  0.00  0.00    +0.255 C 
ATOM     33  O   UNL     1       8.965   1.890  24.622  0.00  0.00    -0.346 OA
BRANCH  32  34
ATOM     34  N   UNL     1       7.198   2.289  26.237  0.00  0.00    -0.271 N 
ATOM     35  C   UNL     1       7.172   1.722  27.513  0.00  0.00    +0.331 A 
ATOM     36  O   UNL     1       7.265   0.510  27.701  0.00  0.00    -0.246 OA
ATOM     37  N   UNL     1       7.072   2.587  28.569  0.00  0.00    -0.275 N 
ATOM     38  H   UNL     1       7.256   2.205  29.490  0.00  0.00    +0.173 HD
ATOM     39  C   UNL     1       7.043   3.945  28.478  0.00  0.00    +0.254 A 
ATOM     40  O   UNL     1       7.143   4.697  29.441  0.00  0.00    -0.268 OA
ATOM     41  C   UNL     1       6.875   4.477  27.118  0.00  0.00    +0.088 A 
ATOM     42  C   UNL     1       6.994   3.647  26.077  0.00  0.00    +0.098 A 
ENDBRANCH  32  34
BRANCH  31  43
ATOM     43  O   UNL     1       5.951   0.106  24.006  0.00  0.00    -0.385 OA
ATOM     44  H   UNL     1       5.847  -0.195  23.073  0.00  0.00    +0.210 HD
ENDBRANCH  31  43
BRANCH  30  45
ATOM     45  O   UNL     1       7.280   2.146  21.722  0.00  0.00    -0.386 OA
ATOM     46  H   UNL     1       7.592   1.838  20.851  0.00  0.00    +0.210 HD
ENDBRANCH  30  45
ENDBRANCH  28  29
ENDBRANCH  27  28
ENDBRANCH  23  27
ENDBRANCH  22  23
ENDBRANCH  18  22
ENDBRANCH  17  18
ENDBRANCH   6  17
BRANCH   2  47
ATOM     47  O   UNL     1       4.229  -4.518  25.223  0.00  0.00    -0.332 OA
BRANCH  47  48
ATOM     48  C   UNL     1       3.414  -5.128  24.166  0.00  0.00    +0.276 C 
ATOM     49  C   UNL     1       1.996  -4.574  24.399  0.00  0.00    +0.087 C 
BRANCH  48  50
ATOM     50  C   UNL     1       3.395  -6.658  24.443  0.00  0.00    +0.365 C 
ATOM     51  O   UNL     1       4.280  -7.456  24.187  0.00  0.00    -0.245 OA
BRANCH  50  52
ATOM     52  O   UNL     1       2.222  -7.047  25.026  0.00  0.00    -0.477 OA
ATOM     53  H   UNL     1       1.865  -6.279  25.521  0.00  0.00    +0.295 HD
ENDBRANCH  50  52
ENDBRANCH  48  50
BRANCH  48  54
ATOM     54  O   UNL     1       3.788  -4.696  22.904  0.00  0.00    -0.243 OA
BRANCH  54  55
ATOM     55  P   UNL     1       5.300  -4.362  22.530  0.00  0.00    +0.475 P 
ATOM     56  O   UNL     1       5.771  -4.290  21.132  0.00  0.00    -0.227 OA
BRANCH  55  57
ATOM     57  O   UNL     1       5.405  -2.959  23.303  0.00  0.00    -0.303 OA
ATOM     58  H   UNL     1       6.328  -2.759  23.526  0.00  0.00    +0.222 HD
ENDBRANCH  55  57
BRANCH  55  59
ATOM     59  O   UNL     1       6.152  -5.226  23.562  0.00  0.00    -0.303 OA
ATOM     60  H   UNL     1       5.983  -4.884  24.457  0.00  0.00    +0.222 HD
ENDBRANCH  55  59
ENDBRANCH  54  55
ENDBRANCH  48  54
ENDBRANCH  47  48
ENDBRANCH   2  47
TORSDOF 24
ENDMDL
MODEL 7
REMARK VINA RESULT:      -6.5      2.578      8.234
REMARK  Name = 
REMARK  26 active torsions:
REMARK  status: ('A' for Active; 'I' for Inactive)
REMARK    1  A    between atoms: C_1  and  C_2
REMARK    2  A    between atoms: N_4  and  C_5
REMARK    3  A    between atoms: C_7  and  O_9
REMARK    4  A    between atoms: O_9  and  P_10
REMARK    5  A    between atoms: P_10  and  O_11
REMARK    6  A    between atoms: P_10  and  O_13
REMARK    7  A    between atoms: O_13  and  P_14
REMARK    8  A    between atoms: P_14  and  O_15
REMARK    9  A    between atoms: P_14  and  O_17
REMARK   10  A    between atoms: O_17  and  C_18
REMARK   11  A    between atoms: C_18  and  C_19
REMARK   12  A    between atoms: C_22  and  N_30
REMARK   13  A    between atoms: C_24  and  O_26
REMARK   14  A    between atoms: C_27  and  O_29
REMARK   15  A    between atoms: C_39  and  C_41
REMARK   16  A    between atoms: C_41  and  O_42
REMARK   17  A    between atoms: C_43  and  O_45
REMARK   18  A    between atoms: C_46  and  O_48
REMARK   19  A    between atoms: O_48  and  C_49
REMARK   20  A    between atoms: C_49  and  C_50
REMARK   21  A    between atoms: C_49  and  O_51
REMARK   22  A    between atoms: C_49  and  C_56
REMARK   23  A    between atoms: O_51  and  P_52
REMARK   24  A    between atoms: P_52  and  O_53
REMARK   25  A    between atoms: P_52  and  O_54
REMARK   26  A    between atoms: C_56  and  O_57
REMARK                            x       y       z     vdW  Elec       q    Type
REMARK                         _______ _______ _______ _____ _____    ______ ____
ROOT
ATOM      1  C   UNL     1       5.784   2.793  23.161  0.00  0.00    +0.161 C 
ATOM      2  C   UNL     1       5.764   3.371  24.620  0.00  0.00    +0.178 C 
ATOM      3  C   UNL     1       6.240   4.822  24.490  0.00  0.00    +0.176 C 
ATOM      4  C   UNL     1       7.650   4.899  23.881  0.00  0.00    +0.178 C 
ATOM      5  O   UNL     1       7.767   4.167  22.642  0.00  0.00    -0.341 OA
ATOM      6  C   UNL     1       7.218   2.829  22.606  0.00  0.00    +0.285 C 
ENDROOT
BRANCH   1   9
ATOM      7  C   UNL     1       2.697   3.841  21.210  0.00  0.00    +0.109 C 
ATOM      8  C   UNL     1       3.509   3.333  22.367  0.00  0.00    +0.210 C 
ATOM      9  N   UNL     1       4.871   3.445  22.210  0.00  0.00    -0.305 N 
ATOM     10  H   UNL     1       5.231   3.755  21.314  0.00  0.00    +0.149 HD
ATOM     11  O   UNL     1       3.007   2.834  23.369  0.00  0.00    -0.276 OA
ENDBRANCH   1   9
BRANCH   3  12
ATOM     12  O   UNL     1       6.126   5.529  25.711  0.00  0.00    -0.387 OA
ATOM     13  H   UNL     1       6.966   5.498  26.198  0.00  0.00    +0.210 HD
ENDBRANCH   3  12
BRANCH   4  14
ATOM     14  C   UNL     1       8.824   4.560  24.805  0.00  0.00    +0.190 C 
BRANCH  14  15
ATOM     15  O   UNL     1       8.863   5.501  25.887  0.00  0.00    -0.392 OA
ATOM     16  H   UNL     1       8.520   5.032  26.670  0.00  0.00    +0.210 HD
ENDBRANCH  14  15
ENDBRANCH   4  14
BRANCH   6  17
ATOM     17  O   UNL     1       8.042   1.849  23.196  0.00  0.00    -0.254 OA
BRANCH  17  18
ATOM     18  P   UNL     1       9.204   1.066  22.296  0.00  0.00    +0.486 P 
ATOM     19  O   UNL     1       8.561   1.165  20.898  0.00  0.00    -0.227 OA
BRANCH  18  20
ATOM     20  O   UNL     1       9.901   2.615  21.962  0.00  0.00    -0.302 OA
ATOM     21  H   UNL     1       9.197   3.119  21.489  0.00  0.00    +0.222 HD
ENDBRANCH  18  20
BRANCH  18  22
ATOM     22  O   UNL     1       8.508  -0.482  22.630  0.00  0.00    -0.186 OA
BRANCH  22  23
ATOM     23  P   UNL     1       9.755  -1.517  23.236  0.00  0.00    +0.483 P 
ATOM     24  O   UNL     1      10.861  -1.518  22.177  0.00  0.00    -0.227 OA
BRANCH  23  25
ATOM     25  O   UNL     1      10.550  -0.150  23.938  0.00  0.00    -0.302 OA
ATOM     26  H   UNL     1      10.820   0.379  23.158  0.00  0.00    +0.222 HD
ENDBRANCH  23  25
BRANCH  23  27
ATOM     27  O   UNL     1       8.960  -2.884  22.535  0.00  0.00    -0.284 OA
BRANCH  27  28
ATOM     28  C   UNL     1       7.659  -3.225  23.027  0.00  0.00    +0.206 C 
BRANCH  28  29
ATOM     29  C   UNL     1       7.548  -4.649  23.649  0.00  0.00    +0.178 C 
ATOM     30  C   UNL     1       8.487  -4.904  24.826  0.00  0.00    +0.178 C 
ATOM     31  C   UNL     1       7.598  -5.290  26.000  0.00  0.00    +0.195 C 
ATOM     32  C   UNL     1       6.167  -5.008  25.513  0.00  0.00    +0.255 C 
ATOM     33  O   UNL     1       6.207  -4.966  24.075  0.00  0.00    -0.346 OA
BRANCH  32  34
ATOM     34  N   UNL     1       5.125  -5.926  26.024  0.00  0.00    -0.271 N 
ATOM     35  C   UNL     1       4.593  -5.647  27.284  0.00  0.00    +0.331 A 
ATOM     36  O   UNL     1       5.133  -4.877  28.077  0.00  0.00    -0.246 OA
ATOM     37  N   UNL     1       3.403  -6.249  27.597  0.00  0.00    -0.275 N 
ATOM     38  H   UNL     1       2.916  -5.897  28.413  0.00  0.00    +0.173 HD
ATOM     39  C   UNL     1       2.682  -7.052  26.768  0.00  0.00    +0.254 A 
ATOM     40  O   UNL     1       1.538  -7.424  27.000  0.00  0.00    -0.268 OA
ATOM     41  C   UNL     1       3.377  -7.468  25.540  0.00  0.00    +0.088 A 
ATOM     42  C   UNL     1       4.527  -6.871  25.211  0.00  0.00    +0.098 A 
ENDBRANCH  32  34
BRANCH  31  43
ATOM     43  O   UNL     1       7.955  -4.492  27.136  0.00  0.00    -0.385 OA
ATOM     44  H   UNL     1       7.751  -5.054  27.919  0.00  0.00    +0.210 HD
ENDBRANCH  31  43
BRANCH  30  45
ATOM     45  O   UNL     1       9.383  -5.984  24.513  0.00  0.00    -0.386 OA
ATOM     46  H   UNL     1       9.885  -6.221  25.313  0.00  0.00    +0.210 HD
ENDBRANCH  30  45
ENDBRANCH  28  29
ENDBRANCH  27  28
ENDBRANCH  23  27
ENDBRANCH  22  23
ENDBRANCH  18  22
ENDBRANCH  17  18
ENDBRANCH   6  17
BRANCH   2  47
ATOM     47  O   UNL     1       6.622   2.534  25.434  0.00  0.00    -0.332 OA
BRANCH  47  48
ATOM     48  C   UNL     1       6.231   2.095  26.778  0.00  0.00    +0.276 C 
ATOM     49  C   UNL     1       4.765   2.544  26.924  0.00  0.00    +0.087 C 
BRANCH  48  50
ATOM     50  C   UNL     1       7.095   2.908  27.783  0.00  0.00    +0.365 C 
ATOM     51  O   UNL     1       7.270   4.115  27.785  0.00  0.00    -0.245 OA
BRANCH  50  52
ATOM     52  O   UNL     1       7.679   2.095  28.713  0.00  0.00    -0.477 OA
ATOM     53  H   UNL     1       8.359   2.620  29.186  0.00  0.00    +0.295 HD
ENDBRANCH  50  52
ENDBRANCH  48  50
BRANCH  48  54
ATOM     54  O   UNL     1       6.218   0.714  26.893  0.00  0.00    -0.243 OA
BRANCH  54  55
ATOM     55  P   UNL     1       7.309  -0.209  26.191  0.00  0.00    +0.475 P 
ATOM     56  O   UNL     1       7.590  -1.587  26.647  0.00  0.00    -0.227 OA
BRANCH  55  57
ATOM     57  O   UNL     1       6.713  -0.149  24.701  0.00  0.00    -0.303 OA
ATOM     58  H   UNL     1       7.387   0.160  24.075  0.00  0.00    +0.222 HD
ENDBRANCH  55  57
BRANCH  55  59
ATOM     59  O   UNL     1       8.546   0.766  25.954  0.00  0.00    -0.303 OA
ATOM     60  H   UNL     1       9.364   0.260  26.101  0.00  0.00    +0.222 HD
ENDBRANCH  55  59
ENDBRANCH  54  55
ENDBRANCH  48  54
ENDBRANCH  47  48
ENDBRANCH   2  47
TORSDOF 24
ENDMDL
MODEL 8
REMARK VINA RESULT:      -6.5      2.202      8.470
REMARK  Name = 
REMARK  26 active torsions:
REMARK  status: ('A' for Active; 'I' for Inactive)
REMARK    1  A    between atoms: C_1  and  C_2
REMARK    2  A    between atoms: N_4  and  C_5
REMARK    3  A    between atoms: C_7  and  O_9
REMARK    4  A    between atoms: O_9  and  P_10
REMARK    5  A    between atoms: P_10  and  O_11
REMARK    6  A    between atoms: P_10  and  O_13
REMARK    7  A    between atoms: O_13  and  P_14
REMARK    8  A    between atoms: P_14  and  O_15
REMARK    9  A    between atoms: P_14  and  O_17
REMARK   10  A    between atoms: O_17  and  C_18
REMARK   11  A    between atoms: C_18  and  C_19
REMARK   12  A    between atoms: C_22  and  N_30
REMARK   13  A    between atoms: C_24  and  O_26
REMARK   14  A    between atoms: C_27  and  O_29
REMARK   15  A    between atoms: C_39  and  C_41
REMARK   16  A    between atoms: C_41  and  O_42
REMARK   17  A    between atoms: C_43  and  O_45
REMARK   18  A    between atoms: C_46  and  O_48
REMARK   19  A    between atoms: O_48  and  C_49
REMARK   20  A    between atoms: C_49  and  C_50
REMARK   21  A    between atoms: C_49  and  O_51
REMARK   22  A    between atoms: C_49  and  C_56
REMARK   23  A    between atoms: O_51  and  P_52
REMARK   24  A    between atoms: P_52  and  O_53
REMARK   25  A    between atoms: P_52  and  O_54
REMARK   26  A    between atoms: C_56  and  O_57
REMARK                            x       y       z     vdW  Elec       q    Type
REMARK                         _______ _______ _______ _____ _____    ______ ____
ROOT
ATOM      1  C   UNL     1       7.196   2.163  26.370  0.00  0.00    +0.161 C 
ATOM      2  C   UNL     1       8.047   2.628  25.137  0.00  0.00    +0.178 C 
ATOM      3  C   UNL     1       7.379   3.917  24.644  0.00  0.00    +0.176 C 
ATOM      4  C   UNL     1       5.913   3.677  24.250  0.00  0.00    +0.178 C 
ATOM      5  O   UNL     1       5.152   3.023  25.288  0.00  0.00    -0.341 OA
ATOM      6  C   UNL     1       5.751   1.872  25.928  0.00  0.00    +0.285 C 
ENDROOT
BRANCH   1   9
ATOM      7  C   UNL     1       6.843   3.647  29.850  0.00  0.00    +0.109 C 
ATOM      8  C   UNL     1       7.077   2.601  28.797  0.00  0.00    +0.210 C 
ATOM      9  N   UNL     1       7.185   3.087  27.515  0.00  0.00    -0.305 N 
ATOM     10  H   UNL     1       7.001   4.071  27.353  0.00  0.00    +0.149 HD
ATOM     11  O   UNL     1       7.146   1.402  29.049  0.00  0.00    -0.276 OA
ENDBRANCH   1   9
BRANCH   3  12
ATOM     12  O   UNL     1       8.130   4.547  23.623  0.00  0.00    -0.387 OA
ATOM     13  H   UNL     1       7.727   5.398  23.385  0.00  0.00    +0.210 HD
ENDBRANCH   3  12
BRANCH   4  14
ATOM     14  C   UNL     1       5.661   2.990  22.902  0.00  0.00    +0.190 C 
BRANCH  14  15
ATOM     15  O   UNL     1       6.233   3.784  21.853  0.00  0.00    -0.392 OA
ATOM     16  H   UNL     1       6.607   4.576  22.282  0.00  0.00    +0.210 HD
ENDBRANCH  14  15
ENDBRANCH   4  14
BRANCH   6  17
ATOM     17  O   UNL     1       5.652   0.679  25.184  0.00  0.00    -0.254 OA
BRANCH  17  18
ATOM     18  P   UNL     1       5.456  -0.785  25.954  0.00  0.00    +0.486 P 
ATOM     19  O   UNL     1       5.086  -1.667  24.745  0.00  0.00    -0.227 OA
BRANCH  18  20
ATOM     20  O   UNL     1       7.105  -1.140  25.566  0.00  0.00    -0.302 OA
ATOM     21  H   UNL     1       7.548  -1.296  26.434  0.00  0.00    +0.222 HD
ENDBRANCH  18  20
BRANCH  18  22
ATOM     22  O   UNL     1       3.809  -0.430  26.343  0.00  0.00    -0.186 OA
BRANCH  22  23
ATOM     23  P   UNL     1       3.121  -1.820  27.108  0.00  0.00    +0.483 P 
ATOM     24  O   UNL     1       2.481  -1.320  28.407  0.00  0.00    -0.227 OA
BRANCH  23  25
ATOM     25  O   UNL     1       1.606  -1.495  26.340  0.00  0.00    -0.302 OA
ATOM     26  H   UNL     1       1.441  -2.306  25.814  0.00  0.00    +0.222 HD
ENDBRANCH  23  25
BRANCH  23  27
ATOM     27  O   UNL     1       4.636  -2.146  27.877  0.00  0.00    -0.284 OA
BRANCH  27  28
ATOM     28  C   UNL     1       4.804  -3.420  28.509  0.00  0.00    +0.206 C 
BRANCH  28  29
ATOM     29  C   UNL     1       5.776  -4.391  27.774  0.00  0.00    +0.178 C 
ATOM     30  C   UNL     1       5.603  -5.863  28.143  0.00  0.00    +0.178 C 
ATOM     31  C   UNL     1       5.307  -6.593  26.840  0.00  0.00    +0.195 C 
ATOM     32  C   UNL     1       5.083  -5.474  25.809  0.00  0.00    +0.255 C 
ATOM     33  O   UNL     1       5.689  -4.280  26.338  0.00  0.00    -0.346 OA
BRANCH  32  34
ATOM     34  N   UNL     1       5.532  -5.774  24.432  0.00  0.00    -0.271 N 
ATOM     35  C   UNL     1       4.617  -6.404  23.586  0.00  0.00    +0.331 A 
ATOM     36  O   UNL     1       3.600  -6.958  24.004  0.00  0.00    -0.246 OA
ATOM     37  N   UNL     1       4.880  -6.350  22.244  0.00  0.00    -0.275 N 
ATOM     38  H   UNL     1       4.128  -6.621  21.620  0.00  0.00    +0.173 HD
ATOM     39  C   UNL     1       5.929  -5.698  21.670  0.00  0.00    +0.254 A 
ATOM     40  O   UNL     1       6.038  -5.507  20.465  0.00  0.00    -0.268 OA
ATOM     41  C   UNL     1       6.959  -5.226  22.607  0.00  0.00    +0.088 A 
ATOM     42  C   UNL     1       6.705  -5.251  23.919  0.00  0.00    +0.098 A 
ENDBRANCH  32  34
BRANCH  31  43
ATOM     43  O   UNL     1       4.143  -7.410  27.019  0.00  0.00    -0.385 OA
ATOM     44  H   UNL     1       3.875  -7.678  26.109  0.00  0.00    +0.210 HD
ENDBRANCH  31  43
BRANCH  30  45
ATOM     45  O   UNL     1       6.818  -6.367  28.722  0.00  0.00    -0.386 OA
ATOM     46  H   UNL     1       6.956  -5.942  29.588  0.00  0.00    +0.210 HD
ENDBRANCH  30  45
ENDBRANCH  28  29
ENDBRANCH  27  28
ENDBRANCH  23  27
ENDBRANCH  22  23
ENDBRANCH  18  22
ENDBRANCH  17  18
ENDBRANCH   6  17
BRANCH   2  47
ATOM     47  O   UNL     1       8.041   1.549  24.170  0.00  0.00    -0.332 OA
BRANCH  47  48
ATOM     48  C   UNL     1       9.261   1.120  23.478  0.00  0.00    +0.276 C 
ATOM     49  C   UNL     1      10.400   1.875  24.190  0.00  0.00    +0.087 C 
BRANCH  48  50
ATOM     50  C   UNL     1       9.159   1.649  22.019  0.00  0.00    +0.365 C 
ATOM     51  O   UNL     1       8.194   1.563  21.279  0.00  0.00    -0.245 OA
BRANCH  50  52
ATOM     52  O   UNL     1      10.321   2.248  21.622  0.00  0.00    -0.477 OA
ATOM     53  H   UNL     1      11.022   1.563  21.611  0.00  0.00    +0.295 HD
ENDBRANCH  50  52
ENDBRANCH  48  50
BRANCH  48  54
ATOM     54  O   UNL     1       9.523  -0.228  23.668  0.00  0.00    -0.243 OA
BRANCH  54  55
ATOM     55  P   UNL     1       8.863  -1.359  22.762  0.00  0.00    +0.475 P 
ATOM     56  O   UNL     1       9.457  -1.792  21.480  0.00  0.00    -0.227 OA
BRANCH  55  57
ATOM     57  O   UNL     1       8.830  -2.525  23.866  0.00  0.00    -0.303 OA
ATOM     58  H   UNL     1       8.003  -3.028  23.807  0.00  0.00    +0.222 HD
ENDBRANCH  55  57
BRANCH  55  59
ATOM     59  O   UNL     1       7.308  -1.015  22.785  0.00  0.00    -0.303 OA
ATOM     60  H   UNL     1       7.211  -0.055  22.914  0.00  0.00    +0.222 HD
ENDBRANCH  55  59
ENDBRANCH  54  55
ENDBRANCH  48  54
ENDBRANCH  47  48
ENDBRANCH   2  47
TORSDOF 24
ENDMDL
MODEL 9
REMARK VINA RESULT:      -6.5      2.621      5.455
REMARK  Name = 
REMARK  26 active torsions:
REMARK  status: ('A' for Active; 'I' for Inactive)
REMARK    1  A    between atoms: C_1  and  C_2
REMARK    2  A    between atoms: N_4  and  C_5
REMARK    3  A    between atoms: C_7  and  O_9
REMARK    4  A    between atoms: O_9  and  P_10
REMARK    5  A    between atoms: P_10  and  O_11
REMARK    6  A    between atoms: P_10  and  O_13
REMARK    7  A    between atoms: O_13  and  P_14
REMARK    8  A    between atoms: P_14  and  O_15
REMARK    9  A    between atoms: P_14  and  O_17
REMARK   10  A    between atoms: O_17  and  C_18
REMARK   11  A    between atoms: C_18  and  C_19
REMARK   12  A    between atoms: C_22  and  N_30
REMARK   13  A    between atoms: C_24  and  O_26
REMARK   14  A    between atoms: C_27  and  O_29
REMARK   15  A    between atoms: C_39  and  C_41
REMARK   16  A    between atoms: C_41  and  O_42
REMARK   17  A    between atoms: C_43  and  O_45
REMARK   18  A    between atoms: C_46  and  O_48
REMARK   19  A    between atoms: O_48  and  C_49
REMARK   20  A    between atoms: C_49  and  C_50
REMARK   21  A    between atoms: C_49  and  O_51
REMARK   22  A    between atoms: C_49  and  C_56
REMARK   23  A    between atoms: O_51  and  P_52
REMARK   24  A    between atoms: P_52  and  O_53
REMARK   25  A    between atoms: P_52  and  O_54
REMARK   26  A    between atoms: C_56  and  O_57
REMARK                            x       y       z     vdW  Elec       q    Type
REMARK                         _______ _______ _______ _____ _____    ______ ____
ROOT
ATOM      1  C   UNL     1       3.237  -4.732  25.489  0.00  0.00    +0.161 C 
ATOM      2  C   UNL     1       4.693  -5.257  25.741  0.00  0.00    +0.178 C 
ATOM      3  C   UNL     1       4.582  -6.206  26.939  0.00  0.00    +0.176 C 
ATOM      4  C   UNL     1       4.030  -5.485  28.179  0.00  0.00    +0.178 C 
ATOM      5  O   UNL     1       2.797  -4.782  27.917  0.00  0.00    -0.341 OA
ATOM      6  C   UNL     1       2.739  -3.963  26.725  0.00  0.00    +0.285 C 
ENDROOT
BRANCH   1   9
ATOM      7  C   UNL     1       0.700  -6.823  23.585  0.00  0.00    +0.109 C 
ATOM      8  C   UNL     1       1.876  -5.914  23.802  0.00  0.00    +0.210 C 
ATOM      9  N   UNL     1       2.250  -5.757  25.116  0.00  0.00    -0.305 N 
ATOM     10  H   UNL     1       1.666  -6.166  25.838  0.00  0.00    +0.149 HD
ATOM     11  O   UNL     1       2.449  -5.333  22.885  0.00  0.00    -0.276 OA
ENDBRANCH   1   9
BRANCH   3  12
ATOM     12  O   UNL     1       5.797  -6.887  27.192  0.00  0.00    -0.387 OA
ATOM     13  H   UNL     1       6.010  -7.482  26.455  0.00  0.00    +0.210 HD
ENDBRANCH   3  12
BRANCH   4  14
ATOM     14  C   UNL     1       5.000  -4.577  28.943  0.00  0.00    +0.190 C 
BRANCH  14  15
ATOM     15  O   UNL     1       6.083  -5.367  29.456  0.00  0.00    -0.392 OA
ATOM     16  H   UNL     1       6.048  -6.218  28.981  0.00  0.00    +0.210 HD
ENDBRANCH  14  15
ENDBRANCH   4  14
BRANCH   6  17
ATOM     17  O   UNL     1       3.361  -2.705  26.855  0.00  0.00    -0.254 OA
BRANCH  17  18
ATOM     18  P   UNL     1       2.492  -1.379  27.364  0.00  0.00    +0.486 P 
ATOM     19  O   UNL     1       1.420  -1.329  26.255  0.00  0.00    -0.227 OA
BRANCH  18  20
ATOM     20  O   UNL     1       1.429  -2.468  28.187  0.00  0.00    -0.302 OA
ATOM     21  H   UNL     1       1.994  -2.930  28.852  0.00  0.00    +0.222 HD
ENDBRANCH  18  20
BRANCH  18  22
ATOM     22  O   UNL     1       3.554  -0.290  26.541  0.00  0.00    -0.186 OA
BRANCH  22  23
ATOM     23  P   UNL     1       3.223   1.314  27.097  0.00  0.00    +0.483 P 
ATOM     24  O   UNL     1       2.206   1.905  26.116  0.00  0.00    -0.227 OA
BRANCH  23  25
ATOM     25  O   UNL     1       1.873   0.722  28.002  0.00  0.00    -0.302 OA
ATOM     26  H   UNL     1       1.627  -0.101  27.530  0.00  0.00    +0.222 HD
ENDBRANCH  23  25
BRANCH  23  27
ATOM     27  O   UNL     1       4.573   1.907  26.193  0.00  0.00    -0.284 OA
BRANCH  27  28
ATOM     28  C   UNL     1       4.305   2.609  24.974  0.00  0.00    +0.206 C 
BRANCH  28  29
ATOM     29  C   UNL     1       5.319   2.333  23.824  0.00  0.00    +0.178 C 
ATOM     30  C   UNL     1       6.108   3.556  23.365  0.00  0.00    +0.178 C 
ATOM     31  C   UNL     1       7.578   3.205  23.546  0.00  0.00    +0.195 C 
ATOM     32  C   UNL     1       7.567   1.881  24.330  0.00  0.00    +0.255 C 
ATOM     33  O   UNL     1       6.265   1.295  24.156  0.00  0.00    -0.346 OA
BRANCH  32  34
ATOM     34  N   UNL     1       8.660   0.938  24.007  0.00  0.00    -0.271 N 
ATOM     35  C   UNL     1       8.914  -0.082  24.927  0.00  0.00    +0.331 A 
ATOM     36  O   UNL     1       8.482  -0.059  26.079  0.00  0.00    -0.246 OA
ATOM     37  N   UNL     1       9.647  -1.148  24.478  0.00  0.00    -0.275 N 
ATOM     38  H   UNL     1       9.660  -1.972  25.067  0.00  0.00    +0.173 HD
ATOM     39  C   UNL     1      10.104  -1.312  23.206  0.00  0.00    +0.254 A 
ATOM     40  O   UNL     1      10.592  -2.354  22.784  0.00  0.00    -0.268 OA
ATOM     41  C   UNL     1       9.982  -0.130  22.340  0.00  0.00    +0.088 A 
ATOM     42  C   UNL     1       9.249   0.907  22.756  0.00  0.00    +0.098 A 
ENDBRANCH  32  34
BRANCH  31  43
ATOM     43  O   UNL     1       8.223   4.261  24.269  0.00  0.00    -0.385 OA
ATOM     44  H   UNL     1       8.317   3.922  25.190  0.00  0.00    +0.210 HD
ENDBRANCH  31  43
BRANCH  30  45
ATOM     45  O   UNL     1       5.835   3.822  21.978  0.00  0.00    -0.386 OA
ATOM     46  H   UNL     1       6.624   3.598  21.452  0.00  0.00    +0.210 HD
ENDBRANCH  30  45
ENDBRANCH  28  29
ENDBRANCH  27  28
ENDBRANCH  23  27
ENDBRANCH  22  23
ENDBRANCH  18  22
ENDBRANCH  17  18
ENDBRANCH   6  17
BRANCH   2  47
ATOM     47  O   UNL     1       5.541  -4.105  25.971  0.00  0.00    -0.332 OA
BRANCH  47  48
ATOM     48  C   UNL     1       6.876  -3.991  25.374  0.00  0.00    +0.276 C 
ATOM     49  C   UNL     1       6.988  -5.206  24.434  0.00  0.00    +0.087 C 
BRANCH  48  50
ATOM     50  C   UNL     1       7.900  -4.170  26.531  0.00  0.00    +0.365 C 
ATOM     51  O   UNL     1       8.016  -5.141  27.258  0.00  0.00    -0.245 OA
BRANCH  50  52
ATOM     52  O   UNL     1       8.699  -3.069  26.667  0.00  0.00    -0.477 OA
ATOM     53  H   UNL     1       9.488  -3.201  26.101  0.00  0.00    +0.295 HD
ENDBRANCH  50  52
ENDBRANCH  48  50
BRANCH  48  54
ATOM     54  O   UNL     1       6.992  -2.873  24.564  0.00  0.00    -0.243 OA
BRANCH  54  55
ATOM     55  P   UNL     1       5.844  -2.431  23.553  0.00  0.00    +0.475 P 
ATOM     56  O   UNL     1       5.028  -3.411  22.807  0.00  0.00    -0.227 OA
BRANCH  55  57
ATOM     57  O   UNL     1       4.984  -1.547  24.580  0.00  0.00    -0.303 OA
ATOM     58  H   UNL     1       5.133  -0.600  24.425  0.00  0.00    +0.222 HD
ENDBRANCH  55  57
BRANCH  55  59
ATOM     59  O   UNL     1       6.490  -1.224  22.738  0.00  0.00    -0.303 OA
ATOM     60  H   UNL     1       6.331  -0.403  23.235  0.00  0.00    +0.222 HD
ENDBRANCH  55  59
ENDBRANCH  54  55
ENDBRANCH  48  54
ENDBRANCH  47  48
ENDBRANCH   2  47
TORSDOF 24
ENDMDL
