MODEL 1
REMARK VINA RESULT:      -7.3      0.000      0.000
REMARK  Name = 
REMARK  10 active torsions:
REMARK  status: ('A' for Active; 'I' for Inactive)
REMARK    1  A    between atoms: CA_2  and  N_3
REMARK    2  A    between atoms: CA_2  and  C_4
REMARK    3  A    between atoms: CA_2  and  C_22
REMARK    4  A    between atoms: C_4  and  C_5
REMARK    5  A    between atoms: C_7  and  N_8
REMARK    6  A    between atoms: C_9  and  C_10
REMARK    7  A    between atoms: C_10  and  C_11
REMARK    8  A    between atoms: C_17  and  O_18
REMARK    9  A    between atoms: C_20  and  O_21
REMARK   10  A    between atoms: C_22  and  O_23
REMARK                            x       y       z     vdW  Elec       q    Type
REMARK                         _______ _______ _______ _____ _____    ______ ____
ROOT
ATOM      1  C   UNL     1       6.124  -4.786  24.931  0.00  0.00    -0.002 A 
ATOM      2  C   UNL     1       6.340  -5.492  26.123  0.00  0.00    +0.124 A 
ATOM      3  C   UNL     1       7.597  -5.539  26.724  0.00  0.00    +0.093 A 
ATOM      4  C   UNL     1       8.655  -4.880  26.111  0.00  0.00    +0.146 A 
ATOM      5  C   UNL     1       8.482  -4.136  24.940  0.00  0.00    +0.105 A 
ATOM      6  C   UNL     1       7.198  -4.054  24.394  0.00  0.00    +0.038 A 
ENDROOT
BRANCH   2   7
ATOM      7  O   UNL     1       5.287  -6.146  26.702  0.00  0.00    -0.506 OA
ATOM      8  H   UNL     1       5.355  -7.092  26.483  0.00  0.00    +0.292 HD
ENDBRANCH   2   7
BRANCH   4   9
ATOM      9  O   UNL     1       9.901  -4.969  26.674  0.00  0.00    -0.505 OA
ATOM     10  H   UNL     1       9.716  -5.175  27.614  0.00  0.00    +0.292 HD
ENDBRANCH   4   9
BRANCH   5  11
ATOM     11  N   UNL     1       9.604  -3.489  24.379  0.00  0.00    -0.256 NA
ATOM     12  C   UNL     1       9.375  -2.537  23.526  0.00  0.00    +0.089 C 
BRANCH  12  13
ATOM     13  C   UNL     1      10.506  -1.819  22.839  0.00  0.00    +0.082 C 
BRANCH  13  14
ATOM     14  C   UNL     1      10.298  -0.330  22.904  0.00  0.00    -0.042 A 
ATOM     15  C   UNL     1      10.712   0.387  24.035  0.00  0.00    +0.004 A 
ATOM     16  C   UNL     1      10.582   1.775  24.078  0.00  0.00    +0.000 A 
ATOM     17  C   UNL     1      10.042   2.460  22.990  0.00  0.00    +0.000 A 
ATOM     18  C   UNL     1       9.630   1.760  21.860  0.00  0.00    +0.000 A 
ATOM     19  C   UNL     1       9.754   0.369  21.813  0.00  0.00    +0.004 A 
ENDBRANCH  13  14
ENDBRANCH  12  13
ENDBRANCH   5  11
BRANCH   1  20
ATOM     20  C   UNL     1       4.766  -4.789  24.255  0.00  0.00    +0.068 C 
BRANCH  20  21
ATOM     21  CA  UNL     1       4.537  -5.883  23.193  0.00  0.00    +0.165 C 
BRANCH  21  22
ATOM     22  N   UNL     1       4.549  -7.232  23.807  0.00  0.00    -0.318 NA
ATOM     23  H1  UNL     1       3.748  -7.781  23.495  0.00  0.00    +0.119 HD
ATOM     24  H2  UNL     1       5.415  -7.743  23.673  0.00  0.00    +0.119 HD
ENDBRANCH  21  22
BRANCH  21  25
ATOM     25  C   UNL     1       5.566  -5.783  22.050  0.00  0.00    +0.322 C 
ATOM     26  OXT UNL     1       5.648  -4.831  21.285  0.00  0.00    -0.249 OA
BRANCH  25  27
ATOM     27  O   UNL     1       6.375  -6.863  21.938  0.00  0.00    -0.480 OA
ATOM     28  H   UNL     1       7.031  -6.747  21.228  0.00  0.00    +0.295 HD
ENDBRANCH  25  27
ENDBRANCH  21  25
ENDBRANCH  20  21
ENDBRANCH   1  20
TORSDOF 10
ENDMDL
MODEL 2
REMARK VINA RESULT:      -7.0      1.601      1.768
REMARK  Name = 
REMARK  10 active torsions:
REMARK  status: ('A' for Active; 'I' for Inactive)
REMARK    1  A    between atoms: CA_2  and  N_3
REMARK    2  A    between atoms: CA_2  and  C_4
REMARK    3  A    between atoms: CA_2  and  C_22
REMARK    4  A    between atoms: C_4  and  C_5
REMARK    5  A    between atoms: C_7  and  N_8
REMARK    6  A    between atoms: C_9  and  C_10
REMARK    7  A    between atoms: C_10  and  C_11
REMARK    8  A    between atoms: C_17  and  O_18
REMARK    9  A    between atoms: C_20  and  O_21
REMARK   10  A    between atoms: C_22  and  O_23
REMARK                            x       y       z     vdW  Elec       q    Type
REMARK                         _______ _______ _______ _____ _____    ______ ____
ROOT
ATOM      1  C   UNL     1       6.095  -5.066  25.293  0.00  0.00    -0.002 A 
ATOM      2  C   UNL     1       6.414  -5.510  26.584  0.00  0.00    +0.124 A 
ATOM      3  C   UNL     1       7.705  -5.388  27.097  0.00  0.00    +0.093 A 
ATOM      4  C   UNL     1       8.691  -4.826  26.297  0.00  0.00    +0.146 A 
ATOM      5  C   UNL     1       8.414  -4.339  25.015  0.00  0.00    +0.105 A 
ATOM      6  C   UNL     1       7.098  -4.417  24.551  0.00  0.00    +0.038 A 
ENDROOT
BRANCH   2   7
ATOM      7  O   UNL     1       5.430  -6.074  27.349  0.00  0.00    -0.506 OA
ATOM      8  H   UNL     1       4.732  -6.403  26.757  0.00  0.00    +0.292 HD
ENDBRANCH   2   7
BRANCH   4   9
ATOM      9  O   UNL     1       9.970  -4.753  26.781  0.00  0.00    -0.505 OA
ATOM     10  H   UNL     1      10.006  -3.872  27.210  0.00  0.00    +0.292 HD
ENDBRANCH   4   9
BRANCH   5  11
ATOM     11  N   UNL     1       9.467  -3.776  24.264  0.00  0.00    -0.256 NA
ATOM     12  C   UNL     1       9.257  -2.613  23.728  0.00  0.00    +0.089 C 
BRANCH  12  13
ATOM     13  C   UNL     1      10.303  -1.951  22.869  0.00  0.00    +0.082 C 
BRANCH  13  14
ATOM     14  C   UNL     1      10.199  -0.454  22.978  0.00  0.00    -0.042 A 
ATOM     15  C   UNL     1      10.563   0.190  24.169  0.00  0.00    +0.004 A 
ATOM     16  C   UNL     1      10.531   1.581  24.258  0.00  0.00    +0.000 A 
ATOM     17  C   UNL     1      10.141   2.343  23.157  0.00  0.00    +0.000 A 
ATOM     18  C   UNL     1       9.782   1.717  21.968  0.00  0.00    +0.000 A 
ATOM     19  C   UNL     1       9.807   0.322  21.873  0.00  0.00    +0.004 A 
ENDBRANCH  13  14
ENDBRANCH  12  13
ENDBRANCH   5  11
BRANCH   1  20
ATOM     20  C   UNL     1       4.702  -5.255  24.723  0.00  0.00    +0.068 C 
BRANCH  20  21
ATOM     21  CA  UNL     1       4.471  -6.542  23.905  0.00  0.00    +0.165 C 
BRANCH  21  22
ATOM     22  N   UNL     1       4.035  -6.224  22.524  0.00  0.00    -0.318 NA
ATOM     23  H1  UNL     1       4.744  -6.502  21.846  0.00  0.00    +0.119 HD
ATOM     24  H2  UNL     1       3.127  -6.603  22.277  0.00  0.00    +0.119 HD
ENDBRANCH  21  22
BRANCH  21  25
ATOM     25  C   UNL     1       3.469  -7.481  24.603  0.00  0.00    +0.322 C 
ATOM     26  OXT UNL     1       2.626  -8.143  24.011  0.00  0.00    -0.249 OA
BRANCH  25  27
ATOM     27  O   UNL     1       3.577  -7.502  25.952  0.00  0.00    -0.480 OA
ATOM     28  H   UNL     1       2.710  -7.402  26.384  0.00  0.00    +0.295 HD
ENDBRANCH  25  27
ENDBRANCH  21  25
ENDBRANCH  20  21
ENDBRANCH   1  20
TORSDOF 10
ENDMDL
MODEL 3
REMARK VINA RESULT:      -6.9      1.714      2.125
REMARK  Name = 
REMARK  10 active torsions:
REMARK  status: ('A' for Active; 'I' for Inactive)
REMARK    1  A    between atoms: CA_2  and  N_3
REMARK    2  A    between atoms: CA_2  and  C_4
REMARK    3  A    between atoms: CA_2  and  C_22
REMARK    4  A    between atoms: C_4  and  C_5
REMARK    5  A    between atoms: C_7  and  N_8
REMARK    6  A    between atoms: C_9  and  C_10
REMARK    7  A    between atoms: C_10  and  C_11
REMARK    8  A    between atoms: C_17  and  O_18
REMARK    9  A    between atoms: C_20  and  O_21
REMARK   10  A    between atoms: C_22  and  O_23
REMARK                            x       y       z     vdW  Elec       q    Type
REMARK                         _______ _______ _______ _____ _____    ______ ____
ROOT
ATOM      1  C   UNL     1       6.112  -4.811  24.967  0.00  0.00    -0.002 A 
ATOM      2  C   UNL     1       6.785  -5.587  25.922  0.00  0.00    +0.124 A 
ATOM      3  C   UNL     1       8.178  -5.625  25.978  0.00  0.00    +0.093 A 
ATOM      4  C   UNL     1       8.904  -4.886  25.053  0.00  0.00    +0.146 A 
ATOM      5  C   UNL     1       8.278  -4.072  24.103  0.00  0.00    +0.105 A 
ATOM      6  C   UNL     1       6.882  -4.004  24.110  0.00  0.00    +0.038 A 
ENDROOT
BRANCH   2   7
ATOM      7  O   UNL     1       6.050  -6.319  26.813  0.00  0.00    -0.506 OA
ATOM      8  H   UNL     1       5.628  -5.705  27.440  0.00  0.00    +0.292 HD
ENDBRANCH   2   7
BRANCH   4   9
ATOM      9  O   UNL     1      10.271  -4.963  25.076  0.00  0.00    -0.505 OA
ATOM     10  H   UNL     1      10.447  -5.909  25.261  0.00  0.00    +0.292 HD
ENDBRANCH   4   9
BRANCH   5  11
ATOM     11  N   UNL     1       9.083  -3.346  23.200  0.00  0.00    -0.256 NA
ATOM     12  C   UNL     1       8.638  -2.193  22.803  0.00  0.00    +0.089 C 
BRANCH  12  13
ATOM     13  C   UNL     1       9.403  -1.365  21.804  0.00  0.00    +0.082 C 
BRANCH  13  14
ATOM     14  C   UNL     1       9.882  -0.089  22.440  0.00  0.00    -0.042 A 
ATOM     15  C   UNL     1       9.697   1.136  21.782  0.00  0.00    +0.004 A 
ATOM     16  C   UNL     1      10.079   2.330  22.392  0.00  0.00    +0.000 A 
ATOM     17  C   UNL     1      10.645   2.314  23.666  0.00  0.00    +0.000 A 
ATOM     18  C   UNL     1      10.830   1.107  24.332  0.00  0.00    +0.000 A 
ATOM     19  C   UNL     1      10.454  -0.095  23.724  0.00  0.00    +0.004 A 
ENDBRANCH  13  14
ENDBRANCH  12  13
ENDBRANCH   5  11
BRANCH   1  20
ATOM     20  C   UNL     1       4.598  -4.822  24.877  0.00  0.00    +0.068 C 
BRANCH  20  21
ATOM     21  CA  UNL     1       3.983  -5.831  23.886  0.00  0.00    +0.165 C 
BRANCH  21  22
ATOM     22  N   UNL     1       2.921  -5.195  23.070  0.00  0.00    -0.318 NA
ATOM     23  H1  UNL     1       3.226  -5.077  22.104  0.00  0.00    +0.119 HD
ATOM     24  H2  UNL     1       2.024  -5.667  23.113  0.00  0.00    +0.119 HD
ENDBRANCH  21  22
BRANCH  21  25
ATOM     25  C   UNL     1       3.453  -7.083  24.611  0.00  0.00    +0.322 C 
ATOM     26  OXT UNL     1       3.356  -7.179  25.828  0.00  0.00    -0.249 OA
BRANCH  25  27
ATOM     27  O   UNL     1       3.115  -8.100  23.784  0.00  0.00    -0.480 OA
ATOM     28  H   UNL     1       2.218  -7.987  23.423  0.00  0.00    +0.295 HD
ENDBRANCH  25  27
ENDBRANCH  21  25
ENDBRANCH  20  21
ENDBRANCH   1  20
TORSDOF 10
ENDMDL
MODEL 4
REMARK VINA RESULT:      -6.7      1.929      3.922
REMARK  Name = 
REMARK  10 active torsions:
REMARK  status: ('A' for Active; 'I' for Inactive)
REMARK    1  A    between atoms: CA_2  and  N_3
REMARK    2  A    between atoms: CA_2  and  C_4
REMARK    3  A    between atoms: CA_2  and  C_22
REMARK    4  A    between atoms: C_4  and  C_5
REMARK    5  A    between atoms: C_7  and  N_8
REMARK    6  A    between atoms: C_9  and  C_10
REMARK    7  A    between atoms: C_10  and  C_11
REMARK    8  A    between atoms: C_17  and  O_18
REMARK    9  A    between atoms: C_20  and  O_21
REMARK   10  A    between atoms: C_22  and  O_23
REMARK                            x       y       z     vdW  Elec       q    Type
REMARK                         _______ _______ _______ _____ _____    ______ ____
ROOT
ATOM      1  C   UNL     1       5.862  -4.848  25.273  0.00  0.00    -0.002 A 
ATOM      2  C   UNL     1       5.224  -5.949  24.682  0.00  0.00    +0.124 A 
ATOM      3  C   UNL     1       5.246  -6.149  23.302  0.00  0.00    +0.093 A 
ATOM      4  C   UNL     1       5.903  -5.223  22.504  0.00  0.00    +0.146 A 
ATOM      5  C   UNL     1       6.581  -4.127  23.049  0.00  0.00    +0.105 A 
ATOM      6  C   UNL     1       6.596  -3.986  24.439  0.00  0.00    +0.038 A 
ENDROOT
BRANCH   2   7
ATOM      7  O   UNL     1       4.570  -6.841  25.487  0.00  0.00    -0.506 OA
ATOM      8  H   UNL     1       4.695  -7.734  25.121  0.00  0.00    +0.292 HD
ENDBRANCH   2   7
BRANCH   4   9
ATOM      9  O   UNL     1       5.881  -5.391  21.145  0.00  0.00    -0.505 OA
ATOM     10  H   UNL     1       5.591  -6.320  21.031  0.00  0.00    +0.292 HD
ENDBRANCH   4   9
BRANCH   5  11
ATOM     11  N   UNL     1       7.231  -3.231  22.173  0.00  0.00    -0.256 NA
ATOM     12  C   UNL     1       8.313  -2.660  22.605  0.00  0.00    +0.089 C 
BRANCH  12  13
ATOM     13  C   UNL     1       9.052  -1.653  21.763  0.00  0.00    +0.082 C 
BRANCH  13  14
ATOM     14  C   UNL     1       9.609  -0.555  22.628  0.00  0.00    -0.042 A 
ATOM     15  C   UNL     1       9.801   0.728  22.095  0.00  0.00    +0.004 A 
ATOM     16  C   UNL     1      10.256   1.767  22.905  0.00  0.00    +0.000 A 
ATOM     17  C   UNL     1      10.518   1.538  24.255  0.00  0.00    +0.000 A 
ATOM     18  C   UNL     1      10.328   0.271  24.797  0.00  0.00    +0.000 A 
ATOM     19  C   UNL     1       9.877  -0.777  23.990  0.00  0.00    +0.004 A 
ENDBRANCH  13  14
ENDBRANCH  12  13
ENDBRANCH   5  11
BRANCH   1  20
ATOM     20  C   UNL     1       5.783  -4.609  26.768  0.00  0.00    +0.068 C 
BRANCH  20  21
ATOM     21  CA  UNL     1       6.867  -5.294  27.624  0.00  0.00    +0.165 C 
BRANCH  21  22
ATOM     22  N   UNL     1       7.878  -5.961  26.770  0.00  0.00    -0.318 NA
ATOM     23  H1  UNL     1       8.354  -5.284  26.173  0.00  0.00    +0.119 HD
ATOM     24  H2  UNL     1       8.546  -6.529  27.280  0.00  0.00    +0.119 HD
ENDBRANCH  21  22
BRANCH  21  25
ATOM     25  C   UNL     1       6.249  -6.284  28.630  0.00  0.00    +0.322 C 
ATOM     26  OXT UNL     1       6.355  -6.179  29.845  0.00  0.00    -0.249 OA
BRANCH  25  27
ATOM     27  O   UNL     1       5.584  -7.314  28.056  0.00  0.00    -0.480 OA
ATOM     28  H   UNL     1       5.630  -8.119  28.602  0.00  0.00    +0.295 HD
ENDBRANCH  25  27
ENDBRANCH  21  25
ENDBRANCH  20  21
ENDBRANCH   1  20
TORSDOF 10
ENDMDL
MODEL 5
REMARK VINA RESULT:      -6.3      1.953      2.550
REMARK  Name = 
REMARK  10 active torsions:
REMARK  status: ('A' for Active; 'I' for Inactive)
REMARK    1  A    between atoms: CA_2  and  N_3
REMARK    2  A    between atoms: CA_2  and  C_4
REMARK    3  A    between atoms: CA_2  and  C_22
REMARK    4  A    between atoms: C_4  and  C_5
REMARK    5  A    between atoms: C_7  and  N_8
REMARK    6  A    between atoms: C_9  and  C_10
REMARK    7  A    between atoms: C_10  and  C_11
REMARK    8  A    between atoms: C_17  and  O_18
REMARK    9  A    between atoms: C_20  and  O_21
REMARK   10  A    between atoms: C_22  and  O_23
REMARK                            x       y       z     vdW  Elec       q    Type
REMARK                         _______ _______ _______ _____ _____    ______ ____
ROOT
ATOM      1  C   UNL     1       7.597  -4.484  23.497  0.00  0.00    -0.002 A 
ATOM      2  C   UNL     1       7.310  -4.481  24.870  0.00  0.00    +0.124 A 
ATOM      3  C   UNL     1       7.703  -3.426  25.694  0.00  0.00    +0.093 A 
ATOM      4  C   UNL     1       8.407  -2.368  25.133  0.00  0.00    +0.146 A 
ATOM      5  C   UNL     1       8.689  -2.311  23.764  0.00  0.00    +0.105 A 
ATOM      6  C   UNL     1       8.227  -3.352  22.952  0.00  0.00    +0.038 A 
ENDROOT
BRANCH   2   7
ATOM      7  O   UNL     1       6.628  -5.540  25.403  0.00  0.00    -0.506 OA
ATOM      8  H   UNL     1       6.946  -5.684  26.312  0.00  0.00    +0.292 HD
ENDBRANCH   2   7
BRANCH   4   9
ATOM      9  O   UNL     1       8.838  -1.358  25.951  0.00  0.00    -0.505 OA
ATOM     10  H   UNL     1       8.255  -0.605  25.717  0.00  0.00    +0.292 HD
ENDBRANCH   4   9
BRANCH   5  11
ATOM     11  N   UNL     1       9.403  -1.201  23.268  0.00  0.00    -0.256 NA
ATOM     12  C   UNL     1       8.898  -0.579  22.247  0.00  0.00    +0.089 C 
BRANCH  12  13
ATOM     13  C   UNL     1       9.611   0.589  21.616  0.00  0.00    +0.082 C 
BRANCH  13  14
ATOM     14  C   UNL     1       9.190   1.876  22.272  0.00  0.00    -0.042 A 
ATOM     15  C   UNL     1      10.046   2.511  23.183  0.00  0.00    +0.004 A 
ATOM     16  C   UNL     1       9.692   3.736  23.747  0.00  0.00    +0.000 A 
ATOM     17  C   UNL     1       8.484   4.341  23.403  0.00  0.00    +0.000 A 
ATOM     18  C   UNL     1       7.628   3.724  22.497  0.00  0.00    +0.000 A 
ATOM     19  C   UNL     1       7.974   2.493  21.932  0.00  0.00    +0.004 A 
ENDBRANCH  13  14
ENDBRANCH  12  13
ENDBRANCH   5  11
BRANCH   1  20
ATOM     20  C   UNL     1       7.216  -5.662  22.622  0.00  0.00    +0.068 C 
BRANCH  20  21
ATOM     21  CA  UNL     1       5.881  -5.539  21.860  0.00  0.00    +0.165 C 
BRANCH  21  22
ATOM     22  N   UNL     1       5.710  -4.177  21.300  0.00  0.00    -0.318 NA
ATOM     23  H1  UNL     1       5.771  -3.472  22.034  0.00  0.00    +0.119 HD
ATOM     24  H2  UNL     1       6.339  -3.960  20.534  0.00  0.00    +0.119 HD
ENDBRANCH  21  22
BRANCH  21  25
ATOM     25  C   UNL     1       4.685  -5.928  22.751  0.00  0.00    +0.322 C 
ATOM     26  OXT UNL     1       3.653  -5.275  22.832  0.00  0.00    -0.249 OA
BRANCH  25  27
ATOM     27  O   UNL     1       4.876  -7.059  23.470  0.00  0.00    -0.480 OA
ATOM     28  H   UNL     1       4.399  -7.029  24.319  0.00  0.00    +0.295 HD
ENDBRANCH  25  27
ENDBRANCH  21  25
ENDBRANCH  20  21
ENDBRANCH   1  20
TORSDOF 10
ENDMDL
MODEL 6
REMARK VINA RESULT:      -6.3      1.925      3.709
REMARK  Name = 
REMARK  10 active torsions:
REMARK  status: ('A' for Active; 'I' for Inactive)
REMARK    1  A    between atoms: CA_2  and  N_3
REMARK    2  A    between atoms: CA_2  and  C_4
REMARK    3  A    between atoms: CA_2  and  C_22
REMARK    4  A    between atoms: C_4  and  C_5
REMARK    5  A    between atoms: C_7  and  N_8
REMARK    6  A    between atoms: C_9  and  C_10
REMARK    7  A    between atoms: C_10  and  C_11
REMARK    8  A    between atoms: C_17  and  O_18
REMARK    9  A    between atoms: C_20  and  O_21
REMARK   10  A    between atoms: C_22  and  O_23
REMARK                            x       y       z     vdW  Elec       q    Type
REMARK                         _______ _______ _______ _____ _____    ______ ____
ROOT
ATOM      1  C   UNL     1       5.396  -5.854  25.114  0.00  0.00    -0.002 A 
ATOM      2  C   UNL     1       4.881  -6.330  23.899  0.00  0.00    +0.124 A 
ATOM      3  C   UNL     1       5.605  -6.229  22.712  0.00  0.00    +0.093 A 
ATOM      4  C   UNL     1       6.857  -5.628  22.743  0.00  0.00    +0.146 A 
ATOM      5  C   UNL     1       7.426  -5.168  23.935  0.00  0.00    +0.105 A 
ATOM      6  C   UNL     1       6.704  -5.340  25.120  0.00  0.00    +0.038 A 
ENDROOT
BRANCH   2   7
ATOM      7  O   UNL     1       3.640  -6.905  23.890  0.00  0.00    -0.506 OA
ATOM      8  H   UNL     1       2.974  -6.200  23.973  0.00  0.00    +0.292 HD
ENDBRANCH   2   7
BRANCH   4   9
ATOM      9  O   UNL     1       7.546  -5.482  21.568  0.00  0.00    -0.505 OA
ATOM     10  H   UNL     1       8.180  -4.759  21.760  0.00  0.00    +0.292 HD
ENDBRANCH   4   9
BRANCH   5  11
ATOM     11  N   UNL     1       8.705  -4.574  23.887  0.00  0.00    -0.256 NA
ATOM     12  C   UNL     1       8.762  -3.280  23.968  0.00  0.00    +0.089 C 
BRANCH  12  13
ATOM     13  C   UNL     1      10.077  -2.551  23.879  0.00  0.00    +0.082 C 
BRANCH  13  14
ATOM     14  C   UNL     1       9.893  -1.220  23.203  0.00  0.00    -0.042 A 
ATOM     15  C   UNL     1      10.292  -0.042  23.851  0.00  0.00    +0.004 A 
ATOM     16  C   UNL     1      10.185   1.189  23.207  0.00  0.00    +0.000 A 
ATOM     17  C   UNL     1       9.684   1.257  21.908  0.00  0.00    +0.000 A 
ATOM     18  C   UNL     1       9.289   0.096  21.251  0.00  0.00    +0.000 A 
ATOM     19  C   UNL     1       9.389  -1.142  21.893  0.00  0.00    +0.004 A 
ENDBRANCH  13  14
ENDBRANCH  12  13
ENDBRANCH   5  11
BRANCH   1  20
ATOM     20  C   UNL     1       4.577  -5.917  26.389  0.00  0.00    +0.068 C 
BRANCH  20  21
ATOM     21  CA  UNL     1       5.335  -6.334  27.665  0.00  0.00    +0.165 C 
BRANCH  21  22
ATOM     22  N   UNL     1       4.676  -7.489  28.322  0.00  0.00    -0.318 NA
ATOM     23  H1  UNL     1       5.151  -8.360  28.088  0.00  0.00    +0.119 HD
ATOM     24  H2  UNL     1       4.569  -7.391  29.326  0.00  0.00    +0.119 HD
ENDBRANCH  21  22
BRANCH  21  25
ATOM     25  C   UNL     1       5.490  -5.152  28.641  0.00  0.00    +0.322 C 
ATOM     26  OXT UNL     1       5.039  -4.033  28.436  0.00  0.00    -0.249 OA
BRANCH  25  27
ATOM     27  O   UNL     1       6.199  -5.446  29.756  0.00  0.00    -0.480 OA
ATOM     28  H   UNL     1       7.131  -5.177  29.670  0.00  0.00    +0.295 HD
ENDBRANCH  25  27
ENDBRANCH  21  25
ENDBRANCH  20  21
ENDBRANCH   1  20
TORSDOF 10
ENDMDL
MODEL 7
REMARK VINA RESULT:      -6.1      3.999      7.463
REMARK  Name = 
REMARK  10 active torsions:
REMARK  status: ('A' for Active; 'I' for Inactive)
REMARK    1  A    between atoms: CA_2  and  N_3
REMARK    2  A    between atoms: CA_2  and  C_4
REMARK    3  A    between atoms: CA_2  and  C_22
REMARK    4  A    between atoms: C_4  and  C_5
REMARK    5  A    between atoms: C_7  and  N_8
REMARK    6  A    between atoms: C_9  and  C_10
REMARK    7  A    between atoms: C_10  and  C_11
REMARK    8  A    between atoms: C_17  and  O_18
REMARK    9  A    between atoms: C_20  and  O_21
REMARK   10  A    between atoms: C_22  and  O_23
REMARK                            x       y       z     vdW  Elec       q    Type
REMARK                         _______ _______ _______ _____ _____    ______ ____
ROOT
ATOM      1  C   UNL     1       7.445   0.970  22.640  0.00  0.00    -0.002 A 
ATOM      2  C   UNL     1       8.570   1.397  21.919  0.00  0.00    +0.124 A 
ATOM      3  C   UNL     1       9.593   0.514  21.575  0.00  0.00    +0.093 A 
ATOM      4  C   UNL     1       9.491  -0.813  21.973  0.00  0.00    +0.146 A 
ATOM      5  C   UNL     1       8.374  -1.293  22.665  0.00  0.00    +0.105 A 
ATOM      6  C   UNL     1       7.335  -0.399  22.942  0.00  0.00    +0.038 A 
ENDROOT
BRANCH   2   7
ATOM      7  O   UNL     1       8.656   2.711  21.549  0.00  0.00    -0.506 OA
ATOM      8  H   UNL     1       7.787   3.126  21.688  0.00  0.00    +0.292 HD
ENDBRANCH   2   7
BRANCH   4   9
ATOM      9  O   UNL     1      10.519  -1.669  21.680  0.00  0.00    -0.505 OA
ATOM     10  H   UNL     1      11.139  -1.116  21.160  0.00  0.00    +0.292 HD
ENDBRANCH   4   9
BRANCH   5  11
ATOM     11  N   UNL     1       8.340  -2.655  23.031  0.00  0.00    -0.256 NA
ATOM     12  C   UNL     1       7.468  -3.408  22.434  0.00  0.00    +0.089 C 
BRANCH  12  13
ATOM     13  C   UNL     1       7.323  -4.864  22.790  0.00  0.00    +0.082 C 
BRANCH  13  14
ATOM     14  C   UNL     1       7.231  -5.031  24.283  0.00  0.00    -0.042 A 
ATOM     15  C   UNL     1       8.400  -5.166  25.047  0.00  0.00    +0.004 A 
ATOM     16  C   UNL     1       8.328  -5.257  26.436  0.00  0.00    +0.000 A 
ATOM     17  C   UNL     1       7.091  -5.208  27.077  0.00  0.00    +0.000 A 
ATOM     18  C   UNL     1       5.924  -5.070  26.331  0.00  0.00    +0.000 A 
ATOM     19  C   UNL     1       5.989  -4.984  24.938  0.00  0.00    +0.004 A 
ENDBRANCH  13  14
ENDBRANCH  12  13
ENDBRANCH   5  11
BRANCH   1  20
ATOM     20  C   UNL     1       6.367   1.951  23.059  0.00  0.00    +0.068 C 
BRANCH  20  21
ATOM     21  CA  UNL     1       6.365   2.366  24.544  0.00  0.00    +0.165 C 
BRANCH  21  22
ATOM     22  N   UNL     1       5.450   3.509  24.776  0.00  0.00    -0.318 NA
ATOM     23  H1  UNL     1       4.884   3.696  23.948  0.00  0.00    +0.119 HD
ATOM     24  H2  UNL     1       4.867   3.415  25.601  0.00  0.00    +0.119 HD
ENDBRANCH  21  22
BRANCH  21  25
ATOM     25  C   UNL     1       7.788   2.683  25.043  0.00  0.00    +0.322 C 
ATOM     26  OXT UNL     1       8.459   3.625  24.642  0.00  0.00    -0.249 OA
BRANCH  25  27
ATOM     27  O   UNL     1       8.260   1.808  25.962  0.00  0.00    -0.480 OA
ATOM     28  H   UNL     1       9.141   2.067  26.285  0.00  0.00    +0.295 HD
ENDBRANCH  25  27
ENDBRANCH  21  25
ENDBRANCH  20  21
ENDBRANCH   1  20
TORSDOF 10
ENDMDL
MODEL 8
REMARK VINA RESULT:      -6.1      4.313      8.281
REMARK  Name = 
REMARK  10 active torsions:
REMARK  status: ('A' for Active; 'I' for Inactive)
REMARK    1  A    between atoms: CA_2  and  N_3
REMARK    2  A    between atoms: CA_2  and  C_4
REMARK    3  A    between atoms: CA_2  and  C_22
REMARK    4  A    between atoms: C_4  and  C_5
REMARK    5  A    between atoms: C_7  and  N_8
REMARK    6  A    between atoms: C_9  and  C_10
REMARK    7  A    between atoms: C_10  and  C_11
REMARK    8  A    between atoms: C_17  and  O_18
REMARK    9  A    between atoms: C_20  and  O_21
REMARK   10  A    between atoms: C_22  and  O_23
REMARK                            x       y       z     vdW  Elec       q    Type
REMARK                         _______ _______ _______ _____ _____    ______ ____
ROOT
ATOM      1  C   UNL     1       8.470   1.336  23.488  0.00  0.00    -0.002 A 
ATOM      2  C   UNL     1       9.024   1.408  22.201  0.00  0.00    +0.124 A 
ATOM      3  C   UNL     1       9.687   0.322  21.632  0.00  0.00    +0.093 A 
ATOM      4  C   UNL     1       9.809  -0.848  22.371  0.00  0.00    +0.146 A 
ATOM      5  C   UNL     1       9.246  -0.979  23.644  0.00  0.00    +0.105 A 
ATOM      6  C   UNL     1       8.532   0.105  24.165  0.00  0.00    +0.038 A 
ENDROOT
BRANCH   2   7
ATOM      7  O   UNL     1       8.904   2.575  21.498  0.00  0.00    -0.506 OA
ATOM      8  H   UNL     1       8.868   3.313  22.130  0.00  0.00    +0.292 HD
ENDBRANCH   2   7
BRANCH   4   9
ATOM      9  O   UNL     1      10.505  -1.897  21.832  0.00  0.00    -0.505 OA
ATOM     10  H   UNL     1      11.440  -1.680  22.030  0.00  0.00    +0.292 HD
ENDBRANCH   4   9
BRANCH   5  11
ATOM     11  N   UNL     1       9.406  -2.201  24.331  0.00  0.00    -0.256 NA
ATOM     12  C   UNL     1       8.354  -2.949  24.465  0.00  0.00    +0.089 C 
BRANCH  12  13
ATOM     13  C   UNL     1       8.415  -4.249  25.223  0.00  0.00    +0.082 C 
BRANCH  13  14
ATOM     14  C   UNL     1       7.114  -4.994  25.089  0.00  0.00    -0.042 A 
ATOM     15  C   UNL     1       6.519  -5.147  23.828  0.00  0.00    +0.004 A 
ATOM     16  C   UNL     1       5.348  -5.889  23.685  0.00  0.00    +0.000 A 
ATOM     17  C   UNL     1       4.762  -6.492  24.798  0.00  0.00    +0.000 A 
ATOM     18  C   UNL     1       5.344  -6.352  26.054  0.00  0.00    +0.000 A 
ATOM     19  C   UNL     1       6.516  -5.604  26.205  0.00  0.00    +0.004 A 
ENDBRANCH  13  14
ENDBRANCH  12  13
ENDBRANCH   5  11
BRANCH   1  20
ATOM     20  C   UNL     1       7.801   2.541  24.120  0.00  0.00    +0.068 C 
BRANCH  20  21
ATOM     21  CA  UNL     1       8.717   3.479  24.932  0.00  0.00    +0.165 C 
BRANCH  21  22
ATOM     22  N   UNL     1       8.087   3.855  26.220  0.00  0.00    -0.318 NA
ATOM     23  H1  UNL     1       8.794   4.024  26.936  0.00  0.00    +0.119 HD
ATOM     24  H2  UNL     1       7.441   4.634  26.157  0.00  0.00    +0.119 HD
ENDBRANCH  21  22
BRANCH  21  25
ATOM     25  C   UNL     1       9.108   4.728  24.119  0.00  0.00    +0.322 C 
ATOM     26  OXT UNL     1       8.477   5.777  24.131  0.00  0.00    -0.249 OA
BRANCH  25  27
ATOM     27  O   UNL     1      10.215   4.567  23.356  0.00  0.00    -0.480 OA
ATOM     28  H   UNL     1      10.980   5.040  23.728  0.00  0.00    +0.295 HD
ENDBRANCH  25  27
ENDBRANCH  21  25
ENDBRANCH  20  21
ENDBRANCH   1  20
TORSDOF 10
ENDMDL
MODEL 9
REMARK VINA RESULT:      -6.1      5.068      8.467
REMARK  Name = 
REMARK  10 active torsions:
REMARK  status: ('A' for Active; 'I' for Inactive)
REMARK    1  A    between atoms: CA_2  and  N_3
REMARK    2  A    between atoms: CA_2  and  C_4
REMARK    3  A    between atoms: CA_2  and  C_22
REMARK    4  A    between atoms: C_4  and  C_5
REMARK    5  A    between atoms: C_7  and  N_8
REMARK    6  A    between atoms: C_9  and  C_10
REMARK    7  A    between atoms: C_10  and  C_11
REMARK    8  A    between atoms: C_17  and  O_18
REMARK    9  A    between atoms: C_20  and  O_21
REMARK   10  A    between atoms: C_22  and  O_23
REMARK                            x       y       z     vdW  Elec       q    Type
REMARK                         _______ _______ _______ _____ _____    ______ ____
ROOT
ATOM      1  C   UNL     1       8.212   2.583  22.853  0.00  0.00    -0.002 A 
ATOM      2  C   UNL     1       9.461   2.857  23.429  0.00  0.00    +0.124 A 
ATOM      3  C   UNL     1      10.050   1.984  24.343  0.00  0.00    +0.093 A 
ATOM      4  C   UNL     1       9.368   0.826  24.693  0.00  0.00    +0.146 A 
ATOM      5  C   UNL     1       8.135   0.493  24.122  0.00  0.00    +0.105 A 
ATOM      6  C   UNL     1       7.598   1.356  23.162  0.00  0.00    +0.038 A 
ENDROOT
BRANCH   2   7
ATOM      7  O   UNL     1      10.109   4.011  23.079  0.00  0.00    -0.506 OA
ATOM      8  H   UNL     1      10.048   4.635  23.823  0.00  0.00    +0.292 HD
ENDBRANCH   2   7
BRANCH   4   9
ATOM      9  O   UNL     1       9.922  -0.007  25.629  0.00  0.00    -0.505 OA
ATOM     10  H   UNL     1       9.875   0.513  26.459  0.00  0.00    +0.292 HD
ENDBRANCH   4   9
BRANCH   5  11
ATOM     11  N   UNL     1       7.505  -0.704  24.525  0.00  0.00    -0.256 NA
ATOM     12  C   UNL     1       6.411  -1.034  23.910  0.00  0.00    +0.089 C 
BRANCH  12  13
ATOM     13  C   UNL     1       5.641  -2.268  24.300  0.00  0.00    +0.082 C 
BRANCH  13  14
ATOM     14  C   UNL     1       6.155  -3.466  23.548  0.00  0.00    -0.042 A 
ATOM     15  C   UNL     1       5.661  -3.755  22.267  0.00  0.00    +0.004 A 
ATOM     16  C   UNL     1       6.177  -4.824  21.537  0.00  0.00    +0.000 A 
ATOM     17  C   UNL     1       7.194  -5.612  22.074  0.00  0.00    +0.000 A 
ATOM     18  C   UNL     1       7.697  -5.333  23.341  0.00  0.00    +0.000 A 
ATOM     19  C   UNL     1       7.180  -4.266  24.081  0.00  0.00    +0.004 A 
ENDBRANCH  13  14
ENDBRANCH  12  13
ENDBRANCH   5  11
BRANCH   1  20
ATOM     20  C   UNL     1       7.555   3.567  21.905  0.00  0.00    +0.068 C 
BRANCH  20  21
ATOM     21  CA  UNL     1       6.845   4.770  22.558  0.00  0.00    +0.165 C 
BRANCH  21  22
ATOM     22  N   UNL     1       5.407   4.799  22.197  0.00  0.00    -0.318 NA
ATOM     23  H1  UNL     1       5.251   4.367  21.287  0.00  0.00    +0.119 HD
ATOM     24  H2  UNL     1       4.793   4.400  22.899  0.00  0.00    +0.119 HD
ENDBRANCH  21  22
BRANCH  21  25
ATOM     25  C   UNL     1       7.536   6.098  22.196  0.00  0.00    +0.322 C 
ATOM     26  OXT UNL     1       8.518   6.539  22.778  0.00  0.00    -0.249 OA
BRANCH  25  27
ATOM     27  O   UNL     1       6.948   6.768  21.176  0.00  0.00    -0.480 OA
ATOM     28  H   UNL     1       6.919   7.726  21.346  0.00  0.00    +0.295 HD
ENDBRANCH  25  27
ENDBRANCH  21  25
ENDBRANCH  20  21
ENDBRANCH   1  20
TORSDOF 10
ENDMDL
