MODEL 1
REMARK VINA RESULT:      -5.2      0.000      0.000
REMARK  Name = 
REMARK  6 active torsions:
REMARK  status: ('A' for Active; 'I' for Inactive)
REMARK    1  A    between atoms: C_1  and  C_2
REMARK    2  A    between atoms: C_2  and  N_3
REMARK    3  A    between atoms: N_3  and  C_4
REMARK    4  A    between atoms: N_3  and  C_5
REMARK    5  A    between atoms: N_3  and  C_6
REMARK    6  A    between atoms: C_8  and  O_9
REMARK                            x       y       z     vdW  Elec       q    Type
REMARK                         _______ _______ _______ _____ _____    ______ ____
ROOT
ATOM      1  C   UNL     1      10.481   3.957  23.615  0.00  0.00    +0.149 A 
ATOM      2  C   UNL     1       9.967   5.159  24.142  0.00  0.00    +0.072 A 
ATOM      3  C   UNL     1      10.795   6.261  24.367  0.00  0.00    +0.010 A 
ATOM      4  C   UNL     1      12.146   6.184  24.061  0.00  0.00    +0.046 A 
ATOM      5  C   UNL     1      12.652   5.024  23.488  0.00  0.00    +0.123 A 
ATOM      6  C   UNL     1      11.838   3.913  23.259  0.00  0.00    +0.117 A 
ENDROOT
BRANCH   1   7
ATOM      7  N   UNL     1       9.645   2.686  23.724  0.00  0.00    -0.381 NA
ATOM      8  C   UNL     1       8.593   2.803  24.825  0.00  0.00    +0.361 C 
ATOM      9  C   UNL     1      10.648   1.586  24.106  0.00  0.00    +0.361 C 
BRANCH   7  11
ATOM     10  C   UNL     1       9.602   1.072  21.712  0.00  0.00    +0.076 C 
ATOM     11  C   UNL     1       8.954   2.254  22.416  0.00  0.00    +0.282 C 
ENDBRANCH   7  11
ENDBRANCH   1   7
BRANCH   5  12
ATOM     12  O   UNL     1      13.986   5.008  23.214  0.00  0.00    -0.507 OA
ATOM     13  H   UNL     1      14.178   5.467  22.379  0.00  0.00    +0.292 HD
ENDBRANCH   5  12
TORSDOF 3
ENDMDL
MODEL 2
REMARK VINA RESULT:      -4.7      8.814      9.797
REMARK  Name = 
REMARK  6 active torsions:
REMARK  status: ('A' for Active; 'I' for Inactive)
REMARK    1  A    between atoms: C_1  and  C_2
REMARK    2  A    between atoms: C_2  and  N_3
REMARK    3  A    between atoms: N_3  and  C_4
REMARK    4  A    between atoms: N_3  and  C_5
REMARK    5  A    between atoms: N_3  and  C_6
REMARK    6  A    between atoms: C_8  and  O_9
REMARK                            x       y       z     vdW  Elec       q    Type
REMARK                         _______ _______ _______ _____ _____    ______ ____
ROOT
ATOM      1  C   UNL     1       7.029  -4.626  24.266  0.00  0.00    +0.149 A 
ATOM      2  C   UNL     1       8.287  -4.050  23.996  0.00  0.00    +0.072 A 
ATOM      3  C   UNL     1       9.313  -4.081  24.942  0.00  0.00    +0.010 A 
ATOM      4  C   UNL     1       9.104  -4.697  26.168  0.00  0.00    +0.046 A 
ATOM      5  C   UNL     1       7.888  -5.317  26.423  0.00  0.00    +0.123 A 
ATOM      6  C   UNL     1       6.851  -5.292  25.489  0.00  0.00    +0.117 A 
ENDROOT
BRANCH   1   7
ATOM      7  N   UNL     1       5.843  -4.261  23.379  0.00  0.00    -0.381 NA
ATOM      8  C   UNL     1       6.168  -3.072  22.475  0.00  0.00    +0.361 C 
ATOM      9  C   UNL     1       4.729  -3.855  24.357  0.00  0.00    +0.361 C 
BRANCH   7  11
ATOM     10  C   UNL     1       6.299  -5.969  21.502  0.00  0.00    +0.076 C 
ATOM     11  C   UNL     1       5.306  -5.416  22.511  0.00  0.00    +0.282 C 
ENDBRANCH   7  11
ENDBRANCH   1   7
BRANCH   5  12
ATOM     12  O   UNL     1       7.742  -5.900  27.645  0.00  0.00    -0.507 OA
ATOM     13  H   UNL     1       8.277  -5.446  28.317  0.00  0.00    +0.292 HD
ENDBRANCH   5  12
TORSDOF 3
ENDMDL
MODEL 3
REMARK VINA RESULT:      -4.6      3.656      5.051
REMARK  Name = 
REMARK  6 active torsions:
REMARK  status: ('A' for Active; 'I' for Inactive)
REMARK    1  A    between atoms: C_1  and  C_2
REMARK    2  A    between atoms: C_2  and  N_3
REMARK    3  A    between atoms: N_3  and  C_4
REMARK    4  A    between atoms: N_3  and  C_5
REMARK    5  A    between atoms: N_3  and  C_6
REMARK    6  A    between atoms: C_8  and  O_9
REMARK                            x       y       z     vdW  Elec       q    Type
REMARK                         _______ _______ _______ _____ _____    ______ ____
ROOT
ATOM      1  C   UNL     1       8.961  -0.652  23.749  0.00  0.00    +0.149 A 
ATOM      2  C   UNL     1       9.833  -0.314  24.804  0.00  0.00    +0.072 A 
ATOM      3  C   UNL     1      10.686   0.788  24.711  0.00  0.00    +0.010 A 
ATOM      4  C   UNL     1      10.674   1.576  23.569  0.00  0.00    +0.046 A 
ATOM      5  C   UNL     1       9.778   1.286  22.548  0.00  0.00    +0.123 A 
ATOM      6  C   UNL     1       8.921   0.187  22.624  0.00  0.00    +0.117 A 
ENDROOT
BRANCH   1   7
ATOM      7  N   UNL     1       8.325  -2.038  23.732  0.00  0.00    -0.381 NA
ATOM      8  C   UNL     1       7.212  -2.155  24.772  0.00  0.00    +0.361 C 
ATOM      9  C   UNL     1       9.464  -2.999  24.109  0.00  0.00    +0.361 C 
BRANCH   7  11
ATOM     10  C   UNL     1       6.303  -2.856  22.355  0.00  0.00    +0.076 C 
ATOM     11  C   UNL     1       7.776  -2.479  22.360  0.00  0.00    +0.282 C 
ENDBRANCH   7  11
ENDBRANCH   1   7
BRANCH   5  12
ATOM     12  O   UNL     1       9.816   2.094  21.451  0.00  0.00    -0.507 OA
ATOM     13  H   UNL     1       9.527   1.618  20.655  0.00  0.00    +0.292 HD
ENDBRANCH   5  12
TORSDOF 3
ENDMDL
MODEL 4
REMARK VINA RESULT:      -4.6      6.440      7.815
REMARK  Name = 
REMARK  6 active torsions:
REMARK  status: ('A' for Active; 'I' for Inactive)
REMARK    1  A    between atoms: C_1  and  C_2
REMARK    2  A    between atoms: C_2  and  N_3
REMARK    3  A    between atoms: N_3  and  C_4
REMARK    4  A    between atoms: N_3  and  C_5
REMARK    5  A    between atoms: N_3  and  C_6
REMARK    6  A    between atoms: C_8  and  O_9
REMARK                            x       y       z     vdW  Elec       q    Type
REMARK                         _______ _______ _______ _____ _____    ______ ____
ROOT
ATOM      1  C   UNL     1       7.622  -3.089  23.235  0.00  0.00    +0.149 A 
ATOM      2  C   UNL     1       8.636  -3.326  24.186  0.00  0.00    +0.072 A 
ATOM      3  C   UNL     1       9.903  -2.755  24.048  0.00  0.00    +0.010 A 
ATOM      4  C   UNL     1      10.174  -1.929  22.967  0.00  0.00    +0.046 A 
ATOM      5  C   UNL     1       9.166  -1.643  22.055  0.00  0.00    +0.123 A 
ATOM      6  C   UNL     1       7.896  -2.208  22.177  0.00  0.00    +0.117 A 
ENDROOT
BRANCH   1   7
ATOM      7  N   UNL     1       6.398  -3.999  23.217  0.00  0.00    -0.381 NA
ATOM      8  C   UNL     1       5.136  -3.245  23.633  0.00  0.00    +0.361 C 
ATOM      9  C   UNL     1       6.699  -5.085  24.262  0.00  0.00    +0.361 C 
BRANCH   7  11
ATOM     10  C   UNL     1       7.102  -5.835  21.548  0.00  0.00    +0.076 C 
ATOM     11  C   UNL     1       6.138  -4.705  21.872  0.00  0.00    +0.282 C 
ENDBRANCH   7  11
ENDBRANCH   1   7
BRANCH   5  12
ATOM     12  O   UNL     1       9.495  -0.829  21.013  0.00  0.00    -0.507 OA
ATOM     13  H   UNL     1      10.454  -0.831  20.857  0.00  0.00    +0.292 HD
ENDBRANCH   5  12
TORSDOF 3
ENDMDL
MODEL 5
REMARK VINA RESULT:      -4.6      3.843      5.360
REMARK  Name = 
REMARK  6 active torsions:
REMARK  status: ('A' for Active; 'I' for Inactive)
REMARK    1  A    between atoms: C_1  and  C_2
REMARK    2  A    between atoms: C_2  and  N_3
REMARK    3  A    between atoms: N_3  and  C_4
REMARK    4  A    between atoms: N_3  and  C_5
REMARK    5  A    between atoms: N_3  and  C_6
REMARK    6  A    between atoms: C_8  and  O_9
REMARK                            x       y       z     vdW  Elec       q    Type
REMARK                         _______ _______ _______ _____ _____    ______ ____
ROOT
ATOM      1  C   UNL     1       9.008  -0.721  23.741  0.00  0.00    +0.149 A 
ATOM      2  C   UNL     1       9.829  -0.306  24.809  0.00  0.00    +0.072 A 
ATOM      3  C   UNL     1      10.609   0.849  24.715  0.00  0.00    +0.010 A 
ATOM      4  C   UNL     1      10.573   1.614  23.558  0.00  0.00    +0.046 A 
ATOM      5  C   UNL     1       9.725   1.246  22.521  0.00  0.00    +0.123 A 
ATOM      6  C   UNL     1       8.941   0.093  22.599  0.00  0.00    +0.117 A 
ENDROOT
BRANCH   1   7
ATOM      7  N   UNL     1       8.466  -2.146  23.735  0.00  0.00    -0.381 NA
ATOM      8  C   UNL     1       8.005  -2.562  22.338  0.00  0.00    +0.361 C 
ATOM      9  C   UNL     1       7.250  -2.110  24.673  0.00  0.00    +0.361 C 
BRANCH   7  11
ATOM     10  C   UNL     1       8.794  -4.527  24.670  0.00  0.00    +0.076 C 
ATOM     11  C   UNL     1       9.442  -3.210  24.275  0.00  0.00    +0.282 C 
ENDBRANCH   7  11
ENDBRANCH   1   7
BRANCH   5  12
ATOM     12  O   UNL     1       9.738   2.034  21.410  0.00  0.00    -0.507 OA
ATOM     13  H   UNL     1       9.644   2.972  21.645  0.00  0.00    +0.292 HD
ENDBRANCH   5  12
TORSDOF 3
ENDMDL
MODEL 6
REMARK VINA RESULT:      -4.6      5.609      8.077
REMARK  Name = 
REMARK  6 active torsions:
REMARK  status: ('A' for Active; 'I' for Inactive)
REMARK    1  A    between atoms: C_1  and  C_2
REMARK    2  A    between atoms: C_2  and  N_3
REMARK    3  A    between atoms: N_3  and  C_4
REMARK    4  A    between atoms: N_3  and  C_5
REMARK    5  A    between atoms: N_3  and  C_6
REMARK    6  A    between atoms: C_8  and  O_9
REMARK                            x       y       z     vdW  Elec       q    Type
REMARK                         _______ _______ _______ _____ _____    ______ ____
ROOT
ATOM      1  C   UNL     1       8.674  -2.636  23.864  0.00  0.00    +0.149 A 
ATOM      2  C   UNL     1       7.656  -3.164  23.044  0.00  0.00    +0.072 A 
ATOM      3  C   UNL     1       7.366  -4.530  23.041  0.00  0.00    +0.010 A 
ATOM      4  C   UNL     1       8.080  -5.389  23.865  0.00  0.00    +0.046 A 
ATOM      5  C   UNL     1       9.046  -4.872  24.718  0.00  0.00    +0.123 A 
ATOM      6  C   UNL     1       9.350  -3.509  24.731  0.00  0.00    +0.117 A 
ENDROOT
BRANCH   1   7
ATOM      7  N   UNL     1       9.201  -1.234  23.578  0.00  0.00    -0.381 NA
ATOM      8  C   UNL     1       8.136  -0.363  22.911  0.00  0.00    +0.361 C 
ATOM      9  C   UNL     1      10.364  -1.441  22.596  0.00  0.00    +0.361 C 
BRANCH   7  11
ATOM     10  C   UNL     1      10.802   0.568  24.495  0.00  0.00    +0.076 C 
ATOM     11  C   UNL     1       9.755  -0.489  24.809  0.00  0.00    +0.282 C 
ENDBRANCH   7  11
ENDBRANCH   1   7
BRANCH   5  12
ATOM     12  O   UNL     1       9.715  -5.765  25.499  0.00  0.00    -0.507 OA
ATOM     13  H   UNL     1       9.954  -6.561  24.995  0.00  0.00    +0.292 HD
ENDBRANCH   5  12
TORSDOF 3
ENDMDL
MODEL 7
REMARK VINA RESULT:      -4.5      4.749      6.489
REMARK  Name = 
REMARK  6 active torsions:
REMARK  status: ('A' for Active; 'I' for Inactive)
REMARK    1  A    between atoms: C_1  and  C_2
REMARK    2  A    between atoms: C_2  and  N_3
REMARK    3  A    between atoms: N_3  and  C_4
REMARK    4  A    between atoms: N_3  and  C_5
REMARK    5  A    between atoms: N_3  and  C_6
REMARK    6  A    between atoms: C_8  and  O_9
REMARK                            x       y       z     vdW  Elec       q    Type
REMARK                         _______ _______ _______ _____ _____    ______ ____
ROOT
ATOM      1  C   UNL     1       8.868  -2.245  23.389  0.00  0.00    +0.149 A 
ATOM      2  C   UNL     1       9.096  -1.745  22.091  0.00  0.00    +0.072 A 
ATOM      3  C   UNL     1       9.776  -0.542  21.890  0.00  0.00    +0.010 A 
ATOM      4  C   UNL     1      10.249   0.175  22.980  0.00  0.00    +0.046 A 
ATOM      5  C   UNL     1      10.079  -0.337  24.260  0.00  0.00    +0.123 A 
ATOM      6  C   UNL     1       9.400  -1.536  24.478  0.00  0.00    +0.117 A 
ENDROOT
BRANCH   1   7
ATOM      7  N   UNL     1       7.829  -3.344  23.586  0.00  0.00    -0.381 NA
ATOM      8  C   UNL     1       6.649  -2.852  24.423  0.00  0.00    +0.361 C 
ATOM      9  C   UNL     1       8.565  -4.449  24.360  0.00  0.00    +0.361 C 
BRANCH   7  11
ATOM     10  C   UNL     1       7.209  -5.483  22.285  0.00  0.00    +0.076 C 
ATOM     11  C   UNL     1       7.291  -3.965  22.282  0.00  0.00    +0.282 C 
ENDBRANCH   7  11
ENDBRANCH   1   7
BRANCH   5  12
ATOM     12  O   UNL     1      10.561   0.415  25.289  0.00  0.00    -0.507 OA
ATOM     13  H   UNL     1      11.527   0.336  25.359  0.00  0.00    +0.292 HD
ENDBRANCH   5  12
TORSDOF 3
ENDMDL
MODEL 8
REMARK VINA RESULT:      -4.4      5.740      7.792
REMARK  Name = 
REMARK  6 active torsions:
REMARK  status: ('A' for Active; 'I' for Inactive)
REMARK    1  A    between atoms: C_1  and  C_2
REMARK    2  A    between atoms: C_2  and  N_3
REMARK    3  A    between atoms: N_3  and  C_4
REMARK    4  A    between atoms: N_3  and  C_5
REMARK    5  A    between atoms: N_3  and  C_6
REMARK    6  A    between atoms: C_8  and  O_9
REMARK                            x       y       z     vdW  Elec       q    Type
REMARK                         _______ _______ _______ _____ _____    ______ ____
ROOT
ATOM      1  C   UNL     1       8.646  -2.464  24.608  0.00  0.00    +0.149 A 
ATOM      2  C   UNL     1       7.755  -2.423  25.700  0.00  0.00    +0.072 A 
ATOM      3  C   UNL     1       7.678  -3.481  26.609  0.00  0.00    +0.010 A 
ATOM      4  C   UNL     1       8.497  -4.590  26.449  0.00  0.00    +0.046 A 
ATOM      5  C   UNL     1       9.418  -4.615  25.410  0.00  0.00    +0.123 A 
ATOM      6  C   UNL     1       9.506  -3.568  24.492  0.00  0.00    +0.117 A 
ENDROOT
BRANCH   1   7
ATOM      7  N   UNL     1       8.449  -1.484  23.457  0.00  0.00    -0.381 NA
ATOM      8  C   UNL     1       7.270  -0.547  23.717  0.00  0.00    +0.361 C 
ATOM      9  C   UNL     1       8.128  -2.365  22.239  0.00  0.00    +0.361 C 
BRANCH   7  11
ATOM     10  C   UNL     1       9.697  -0.067  21.700  0.00  0.00    +0.076 C 
ATOM     11  C   UNL     1       9.691  -0.639  23.108  0.00  0.00    +0.282 C 
ENDBRANCH   7  11
ENDBRANCH   1   7
BRANCH   5  12
ATOM     12  O   UNL     1      10.190  -5.733  25.303  0.00  0.00    -0.507 OA
ATOM     13  H   UNL     1      10.249  -6.031  24.380  0.00  0.00    +0.292 HD
ENDBRANCH   5  12
TORSDOF 3
ENDMDL
MODEL 9
REMARK VINA RESULT:      -4.3      2.904      4.562
REMARK  Name = 
REMARK  6 active torsions:
REMARK  status: ('A' for Active; 'I' for Inactive)
REMARK    1  A    between atoms: C_1  and  C_2
REMARK    2  A    between atoms: C_2  and  N_3
REMARK    3  A    between atoms: N_3  and  C_4
REMARK    4  A    between atoms: N_3  and  C_5
REMARK    5  A    between atoms: N_3  and  C_6
REMARK    6  A    between atoms: C_8  and  O_9
REMARK                            x       y       z     vdW  Elec       q    Type
REMARK                         _______ _______ _______ _____ _____    ______ ____
ROOT
ATOM      1  C   UNL     1       9.304   2.125  23.214  0.00  0.00    +0.149 A 
ATOM      2  C   UNL     1      10.052   1.628  24.301  0.00  0.00    +0.072 A 
ATOM      3  C   UNL     1      10.609   0.348  24.269  0.00  0.00    +0.010 A 
ATOM      4  C   UNL     1      10.439  -0.451  23.147  0.00  0.00    +0.046 A 
ATOM      5  C   UNL     1       9.753   0.050  22.048  0.00  0.00    +0.123 A 
ATOM      6  C   UNL     1       9.187   1.326  22.066  0.00  0.00    +0.117 A 
ENDROOT
BRANCH   1   7
ATOM      7  N   UNL     1       8.421   3.350  23.424  0.00  0.00    -0.381 NA
ATOM      8  C   UNL     1       9.251   4.581  23.785  0.00  0.00    +0.361 C 
ATOM      9  C   UNL     1       7.520   2.988  24.615  0.00  0.00    +0.361 C 
BRANCH   7  11
ATOM     10  C   UNL     1       6.034   3.375  22.446  0.00  0.00    +0.076 C 
ATOM     11  C   UNL     1       7.505   3.698  22.234  0.00  0.00    +0.282 C 
ENDBRANCH   7  11
ENDBRANCH   1   7
BRANCH   5  12
ATOM     12  O   UNL     1       9.616  -0.784  20.979  0.00  0.00    -0.507 OA
ATOM     13  H   UNL     1      10.037  -1.643  21.149  0.00  0.00    +0.292 HD
ENDBRANCH   5  12
TORSDOF 3
ENDMDL
