MODEL 1
REMARK VINA RESULT:      -8.6      0.000      0.000
REMARK  Name = 
REMARK  9 active torsions:
REMARK  status: ('A' for Active; 'I' for Inactive)
REMARK    1  A    between atoms: C_1  and  N_2
REMARK    2  A    between atoms: N_2  and  C_3
REMARK    3  A    between atoms: N_2  and  C_14
REMARK    4  A    between atoms: N_7  and  C_8
REMARK    5  A    between atoms: C_9  and  C_10
REMARK    6  A    between atoms: N_19  and  C_20
REMARK    7  A    between atoms: C_23  and  C_24
REMARK    8  A    between atoms: C_25  and  S_27
REMARK    9  A    between atoms: S_27  and  N_28
REMARK                            x       y       z     vdW  Elec       q    Type
REMARK                         _______ _______ _______ _____ _____    ______ ____
ROOT
ATOM      1  C   UNL     1       7.389  -4.307  23.151  0.00  0.00    +0.130 A 
ATOM      2  N   UNL     1       6.602  -5.170  23.822  0.00  0.00    -0.199 NA
ATOM      3  C   UNL     1       5.595  -5.787  23.183  0.00  0.00    +0.221 A 
ATOM      4  N   UNL     1       4.821  -6.741  23.844  0.00  0.00    -0.284 N 
ATOM      5  H   UNL     1       4.106  -7.061  23.204  0.00  0.00    +0.155 HD
ATOM      6  N   UNL     1       5.294  -5.583  21.896  0.00  0.00    -0.223 NA
ATOM      7  C   UNL     1       6.048  -4.685  21.250  0.00  0.00    +0.118 A 
ATOM      8  C   UNL     1       7.106  -4.021  21.827  0.00  0.00    +0.064 A 
ENDROOT
BRANCH   4   9
ATOM      9  C   UNL     1       4.434  -6.759  25.192  0.00  0.00    +0.035 A 
ATOM     10  C   UNL     1       5.342  -6.609  26.243  0.00  0.00    +0.052 A 
ATOM     11  C   UNL     1       4.903  -6.587  27.576  0.00  0.00    +0.110 A 
ATOM     12  C   UNL     1       3.544  -6.766  27.890  0.00  0.00    -0.024 A 
ATOM     13  C   UNL     1       3.012  -6.790  29.295  0.00  0.00    +0.046 C 
ATOM     14  C   UNL     1       2.638  -6.905  26.829  0.00  0.00    +0.007 A 
ATOM     15  C   UNL     1       3.077  -6.882  25.501  0.00  0.00    +0.024 A 
BRANCH  11  16
ATOM     16  S   UNL     1       6.114  -6.232  28.822  0.00  0.00    +0.056 S 
ATOM     17  O   UNL     1       6.467  -7.444  29.527  0.00  0.00    -0.153 OA
ATOM     18  O   UNL     1       5.760  -5.019  29.521  0.00  0.00    -0.153 OA
BRANCH  16  19
ATOM     19  N   UNL     1       7.472  -5.876  27.894  0.00  0.00    -0.204 NA
ATOM     20  H   UNL     1       7.822  -4.948  28.129  0.00  0.00    +0.144 HD
ATOM     21  H   UNL     1       7.270  -6.018  26.906  0.00  0.00    +0.144 HD
ENDBRANCH  16  19
ENDBRANCH  11  16
ENDBRANCH   4   9
BRANCH   1  23
ATOM     22  C   UNL     1       9.122  -4.527  24.872  0.00  0.00    +0.137 C 
ATOM     23  N   UNL     1       8.498  -3.724  23.819  0.00  0.00    -0.288 N 
BRANCH  23  24
ATOM     24  C   UNL     1       8.759  -2.319  23.863  0.00  0.00    +0.037 A 
ATOM     25  C   UNL     1       9.930  -1.831  23.174  0.00  0.00    +0.024 A 
ATOM     26  C   UNL     1      10.363  -0.486  23.146  0.00  0.00    +0.013 A 
ATOM     27  C   UNL     1       9.505   0.328  23.873  0.00  0.00    +0.023 A 
ATOM     28  C   UNL     1       8.318  -0.081  24.571  0.00  0.00    +0.095 A 
ATOM     29  N   UNL     1       7.756   0.994  25.153  0.00  0.00    -0.171 NA
ATOM     30  N   UNL     1       8.557   2.030  24.816  0.00  0.00    -0.270 N 
ATOM     31  C   UNL     1       8.204   3.356  25.272  0.00  0.00    +0.172 C 
ATOM     32  C   UNL     1       9.646   1.682  24.052  0.00  0.00    +0.044 A 
ATOM     33  C   UNL     1      10.682   2.630  23.575  0.00  0.00    +0.066 C 
ATOM     34  C   UNL     1       7.912  -1.429  24.580  0.00  0.00    +0.053 A 
ENDBRANCH  23  24
ENDBRANCH   1  23
TORSDOF 5
ENDMDL
MODEL 2
REMARK VINA RESULT:      -8.1      2.241      4.095
REMARK  Name = 
REMARK  9 active torsions:
REMARK  status: ('A' for Active; 'I' for Inactive)
REMARK    1  A    between atoms: C_1  and  N_2
REMARK    2  A    between atoms: N_2  and  C_3
REMARK    3  A    between atoms: N_2  and  C_14
REMARK    4  A    between atoms: N_7  and  C_8
REMARK    5  A    between atoms: C_9  and  C_10
REMARK    6  A    between atoms: N_19  and  C_20
REMARK    7  A    between atoms: C_23  and  C_24
REMARK    8  A    between atoms: C_25  and  S_27
REMARK    9  A    between atoms: S_27  and  N_28
REMARK                            x       y       z     vdW  Elec       q    Type
REMARK                         _______ _______ _______ _____ _____    ______ ____
ROOT
ATOM      1  C   UNL     1       8.355  -0.762  23.843  0.00  0.00    +0.130 A 
ATOM      2  N   UNL     1       8.123  -2.017  24.275  0.00  0.00    -0.199 NA
ATOM      3  C   UNL     1       8.990  -2.996  23.972  0.00  0.00    +0.221 A 
ATOM      4  N   UNL     1       8.806  -4.283  24.477  0.00  0.00    -0.284 N 
ATOM      5  H   UNL     1       9.542  -4.871  24.112  0.00  0.00    +0.155 HD
ATOM      6  N   UNL     1      10.089  -2.814  23.231  0.00  0.00    -0.223 NA
ATOM      7  C   UNL     1      10.285  -1.575  22.762  0.00  0.00    +0.118 A 
ATOM      8  C   UNL     1       9.452  -0.515  23.038  0.00  0.00    +0.064 A 
ENDROOT
BRANCH   4   9
ATOM      9  C   UNL     1       7.597  -4.956  24.710  0.00  0.00    +0.035 A 
ATOM     10  C   UNL     1       7.147  -5.285  25.991  0.00  0.00    +0.052 A 
ATOM     11  C   UNL     1       5.908  -5.918  26.178  0.00  0.00    +0.110 A 
ATOM     12  C   UNL     1       5.111  -6.283  25.077  0.00  0.00    -0.024 A 
ATOM     13  C   UNL     1       3.794  -6.994  25.204  0.00  0.00    +0.046 C 
ATOM     14  C   UNL     1       5.566  -5.938  23.796  0.00  0.00    +0.007 A 
ATOM     15  C   UNL     1       6.781  -5.269  23.620  0.00  0.00    +0.024 A 
BRANCH  11  16
ATOM     16  S   UNL     1       5.359  -6.147  27.849  0.00  0.00    +0.056 S 
ATOM     17  O   UNL     1       5.451  -7.543  28.212  0.00  0.00    -0.153 OA
ATOM     18  O   UNL     1       4.162  -5.375  28.083  0.00  0.00    -0.153 OA
BRANCH  16  19
ATOM     19  N   UNL     1       6.591  -5.404  28.722  0.00  0.00    -0.204 NA
ATOM     20  H   UNL     1       6.286  -4.487  29.045  0.00  0.00    +0.144 HD
ATOM     21  H   UNL     1       7.454  -5.401  28.182  0.00  0.00    +0.144 HD
ENDBRANCH  16  19
ENDBRANCH  11  16
ENDBRANCH   4   9
BRANCH   1  23
ATOM     22  C   UNL     1       6.089  -0.114  24.521  0.00  0.00    +0.137 C 
ATOM     23  N   UNL     1       7.472   0.276  24.239  0.00  0.00    -0.288 N 
BRANCH  23  24
ATOM     24  C   UNL     1       7.688   1.661  23.962  0.00  0.00    +0.037 A 
ATOM     25  C   UNL     1       8.772   2.324  24.648  0.00  0.00    +0.024 A 
ATOM     26  C   UNL     1       9.104   3.692  24.528  0.00  0.00    +0.013 A 
ATOM     27  C   UNL     1       8.246   4.336  23.647  0.00  0.00    +0.023 A 
ATOM     28  C   UNL     1       7.158   3.745  22.920  0.00  0.00    +0.095 A 
ATOM     29  N   UNL     1       6.564   4.690  22.169  0.00  0.00    -0.171 NA
ATOM     30  N   UNL     1       7.266   5.819  22.412  0.00  0.00    -0.270 N 
ATOM     31  C   UNL     1       6.888   7.033  21.723  0.00  0.00    +0.172 C 
ATOM     32  C   UNL     1       8.291   5.668  23.316  0.00  0.00    +0.044 A 
ATOM     33  C   UNL     1       9.190   6.759  23.766  0.00  0.00    +0.066 C 
ATOM     34  C   UNL     1       6.852   2.378  23.060  0.00  0.00    +0.053 A 
ENDBRANCH  23  24
ENDBRANCH   1  23
TORSDOF 5
ENDMDL
MODEL 3
REMARK VINA RESULT:      -8.1      1.378      1.874
REMARK  Name = 
REMARK  9 active torsions:
REMARK  status: ('A' for Active; 'I' for Inactive)
REMARK    1  A    between atoms: C_1  and  N_2
REMARK    2  A    between atoms: N_2  and  C_3
REMARK    3  A    between atoms: N_2  and  C_14
REMARK    4  A    between atoms: N_7  and  C_8
REMARK    5  A    between atoms: C_9  and  C_10
REMARK    6  A    between atoms: N_19  and  C_20
REMARK    7  A    between atoms: C_23  and  C_24
REMARK    8  A    between atoms: C_25  and  S_27
REMARK    9  A    between atoms: S_27  and  N_28
REMARK                            x       y       z     vdW  Elec       q    Type
REMARK                         _______ _______ _______ _____ _____    ______ ____
ROOT
ATOM      1  C   UNL     1       7.315  -4.843  23.245  0.00  0.00    +0.130 A 
ATOM      2  N   UNL     1       6.275  -5.421  23.878  0.00  0.00    -0.199 NA
ATOM      3  C   UNL     1       5.325  -6.044  23.164  0.00  0.00    +0.221 A 
ATOM      4  N   UNL     1       4.285  -6.715  23.809  0.00  0.00    -0.284 N 
ATOM      5  H   UNL     1       3.667  -7.087  23.101  0.00  0.00    +0.155 HD
ATOM      6  N   UNL     1       5.323  -6.116  21.829  0.00  0.00    -0.223 NA
ATOM      7  C   UNL     1       6.332  -5.494  21.204  0.00  0.00    +0.118 A 
ATOM      8  C   UNL     1       7.352  -4.846  21.862  0.00  0.00    +0.064 A 
ENDROOT
BRANCH   4   9
ATOM      9  C   UNL     1       3.642  -6.366  25.006  0.00  0.00    +0.035 A 
ATOM     10  C   UNL     1       4.142  -6.712  26.263  0.00  0.00    +0.052 A 
ATOM     11  C   UNL     1       3.489  -6.302  27.436  0.00  0.00    +0.110 A 
ATOM     12  C   UNL     1       2.285  -5.575  27.374  0.00  0.00    -0.024 A 
ATOM     13  C   UNL     1       1.516  -5.136  28.588  0.00  0.00    +0.046 C 
ATOM     14  C   UNL     1       1.797  -5.223  26.108  0.00  0.00    +0.007 A 
ATOM     15  C   UNL     1       2.476  -5.597  24.945  0.00  0.00    +0.024 A 
BRANCH  11  16
ATOM     16  S   UNL     1       4.291  -6.656  28.978  0.00  0.00    +0.056 S 
ATOM     17  O   UNL     1       3.504  -7.600  29.738  0.00  0.00    -0.153 OA
ATOM     18  O   UNL     1       4.793  -5.435  29.562  0.00  0.00    -0.153 OA
BRANCH  16  19
ATOM     19  N   UNL     1       5.633  -7.538  28.474  0.00  0.00    -0.204 NA
ATOM     20  H   UNL     1       6.426  -6.915  28.329  0.00  0.00    +0.144 HD
ATOM     21  H   UNL     1       5.393  -8.118  27.672  0.00  0.00    +0.144 HD
ENDBRANCH  16  19
ENDBRANCH  11  16
ENDBRANCH   4   9
BRANCH   1  23
ATOM     22  C   UNL     1       8.967  -5.109  25.038  0.00  0.00    +0.137 C 
ATOM     23  N   UNL     1       8.352  -4.258  24.017  0.00  0.00    -0.288 N 
BRANCH  23  24
ATOM     24  C   UNL     1       8.530  -2.850  24.185  0.00  0.00    +0.037 A 
ATOM     25  C   UNL     1       7.535  -2.132  24.948  0.00  0.00    +0.024 A 
ATOM     26  C   UNL     1       7.528  -0.738  25.180  0.00  0.00    +0.013 A 
ATOM     27  C   UNL     1       8.620  -0.129  24.577  0.00  0.00    +0.023 A 
ATOM     28  C   UNL     1       9.654  -0.775  23.817  0.00  0.00    +0.095 A 
ATOM     29  N   UNL     1      10.537   0.150  23.399  0.00  0.00    -0.171 NA
ATOM     30  N   UNL     1      10.074   1.320  23.893  0.00  0.00    -0.270 N 
ATOM     31  C   UNL     1      10.829   2.528  23.637  0.00  0.00    +0.172 C 
ATOM     32  C   UNL     1       8.902   1.215  24.603  0.00  0.00    +0.044 A 
ATOM     33  C   UNL     1       8.184   2.354  25.224  0.00  0.00    +0.066 C 
ATOM     34  C   UNL     1       9.633  -2.166  23.603  0.00  0.00    +0.053 A 
ENDBRANCH  23  24
ENDBRANCH   1  23
TORSDOF 5
ENDMDL
MODEL 4
REMARK VINA RESULT:      -8.0      3.620      8.761
REMARK  Name = 
REMARK  9 active torsions:
REMARK  status: ('A' for Active; 'I' for Inactive)
REMARK    1  A    between atoms: C_1  and  N_2
REMARK    2  A    between atoms: N_2  and  C_3
REMARK    3  A    between atoms: N_2  and  C_14
REMARK    4  A    between atoms: N_7  and  C_8
REMARK    5  A    between atoms: C_9  and  C_10
REMARK    6  A    between atoms: N_19  and  C_20
REMARK    7  A    between atoms: C_23  and  C_24
REMARK    8  A    between atoms: C_25  and  S_27
REMARK    9  A    between atoms: S_27  and  N_28
REMARK                            x       y       z     vdW  Elec       q    Type
REMARK                         _______ _______ _______ _____ _____    ______ ____
ROOT
ATOM      1  C   UNL     1       7.515  -4.408  23.464  0.00  0.00    +0.130 A 
ATOM      2  N   UNL     1       8.073  -3.213  23.190  0.00  0.00    -0.199 NA
ATOM      3  C   UNL     1       9.260  -2.893  23.730  0.00  0.00    +0.221 A 
ATOM      4  N   UNL     1       9.887  -1.693  23.393  0.00  0.00    -0.284 N 
ATOM      5  H   UNL     1      10.746  -1.630  23.923  0.00  0.00    +0.155 HD
ATOM      6  N   UNL     1       9.938  -3.691  24.563  0.00  0.00    -0.223 NA
ATOM      7  C   UNL     1       9.352  -4.855  24.871  0.00  0.00    +0.118 A 
ATOM      8  C   UNL     1       8.145  -5.263  24.351  0.00  0.00    +0.064 A 
ENDROOT
BRANCH   4   9
ATOM      9  C   UNL     1       9.291  -0.454  23.117  0.00  0.00    +0.035 A 
ATOM     10  C   UNL     1       8.694   0.336  24.102  0.00  0.00    +0.052 A 
ATOM     11  C   UNL     1       8.150   1.592  23.787  0.00  0.00    +0.110 A 
ATOM     12  C   UNL     1       8.146   2.063  22.461  0.00  0.00    -0.024 A 
ATOM     13  C   UNL     1       7.549   3.379  22.049  0.00  0.00    +0.046 C 
ATOM     14  C   UNL     1       8.758   1.268  21.481  0.00  0.00    +0.007 A 
ATOM     15  C   UNL     1       9.337   0.038  21.810  0.00  0.00    +0.024 A 
BRANCH  11  16
ATOM     16  S   UNL     1       7.561   2.582  25.135  0.00  0.00    +0.056 S 
ATOM     17  O   UNL     1       6.124   2.710  25.063  0.00  0.00    -0.153 OA
ATOM     18  O   UNL     1       8.422   3.728  25.316  0.00  0.00    -0.153 OA
BRANCH  16  19
ATOM     19  N   UNL     1       7.826   1.567  26.451  0.00  0.00    -0.204 NA
ATOM     20  H   UNL     1       8.724   1.094  26.352  0.00  0.00    +0.144 HD
ATOM     21  H   UNL     1       7.029   0.947  26.585  0.00  0.00    +0.144 HD
ENDBRANCH  16  19
ENDBRANCH  11  16
ENDBRANCH   4   9
BRANCH   1  23
ATOM     22  C   UNL     1       6.085  -4.221  21.480  0.00  0.00    +0.137 C 
ATOM     23  N   UNL     1       6.299  -4.763  22.823  0.00  0.00    -0.288 N 
BRANCH  23  24
ATOM     24  C   UNL     1       5.128  -5.206  23.514  0.00  0.00    +0.037 A 
ATOM     25  C   UNL     1       4.275  -4.201  24.105  0.00  0.00    +0.024 A 
ATOM     26  C   UNL     1       3.105  -4.458  24.855  0.00  0.00    +0.013 A 
ATOM     27  C   UNL     1       2.866  -5.822  24.953  0.00  0.00    +0.023 A 
ATOM     28  C   UNL     1       3.658  -6.876  24.383  0.00  0.00    +0.095 A 
ATOM     29  N   UNL     1       3.104  -8.062  24.695  0.00  0.00    -0.171 NA
ATOM     30  N   UNL     1       2.005  -7.752  25.418  0.00  0.00    -0.270 N 
ATOM     31  C   UNL     1       1.159  -8.826  25.889  0.00  0.00    +0.172 C 
ATOM     32  C   UNL     1       1.818  -6.405  25.621  0.00  0.00    +0.044 A 
ATOM     33  C   UNL     1       0.703  -5.813  26.398  0.00  0.00    +0.066 C 
ATOM     34  C   UNL     1       4.819  -6.589  23.640  0.00  0.00    +0.053 A 
ENDBRANCH  23  24
ENDBRANCH   1  23
TORSDOF 5
ENDMDL
MODEL 5
REMARK VINA RESULT:      -7.9      2.757      4.707
REMARK  Name = 
REMARK  9 active torsions:
REMARK  status: ('A' for Active; 'I' for Inactive)
REMARK    1  A    between atoms: C_1  and  N_2
REMARK    2  A    between atoms: N_2  and  C_3
REMARK    3  A    between atoms: N_2  and  C_14
REMARK    4  A    between atoms: N_7  and  C_8
REMARK    5  A    between atoms: C_9  and  C_10
REMARK    6  A    between atoms: N_19  and  C_20
REMARK    7  A    between atoms: C_23  and  C_24
REMARK    8  A    between atoms: C_25  and  S_27
REMARK    9  A    between atoms: S_27  and  N_28
REMARK                            x       y       z     vdW  Elec       q    Type
REMARK                         _______ _______ _______ _____ _____    ______ ____
ROOT
ATOM      1  C   UNL     1       9.109  -0.517  24.401  0.00  0.00    +0.130 A 
ATOM      2  N   UNL     1       8.876  -1.781  24.808  0.00  0.00    -0.199 NA
ATOM      3  C   UNL     1       9.430  -2.807  24.143  0.00  0.00    +0.221 A 
ATOM      4  N   UNL     1       9.263  -4.115  24.598  0.00  0.00    -0.284 N 
ATOM      5  H   UNL     1       9.729  -4.734  23.949  0.00  0.00    +0.155 HD
ATOM      6  N   UNL     1      10.202  -2.662  23.059  0.00  0.00    -0.223 NA
ATOM      7  C   UNL     1      10.385  -1.406  22.631  0.00  0.00    +0.118 A 
ATOM      8  C   UNL     1       9.865  -0.301  23.263  0.00  0.00    +0.064 A 
ENDROOT
BRANCH   4   9
ATOM      9  C   UNL     1       8.139  -4.677  25.220  0.00  0.00    +0.035 A 
ATOM     10  C   UNL     1       6.991  -5.049  24.517  0.00  0.00    +0.052 A 
ATOM     11  C   UNL     1       5.906  -5.650  25.175  0.00  0.00    +0.110 A 
ATOM     12  C   UNL     1       5.927  -5.846  26.568  0.00  0.00    -0.024 A 
ATOM     13  C   UNL     1       4.788  -6.449  27.340  0.00  0.00    +0.046 C 
ATOM     14  C   UNL     1       7.088  -5.479  27.264  0.00  0.00    +0.007 A 
ATOM     15  C   UNL     1       8.182  -4.921  26.595  0.00  0.00    +0.024 A 
BRANCH  11  16
ATOM     16  S   UNL     1       4.567  -6.230  24.168  0.00  0.00    +0.056 S 
ATOM     17  O   UNL     1       3.506  -5.249  24.145  0.00  0.00    -0.153 OA
ATOM     18  O   UNL     1       4.311  -7.624  24.445  0.00  0.00    -0.153 OA
BRANCH  16  19
ATOM     19  N   UNL     1       5.237  -6.159  22.626  0.00  0.00    -0.204 NA
ATOM     20  H   UNL     1       6.250  -6.059  22.690  0.00  0.00    +0.144 HD
ATOM     21  H   UNL     1       4.772  -5.443  22.071  0.00  0.00    +0.144 HD
ENDBRANCH  16  19
ENDBRANCH  11  16
ENDBRANCH   4   9
BRANCH   1  23
ATOM     22  C   UNL     1       7.973   0.214  26.448  0.00  0.00    +0.137 C 
ATOM     23  N   UNL     1       8.581   0.559  25.162  0.00  0.00    -0.288 N 
BRANCH  23  24
ATOM     24  C   UNL     1       8.205   1.822  24.610  0.00  0.00    +0.037 A 
ATOM     25  C   UNL     1       9.245   2.805  24.408  0.00  0.00    +0.024 A 
ATOM     26  C   UNL     1       9.050   4.114  23.913  0.00  0.00    +0.013 A 
ATOM     27  C   UNL     1       7.710   4.346  23.633  0.00  0.00    +0.023 A 
ATOM     28  C   UNL     1       6.626   3.418  23.793  0.00  0.00    +0.095 A 
ATOM     29  N   UNL     1       5.479   4.010  23.414  0.00  0.00    -0.171 NA
ATOM     30  N   UNL     1       5.843   5.251  23.021  0.00  0.00    -0.270 N 
ATOM     31  C   UNL     1       4.823   6.147  22.522  0.00  0.00    +0.172 C 
ATOM     32  C   UNL     1       7.186   5.518  23.148  0.00  0.00    +0.044 A 
ATOM     33  C   UNL     1       7.827   6.811  22.806  0.00  0.00    +0.066 C 
ATOM     34  C   UNL     1       6.852   2.119  24.289  0.00  0.00    +0.053 A 
ENDBRANCH  23  24
ENDBRANCH   1  23
TORSDOF 5
ENDMDL
MODEL 6
REMARK VINA RESULT:      -7.7      2.607      4.425
REMARK  Name = 
REMARK  9 active torsions:
REMARK  status: ('A' for Active; 'I' for Inactive)
REMARK    1  A    between atoms: C_1  and  N_2
REMARK    2  A    between atoms: N_2  and  C_3
REMARK    3  A    between atoms: N_2  and  C_14
REMARK    4  A    between atoms: N_7  and  C_8
REMARK    5  A    between atoms: C_9  and  C_10
REMARK    6  A    between atoms: N_19  and  C_20
REMARK    7  A    between atoms: C_23  and  C_24
REMARK    8  A    between atoms: C_25  and  S_27
REMARK    9  A    between atoms: S_27  and  N_28
REMARK                            x       y       z     vdW  Elec       q    Type
REMARK                         _______ _______ _______ _____ _____    ______ ____
ROOT
ATOM      1  C   UNL     1       8.553  -1.026  24.246  0.00  0.00    +0.130 A 
ATOM      2  N   UNL     1       8.153  -2.119  24.924  0.00  0.00    -0.199 NA
ATOM      3  C   UNL     1       8.860  -3.256  24.830  0.00  0.00    +0.221 A 
ATOM      4  N   UNL     1       8.504  -4.373  25.586  0.00  0.00    -0.284 N 
ATOM      5  H   UNL     1       9.138  -5.124  25.352  0.00  0.00    +0.155 HD
ATOM      6  N   UNL     1       9.954  -3.392  24.072  0.00  0.00    -0.223 NA
ATOM      7  C   UNL     1      10.315  -2.316  23.360  0.00  0.00    +0.118 A 
ATOM      8  C   UNL     1       9.653  -1.111  23.411  0.00  0.00    +0.064 A 
ENDROOT
BRANCH   4   9
ATOM      9  C   UNL     1       7.217  -4.798  25.946  0.00  0.00    +0.035 A 
ATOM     10  C   UNL     1       6.292  -5.283  25.018  0.00  0.00    +0.052 A 
ATOM     11  C   UNL     1       5.031  -5.741  25.430  0.00  0.00    +0.110 A 
ATOM     12  C   UNL     1       4.647  -5.676  26.782  0.00  0.00    -0.024 A 
ATOM     13  C   UNL     1       3.301  -6.114  27.286  0.00  0.00    +0.046 C 
ATOM     14  C   UNL     1       5.586  -5.198  27.708  0.00  0.00    +0.007 A 
ATOM     15  C   UNL     1       6.856  -4.785  27.296  0.00  0.00    +0.024 A 
BRANCH  11  16
ATOM     16  S   UNL     1       3.995  -6.484  24.197  0.00  0.00    +0.056 S 
ATOM     17  O   UNL     1       2.877  -5.616  23.904  0.00  0.00    -0.153 OA
ATOM     18  O   UNL     1       3.817  -7.887  24.485  0.00  0.00    -0.153 OA
BRANCH  16  19
ATOM     19  N   UNL     1       4.968  -6.392  22.827  0.00  0.00    -0.204 NA
ATOM     20  H   UNL     1       5.901  -6.068  23.082  0.00  0.00    +0.144 HD
ATOM     21  H   UNL     1       4.508  -5.842  22.104  0.00  0.00    +0.144 HD
ENDBRANCH  16  19
ENDBRANCH  11  16
ENDBRANCH   4   9
BRANCH   1  23
ATOM     22  C   UNL     1       6.388   0.128  24.235  0.00  0.00    +0.137 C 
ATOM     23  N   UNL     1       7.840   0.190  24.418  0.00  0.00    -0.288 N 
BRANCH  23  24
ATOM     24  C   UNL     1       8.430   1.487  24.313  0.00  0.00    +0.037 A 
ATOM     25  C   UNL     1       7.616   2.628  24.664  0.00  0.00    +0.024 A 
ATOM     26  C   UNL     1       8.020   3.979  24.581  0.00  0.00    +0.013 A 
ATOM     27  C   UNL     1       9.324   4.081  24.118  0.00  0.00    +0.023 A 
ATOM     28  C   UNL     1      10.198   2.997  23.763  0.00  0.00    +0.095 A 
ATOM     29  N   UNL     1      11.380   3.498  23.360  0.00  0.00    -0.171 NA
ATOM     30  N   UNL     1      11.247   4.838  23.475  0.00  0.00    -0.270 N 
ATOM     31  C   UNL     1      12.375   5.678  23.138  0.00  0.00    +0.172 C 
ATOM     32  C   UNL     1      10.012   5.252  23.915  0.00  0.00    +0.044 A 
ATOM     33  C   UNL     1       9.612   6.668  24.101  0.00  0.00    +0.066 C 
ATOM     34  C   UNL     1       9.766   1.661  23.855  0.00  0.00    +0.053 A 
ENDBRANCH  23  24
ENDBRANCH   1  23
TORSDOF 5
ENDMDL
MODEL 7
REMARK VINA RESULT:      -7.6      4.627      9.238
REMARK  Name = 
REMARK  9 active torsions:
REMARK  status: ('A' for Active; 'I' for Inactive)
REMARK    1  A    between atoms: C_1  and  N_2
REMARK    2  A    between atoms: N_2  and  C_3
REMARK    3  A    between atoms: N_2  and  C_14
REMARK    4  A    between atoms: N_7  and  C_8
REMARK    5  A    between atoms: C_9  and  C_10
REMARK    6  A    between atoms: N_19  and  C_20
REMARK    7  A    between atoms: C_23  and  C_24
REMARK    8  A    between atoms: C_25  and  S_27
REMARK    9  A    between atoms: S_27  and  N_28
REMARK                            x       y       z     vdW  Elec       q    Type
REMARK                         _______ _______ _______ _____ _____    ______ ____
ROOT
ATOM      1  C   UNL     1       8.559  -1.339  23.914  0.00  0.00    +0.130 A 
ATOM      2  N   UNL     1       8.159  -0.162  23.396  0.00  0.00    -0.199 NA
ATOM      3  C   UNL     1       8.760   0.320  22.297  0.00  0.00    +0.221 A 
ATOM      4  N   UNL     1       8.305   1.497  21.703  0.00  0.00    -0.284 N 
ATOM      5  H   UNL     1       8.904   1.701  20.914  0.00  0.00    +0.155 HD
ATOM      6  N   UNL     1       9.774  -0.291  21.674  0.00  0.00    -0.223 NA
ATOM      7  C   UNL     1      10.201  -1.435  22.226  0.00  0.00    +0.118 A 
ATOM      8  C   UNL     1       9.630  -2.002  23.342  0.00  0.00    +0.064 A 
ENDROOT
BRANCH   4   9
ATOM      9  C   UNL     1       7.776   2.634  22.331  0.00  0.00    +0.035 A 
ATOM     10  C   UNL     1       8.556   3.516  23.084  0.00  0.00    +0.052 A 
ATOM     11  C   UNL     1       7.992   4.666  23.658  0.00  0.00    +0.110 A 
ATOM     12  C   UNL     1       6.616   4.934  23.531  0.00  0.00    -0.024 A 
ATOM     13  C   UNL     1       5.941   6.126  24.149  0.00  0.00    +0.046 C 
ATOM     14  C   UNL     1       5.844   4.050  22.764  0.00  0.00    +0.007 A 
ATOM     15  C   UNL     1       6.421   2.929  22.159  0.00  0.00    +0.024 A 
BRANCH  11  16
ATOM     16  S   UNL     1       9.098   5.799  24.457  0.00  0.00    +0.056 S 
ATOM     17  O   UNL     1       9.051   5.607  25.889  0.00  0.00    -0.153 OA
ATOM     18  O   UNL     1       8.977   7.108  23.859  0.00  0.00    -0.153 OA
BRANCH  16  19
ATOM     19  N   UNL     1      10.600   5.196  24.000  0.00  0.00    -0.204 NA
ATOM     20  H   UNL     1      11.332   5.865  24.238  0.00  0.00    +0.144 HD
ATOM     21  H   UNL     1      10.584   4.911  23.023  0.00  0.00    +0.144 HD
ENDBRANCH  16  19
ENDBRANCH  11  16
ENDBRANCH   4   9
BRANCH   1  23
ATOM     22  C   UNL     1       8.475  -1.673  26.343  0.00  0.00    +0.137 C 
ATOM     23  N   UNL     1       7.861  -1.874  25.029  0.00  0.00    -0.288 N 
BRANCH  23  24
ATOM     24  C   UNL     1       6.897  -2.926  24.942  0.00  0.00    +0.037 A 
ATOM     25  C   UNL     1       6.952  -3.973  25.935  0.00  0.00    +0.024 A 
ATOM     26  C   UNL     1       6.110  -5.106  25.979  0.00  0.00    +0.013 A 
ATOM     27  C   UNL     1       5.198  -5.089  24.932  0.00  0.00    +0.023 A 
ATOM     28  C   UNL     1       5.073  -4.080  23.918  0.00  0.00    +0.095 A 
ATOM     29  N   UNL     1       4.075  -4.416  23.082  0.00  0.00    -0.171 NA
ATOM     30  N   UNL     1       3.591  -5.581  23.569  0.00  0.00    -0.270 N 
ATOM     31  C   UNL     1       2.471  -6.202  22.897  0.00  0.00    +0.172 C 
ATOM     32  C   UNL     1       4.246  -6.047  24.684  0.00  0.00    +0.044 A 
ATOM     33  C   UNL     1       3.922  -7.310  25.389  0.00  0.00    +0.066 C 
ATOM     34  C   UNL     1       5.928  -2.961  23.900  0.00  0.00    +0.053 A 
ENDBRANCH  23  24
ENDBRANCH   1  23
TORSDOF 5
ENDMDL
MODEL 8
REMARK VINA RESULT:      -7.5      3.619      8.741
REMARK  Name = 
REMARK  9 active torsions:
REMARK  status: ('A' for Active; 'I' for Inactive)
REMARK    1  A    between atoms: C_1  and  N_2
REMARK    2  A    between atoms: N_2  and  C_3
REMARK    3  A    between atoms: N_2  and  C_14
REMARK    4  A    between atoms: N_7  and  C_8
REMARK    5  A    between atoms: C_9  and  C_10
REMARK    6  A    between atoms: N_19  and  C_20
REMARK    7  A    between atoms: C_23  and  C_24
REMARK    8  A    between atoms: C_25  and  S_27
REMARK    9  A    between atoms: S_27  and  N_28
REMARK                            x       y       z     vdW  Elec       q    Type
REMARK                         _______ _______ _______ _____ _____    ______ ____
ROOT
ATOM      1  C   UNL     1       7.325  -4.056  25.383  0.00  0.00    +0.130 A 
ATOM      2  N   UNL     1       7.859  -2.970  24.790  0.00  0.00    -0.199 NA
ATOM      3  C   UNL     1       9.124  -3.011  24.342  0.00  0.00    +0.221 A 
ATOM      4  N   UNL     1       9.664  -1.923  23.656  0.00  0.00    -0.284 N 
ATOM      5  H   UNL     1      10.626  -2.141  23.433  0.00  0.00    +0.155 HD
ATOM      6  N   UNL     1       9.924  -4.076  24.466  0.00  0.00    -0.223 NA
ATOM      7  C   UNL     1       9.403  -5.133  25.104  0.00  0.00    +0.118 A 
ATOM      8  C   UNL     1       8.112  -5.177  25.579  0.00  0.00    +0.064 A 
ENDROOT
BRANCH   4   9
ATOM      9  C   UNL     1       9.419  -0.558  23.869  0.00  0.00    +0.035 A 
ATOM     10  C   UNL     1       8.131  -0.026  23.965  0.00  0.00    +0.052 A 
ATOM     11  C   UNL     1       7.934   1.340  24.224  0.00  0.00    +0.110 A 
ATOM     12  C   UNL     1       9.029   2.216  24.343  0.00  0.00    -0.024 A 
ATOM     13  C   UNL     1       8.889   3.692  24.584  0.00  0.00    +0.046 C 
ATOM     14  C   UNL     1      10.318   1.670  24.257  0.00  0.00    +0.007 A 
ATOM     15  C   UNL     1      10.507   0.301  24.042  0.00  0.00    +0.024 A 
BRANCH  11  16
ATOM     16  S   UNL     1       6.266   1.883  24.485  0.00  0.00    +0.056 S 
ATOM     17  O   UNL     1       5.764   2.524  23.291  0.00  0.00    -0.153 OA
ATOM     18  O   UNL     1       6.147   2.495  25.787  0.00  0.00    -0.153 OA
BRANCH  16  19
ATOM     19  N   UNL     1       5.435   0.422  24.559  0.00  0.00    -0.204 NA
ATOM     20  H   UNL     1       5.808  -0.228  23.868  0.00  0.00    +0.144 HD
ATOM     21  H   UNL     1       4.431   0.584  24.494  0.00  0.00    +0.144 HD
ENDBRANCH  16  19
ENDBRANCH  11  16
ENDBRANCH   4   9
BRANCH   1  23
ATOM     22  C   UNL     1       5.686  -3.541  27.133  0.00  0.00    +0.137 C 
ATOM     23  N   UNL     1       5.962  -4.024  25.779  0.00  0.00    -0.288 N 
BRANCH  23  24
ATOM     24  C   UNL     1       4.932  -4.805  25.169  0.00  0.00    +0.037 A 
ATOM     25  C   UNL     1       4.257  -4.249  24.019  0.00  0.00    +0.024 A 
ATOM     26  C   UNL     1       3.192  -4.860  23.320  0.00  0.00    +0.013 A 
ATOM     27  C   UNL     1       2.869  -6.089  23.880  0.00  0.00    +0.023 A 
ATOM     28  C   UNL     1       3.501  -6.711  25.010  0.00  0.00    +0.095 A 
ATOM     29  N   UNL     1       2.909  -7.895  25.249  0.00  0.00    -0.171 NA
ATOM     30  N   UNL     1       1.958  -8.007  24.295  0.00  0.00    -0.270 N 
ATOM     31  C   UNL     1       1.148  -9.205  24.260  0.00  0.00    +0.172 C 
ATOM     32  C   UNL     1       1.876  -6.930  23.443  0.00  0.00    +0.044 A 
ATOM     33  C   UNL     1       0.902  -6.803  22.332  0.00  0.00    +0.066 C 
ATOM     34  C   UNL     1       4.560  -6.077  25.687  0.00  0.00    +0.053 A 
ENDBRANCH  23  24
ENDBRANCH   1  23
TORSDOF 5
ENDMDL
MODEL 9
REMARK VINA RESULT:      -7.4      4.402      9.129
REMARK  Name = 
REMARK  9 active torsions:
REMARK  status: ('A' for Active; 'I' for Inactive)
REMARK    1  A    between atoms: C_1  and  N_2
REMARK    2  A    between atoms: N_2  and  C_3
REMARK    3  A    between atoms: N_2  and  C_14
REMARK    4  A    between atoms: N_7  and  C_8
REMARK    5  A    between atoms: C_9  and  C_10
REMARK    6  A    between atoms: N_19  and  C_20
REMARK    7  A    between atoms: C_23  and  C_24
REMARK    8  A    between atoms: C_25  and  S_27
REMARK    9  A    between atoms: S_27  and  N_28
REMARK                            x       y       z     vdW  Elec       q    Type
REMARK                         _______ _______ _______ _____ _____    ______ ____
ROOT
ATOM      1  C   UNL     1       8.479  -1.357  23.891  0.00  0.00    +0.130 A 
ATOM      2  N   UNL     1       8.095  -0.175  23.371  0.00  0.00    -0.199 NA
ATOM      3  C   UNL     1       8.710   0.301  22.277  0.00  0.00    +0.221 A 
ATOM      4  N   UNL     1       8.271   1.484  21.681  0.00  0.00    -0.284 N 
ATOM      5  H   UNL     1       8.878   1.682  20.897  0.00  0.00    +0.155 HD
ATOM      6  N   UNL     1       9.721  -0.320  21.661  0.00  0.00    -0.223 NA
ATOM      7  C   UNL     1      10.132  -1.469  22.215  0.00  0.00    +0.118 A 
ATOM      8  C   UNL     1       9.547  -2.032  23.326  0.00  0.00    +0.064 A 
ENDROOT
BRANCH   4   9
ATOM      9  C   UNL     1       7.751   2.626  22.307  0.00  0.00    +0.035 A 
ATOM     10  C   UNL     1       6.386   2.928  22.320  0.00  0.00    +0.052 A 
ATOM     11  C   UNL     1       5.905   4.059  22.999  0.00  0.00    +0.110 A 
ATOM     12  C   UNL     1       6.790   4.945  23.640  0.00  0.00    -0.024 A 
ATOM     13  C   UNL     1       6.347   6.192  24.352  0.00  0.00    +0.046 C 
ATOM     14  C   UNL     1       8.156   4.628  23.631  0.00  0.00    +0.007 A 
ATOM     15  C   UNL     1       8.624   3.477  22.990  0.00  0.00    +0.024 A 
BRANCH  11  16
ATOM     16  S   UNL     1       4.146   4.263  23.089  0.00  0.00    +0.056 S 
ATOM     17  O   UNL     1       3.741   5.409  22.308  0.00  0.00    -0.153 OA
ATOM     18  O   UNL     1       3.698   4.069  24.448  0.00  0.00    -0.153 OA
BRANCH  16  19
ATOM     19  N   UNL     1       3.599   2.938  22.206  0.00  0.00    -0.204 NA
ATOM     20  H   UNL     1       2.594   2.825  22.334  0.00  0.00    +0.144 HD
ATOM     21  H   UNL     1       4.153   2.113  22.429  0.00  0.00    +0.144 HD
ENDBRANCH  16  19
ENDBRANCH  11  16
ENDBRANCH   4   9
BRANCH   1  23
ATOM     22  C   UNL     1       8.358  -1.664  26.322  0.00  0.00    +0.137 C 
ATOM     23  N   UNL     1       7.767  -1.886  25.000  0.00  0.00    -0.288 N 
BRANCH  23  24
ATOM     24  C   UNL     1       6.814  -2.947  24.910  0.00  0.00    +0.037 A 
ATOM     25  C   UNL     1       6.918  -4.028  25.863  0.00  0.00    +0.024 A 
ATOM     26  C   UNL     1       6.092  -5.173  25.896  0.00  0.00    +0.013 A 
ATOM     27  C   UNL     1       5.142  -5.131  24.883  0.00  0.00    +0.023 A 
ATOM     28  C   UNL     1       4.969  -4.088  23.911  0.00  0.00    +0.095 A 
ATOM     29  N   UNL     1       3.945  -4.408  23.099  0.00  0.00    -0.171 NA
ATOM     30  N   UNL     1       3.494  -5.596  23.560  0.00  0.00    -0.270 N 
ATOM     31  C   UNL     1       2.358  -6.208  22.907  0.00  0.00    +0.172 C 
ATOM     32  C   UNL     1       4.195  -6.093  24.634  0.00  0.00    +0.044 A 
ATOM     33  C   UNL     1       3.911  -7.384  25.305  0.00  0.00    +0.066 C 
ATOM     34  C   UNL     1       5.809  -2.958  23.903  0.00  0.00    +0.053 A 
ENDBRANCH  23  24
ENDBRANCH   1  23
TORSDOF 5
ENDMDL
