MODEL 1
REMARK VINA RESULT:      -7.1      0.000      0.000
REMARK  Name = 
REMARK  14 active torsions:
REMARK  status: ('A' for Active; 'I' for Inactive)
REMARK    1  A    between atoms: C_2  and  C_32
REMARK    2  A    between atoms: C_4  and  C_5
REMARK    3  A    between atoms: C_4  and  C_29
REMARK    4  A    between atoms: C_5  and  C_6
REMARK    5  A    between atoms: C_6  and  C_7
REMARK    6  A    between atoms: C_6  and  C_8
REMARK    7  A    between atoms: C_10  and  C_12
REMARK    8  A    between atoms: C_15  and  C_18
REMARK    9  A    between atoms: C_18  and  C_19
REMARK   10  A    between atoms: C_18  and  C_20
REMARK   11  A    between atoms: C_18  and  C_21
REMARK   12  A    between atoms: C_22  and  C_24
REMARK   13  A    between atoms: C_29  and  O_30
REMARK   14  A    between atoms: C_32  and  O_33
REMARK                            x       y       z     vdW  Elec       q    Type
REMARK                         _______ _______ _______ _____ _____    ______ ____
ROOT
ATOM      1  C   UNL     1       7.735  -0.505  25.677  0.00  0.00    +0.127 C 
ATOM      2  C   UNL     1       6.914  -1.748  25.275  0.00  0.00    +0.147 C 
ATOM      3  N   UNL     1       7.292  -2.005  23.855  0.00  0.00    -0.271 N 
ATOM      4  C   UNL     1       6.596  -2.760  22.904  0.00  0.00    +0.248 C 
ATOM      5  O   UNL     1       6.979  -2.750  21.728  0.00  0.00    -0.270 OA
ATOM      6  C   UNL     1       8.496  -1.163  23.469  0.00  0.00    +0.136 C 
ATOM      7  C   UNL     1       8.992  -0.658  24.848  0.00  0.00    +0.054 C 
ENDROOT
BRANCH   4   8
ATOM      8  C   UNL     1       5.452  -3.676  23.213  0.00  0.00    +0.037 A 
ATOM      9  C   UNL     1       5.420  -4.930  22.583  0.00  0.00    +0.013 A 
ATOM     10  C   UNL     1       4.376  -5.846  22.821  0.00  0.00    +0.005 A 
ATOM     11  C   UNL     1       3.340  -5.553  23.724  0.00  0.00    -0.042 A 
ATOM     12  C   UNL     1       3.353  -4.272  24.294  0.00  0.00    +0.005 A 
ATOM     13  C   UNL     1       4.366  -3.339  24.012  0.00  0.00    +0.013 A 
BRANCH  11  14
ATOM     14  C   UNL     1       2.245  -6.587  24.053  0.00  0.00    -0.013 C 
ATOM     15  C   UNL     1       2.850  -7.791  24.808  0.00  0.00    +0.015 C 
ATOM     16  C   UNL     1       1.585  -7.091  22.755  0.00  0.00    +0.015 C 
ATOM     17  C   UNL     1       1.122  -6.022  24.957  0.00  0.00    +0.015 C 
ENDBRANCH  11  14
ENDBRANCH   4   8
BRANCH   2  18
ATOM     18  C   UNL     1       7.206  -2.945  26.150  0.00  0.00    +0.099 A 
ATOM     19  S   UNL     1       8.641  -3.873  25.894  0.00  0.00    -0.079 S 
ATOM     20  C   UNL     1       8.028  -5.087  26.930  0.00  0.00    +0.066 A 
ATOM     21  C   UNL     1       6.831  -4.672  27.471  0.00  0.00    +0.119 A 
ATOM     22  N   UNL     1       6.369  -3.444  27.037  0.00  0.00    -0.250 NA
ENDBRANCH   2  18
BRANCH   1  23
ATOM     23  C   UNL     1       7.926  -0.334  27.168  0.00  0.00    +0.310 C 
ATOM     24  O   UNL     1       7.027   0.042  27.911  0.00  0.00    -0.251 OA
BRANCH  23  25
ATOM     25  O   UNL     1       9.180  -0.508  27.634  0.00  0.00    -0.480 OA
ATOM     26  H   UNL     1       9.290  -0.637  28.597  0.00  0.00    +0.295 HD
ENDBRANCH  23  25
ENDBRANCH   1  23
BRANCH   6  27
ATOM     27  C   UNL     1       9.698  -1.953  22.862  0.00  0.00    +0.329 C 
ATOM     28  O   UNL     1      10.476  -2.625  23.542  0.00  0.00    -0.249 OA
BRANCH  27  29
ATOM     29  O   UNL     1       9.936  -1.768  21.547  0.00  0.00    -0.479 OA
ATOM     30  H   UNL     1       9.961  -0.815  21.287  0.00  0.00    +0.295 HD
ENDBRANCH  27  29
ENDBRANCH   6  27
BRANCH   6  31
ATOM     31  C   UNL     1       8.037   0.027  22.553  0.00  0.00    +0.040 C 
BRANCH  31  32
ATOM     32  C   UNL     1       8.651   1.437  22.766  0.00  0.00    -0.015 C 
ATOM     33  C   UNL     1       7.655   2.527  22.337  0.00  0.00    +0.007 C 
ATOM     34  C   UNL     1       9.955   1.657  22.001  0.00  0.00    +0.007 C 
ENDBRANCH  31  32
ENDBRANCH   6  31
TORSDOF 9
ENDMDL
MODEL 2
REMARK VINA RESULT:      -7.0      2.874      7.462
REMARK  Name = 
REMARK  14 active torsions:
REMARK  status: ('A' for Active; 'I' for Inactive)
REMARK    1  A    between atoms: C_2  and  C_32
REMARK    2  A    between atoms: C_4  and  C_5
REMARK    3  A    between atoms: C_4  and  C_29
REMARK    4  A    between atoms: C_5  and  C_6
REMARK    5  A    between atoms: C_6  and  C_7
REMARK    6  A    between atoms: C_6  and  C_8
REMARK    7  A    between atoms: C_10  and  C_12
REMARK    8  A    between atoms: C_15  and  C_18
REMARK    9  A    between atoms: C_18  and  C_19
REMARK   10  A    between atoms: C_18  and  C_20
REMARK   11  A    between atoms: C_18  and  C_21
REMARK   12  A    between atoms: C_22  and  C_24
REMARK   13  A    between atoms: C_29  and  O_30
REMARK   14  A    between atoms: C_32  and  O_33
REMARK                            x       y       z     vdW  Elec       q    Type
REMARK                         _______ _______ _______ _____ _____    ______ ____
ROOT
ATOM      1  C   UNL     1       4.098  -5.299  24.969  0.00  0.00    +0.127 C 
ATOM      2  C   UNL     1       5.134  -4.219  24.590  0.00  0.00    +0.147 C 
ATOM      3  N   UNL     1       5.907  -3.983  25.843  0.00  0.00    -0.271 N 
ATOM      4  C   UNL     1       6.700  -2.877  26.168  0.00  0.00    +0.248 C 
ATOM      5  O   UNL     1       7.156  -2.777  27.313  0.00  0.00    -0.270 OA
ATOM      6  C   UNL     1       5.584  -5.053  26.872  0.00  0.00    +0.136 C 
ATOM      7  C   UNL     1       4.833  -6.107  26.016  0.00  0.00    +0.054 C 
ENDROOT
BRANCH   4   8
ATOM      8  C   UNL     1       7.131  -1.821  25.196  0.00  0.00    +0.037 A 
ATOM      9  C   UNL     1       8.504  -1.684  24.934  0.00  0.00    +0.013 A 
ATOM     10  C   UNL     1       8.986  -0.714  24.034  0.00  0.00    +0.005 A 
ATOM     11  C   UNL     1       8.110   0.136  23.338  0.00  0.00    -0.042 A 
ATOM     12  C   UNL     1       6.750   0.029  23.660  0.00  0.00    +0.005 A 
ATOM     13  C   UNL     1       6.276  -0.903  24.600  0.00  0.00    +0.013 A 
BRANCH  11  14
ATOM     14  C   UNL     1       8.629   1.138  22.288  0.00  0.00    -0.013 C 
ATOM     15  C   UNL     1       7.472   2.020  21.767  0.00  0.00    +0.015 C 
ATOM     16  C   UNL     1       9.256   0.383  21.099  0.00  0.00    +0.015 C 
ATOM     17  C   UNL     1       9.701   2.106  22.843  0.00  0.00    +0.015 C 
ENDBRANCH  11  14
ENDBRANCH   4   8
BRANCH   2  18
ATOM     18  C   UNL     1       6.035  -4.651  23.456  0.00  0.00    +0.099 A 
ATOM     19  S   UNL     1       5.883  -3.912  21.902  0.00  0.00    -0.079 S 
ATOM     20  C   UNL     1       6.884  -5.127  21.238  0.00  0.00    +0.066 A 
ATOM     21  C   UNL     1       7.340  -5.951  22.243  0.00  0.00    +0.119 A 
ATOM     22  N   UNL     1       6.867  -5.671  23.511  0.00  0.00    -0.250 NA
ENDBRANCH   2  18
BRANCH   1  23
ATOM     23  C   UNL     1       3.536  -6.068  23.795  0.00  0.00    +0.310 C 
ATOM     24  O   UNL     1       2.699  -5.596  23.035  0.00  0.00    -0.251 OA
BRANCH  23  25
ATOM     25  O   UNL     1       3.917  -7.358  23.687  0.00  0.00    -0.480 OA
ATOM     26  H   UNL     1       4.855  -7.568  23.869  0.00  0.00    +0.295 HD
ENDBRANCH  23  25
ENDBRANCH   1  23
BRANCH   6  27
ATOM     27  C   UNL     1       6.817  -5.806  27.464  0.00  0.00    +0.329 C 
ATOM     28  O   UNL     1       6.860  -6.224  28.624  0.00  0.00    -0.249 OA
BRANCH  27  29
ATOM     29  O   UNL     1       7.913  -5.871  26.681  0.00  0.00    -0.479 OA
ATOM     30  H   UNL     1       7.779  -6.419  25.870  0.00  0.00    +0.295 HD
ENDBRANCH  27  29
ENDBRANCH   6  27
BRANCH   6  31
ATOM     31  C   UNL     1       4.656  -4.452  27.987  0.00  0.00    +0.040 C 
BRANCH  31  32
ATOM     32  C   UNL     1       3.459  -5.287  28.519  0.00  0.00    -0.015 C 
ATOM     33  C   UNL     1       2.150  -4.493  28.387  0.00  0.00    +0.007 C 
ATOM     34  C   UNL     1       3.613  -5.713  29.977  0.00  0.00    +0.007 C 
ENDBRANCH  31  32
ENDBRANCH   6  31
TORSDOF 9
ENDMDL
MODEL 3
REMARK VINA RESULT:      -6.8      2.262      7.492
REMARK  Name = 
REMARK  14 active torsions:
REMARK  status: ('A' for Active; 'I' for Inactive)
REMARK    1  A    between atoms: C_2  and  C_32
REMARK    2  A    between atoms: C_4  and  C_5
REMARK    3  A    between atoms: C_4  and  C_29
REMARK    4  A    between atoms: C_5  and  C_6
REMARK    5  A    between atoms: C_6  and  C_7
REMARK    6  A    between atoms: C_6  and  C_8
REMARK    7  A    between atoms: C_10  and  C_12
REMARK    8  A    between atoms: C_15  and  C_18
REMARK    9  A    between atoms: C_18  and  C_19
REMARK   10  A    between atoms: C_18  and  C_20
REMARK   11  A    between atoms: C_18  and  C_21
REMARK   12  A    between atoms: C_22  and  C_24
REMARK   13  A    between atoms: C_29  and  O_30
REMARK   14  A    between atoms: C_32  and  O_33
REMARK                            x       y       z     vdW  Elec       q    Type
REMARK                         _______ _______ _______ _____ _____    ______ ____
ROOT
ATOM      1  C   UNL     1       6.169  -4.406  23.137  0.00  0.00    +0.127 C 
ATOM      2  C   UNL     1       6.586  -2.975  23.534  0.00  0.00    +0.147 C 
ATOM      3  N   UNL     1       6.583  -2.982  25.025  0.00  0.00    -0.271 N 
ATOM      4  C   UNL     1       6.525  -1.883  25.889  0.00  0.00    +0.248 C 
ATOM      5  O   UNL     1       6.385  -2.076  27.103  0.00  0.00    -0.270 OA
ATOM      6  C   UNL     1       6.462  -4.404  25.546  0.00  0.00    +0.136 C 
ATOM      7  C   UNL     1       6.733  -5.239  24.268  0.00  0.00    +0.054 C 
ENDROOT
BRANCH   4   8
ATOM      8  C   UNL     1       6.715  -0.457  25.470  0.00  0.00    +0.037 A 
ATOM      9  C   UNL     1       7.993   0.108  25.606  0.00  0.00    +0.013 A 
ATOM     10  C   UNL     1       8.249   1.442  25.235  0.00  0.00    +0.005 A 
ATOM     11  C   UNL     1       7.243   2.254  24.685  0.00  0.00    -0.042 A 
ATOM     12  C   UNL     1       5.959   1.695  24.618  0.00  0.00    +0.005 A 
ATOM     13  C   UNL     1       5.693   0.381  25.040  0.00  0.00    +0.013 A 
BRANCH  11  14
ATOM     14  C   UNL     1       7.542   3.685  24.197  0.00  0.00    -0.013 C 
ATOM     15  C   UNL     1       9.045   4.005  24.354  0.00  0.00    +0.015 C 
ATOM     16  C   UNL     1       6.726   4.705  25.016  0.00  0.00    +0.015 C 
ATOM     17  C   UNL     1       7.199   3.907  22.704  0.00  0.00    +0.015 C 
ENDBRANCH  11  14
ENDBRANCH   4   8
BRANCH   2  18
ATOM     18  C   UNL     1       7.941  -2.591  22.985  0.00  0.00    +0.099 A 
ATOM     19  S   UNL     1       9.362  -2.853  23.933  0.00  0.00    -0.079 S 
ATOM     20  C   UNL     1      10.256  -1.892  22.838  0.00  0.00    +0.066 A 
ATOM     21  C   UNL     1       9.450  -1.517  21.786  0.00  0.00    +0.119 A 
ATOM     22  N   UNL     1       8.132  -1.928  21.863  0.00  0.00    -0.250 NA
ENDBRANCH   2  18
BRANCH   1  23
ATOM     23  C   UNL     1       6.569  -4.811  21.736  0.00  0.00    +0.310 C 
ATOM     24  O   UNL     1       7.443  -5.639  21.510  0.00  0.00    -0.251 OA
BRANCH  23  25
ATOM     25  O   UNL     1       5.992  -4.123  20.727  0.00  0.00    -0.480 OA
ATOM     26  H   UNL     1       6.307  -3.212  20.563  0.00  0.00    +0.295 HD
ENDBRANCH  23  25
ENDBRANCH   1  23
BRANCH   6  27
ATOM     27  C   UNL     1       7.563  -4.839  26.564  0.00  0.00    +0.329 C 
ATOM     28  O   UNL     1       8.681  -5.230  26.223  0.00  0.00    -0.249 OA
BRANCH  27  29
ATOM     29  O   UNL     1       7.193  -4.894  27.860  0.00  0.00    -0.479 OA
ATOM     30  H   UNL     1       7.527  -5.698  28.326  0.00  0.00    +0.295 HD
ENDBRANCH  27  29
ENDBRANCH   6  27
BRANCH   6  31
ATOM     31  C   UNL     1       5.010  -4.645  26.093  0.00  0.00    +0.040 C 
BRANCH  31  32
ATOM     32  C   UNL     1       4.365  -6.051  25.957  0.00  0.00    -0.015 C 
ATOM     33  C   UNL     1       2.994  -5.949  25.270  0.00  0.00    +0.007 C 
ATOM     34  C   UNL     1       4.176  -6.767  27.293  0.00  0.00    +0.007 C 
ENDBRANCH  31  32
ENDBRANCH   6  31
TORSDOF 9
ENDMDL
MODEL 4
REMARK VINA RESULT:      -6.4      2.754      7.821
REMARK  Name = 
REMARK  14 active torsions:
REMARK  status: ('A' for Active; 'I' for Inactive)
REMARK    1  A    between atoms: C_2  and  C_32
REMARK    2  A    between atoms: C_4  and  C_5
REMARK    3  A    between atoms: C_4  and  C_29
REMARK    4  A    between atoms: C_5  and  C_6
REMARK    5  A    between atoms: C_6  and  C_7
REMARK    6  A    between atoms: C_6  and  C_8
REMARK    7  A    between atoms: C_10  and  C_12
REMARK    8  A    between atoms: C_15  and  C_18
REMARK    9  A    between atoms: C_18  and  C_19
REMARK   10  A    between atoms: C_18  and  C_20
REMARK   11  A    between atoms: C_18  and  C_21
REMARK   12  A    between atoms: C_22  and  C_24
REMARK   13  A    between atoms: C_29  and  O_30
REMARK   14  A    between atoms: C_32  and  O_33
REMARK                            x       y       z     vdW  Elec       q    Type
REMARK                         _______ _______ _______ _____ _____    ______ ____
ROOT
ATOM      1  C   UNL     1       8.241  -1.751  22.945  0.00  0.00    +0.127 C 
ATOM      2  C   UNL     1       7.861  -0.281  23.218  0.00  0.00    +0.147 C 
ATOM      3  N   UNL     1       6.779  -0.355  24.242  0.00  0.00    -0.271 N 
ATOM      4  C   UNL     1       5.839   0.627  24.572  0.00  0.00    +0.248 C 
ATOM      5  O   UNL     1       4.918   0.345  25.347  0.00  0.00    -0.270 OA
ATOM      6  C   UNL     1       6.681  -1.763  24.804  0.00  0.00    +0.136 C 
ATOM      7  C   UNL     1       7.992  -2.409  24.285  0.00  0.00    +0.054 C 
ENDROOT
BRANCH   4   8
ATOM      8  C   UNL     1       5.907   2.056  24.126  0.00  0.00    +0.037 A 
ATOM      9  C   UNL     1       6.055   3.049  25.108  0.00  0.00    +0.013 A 
ATOM     10  C   UNL     1       6.124   4.414  24.768  0.00  0.00    +0.005 A 
ATOM     11  C   UNL     1       6.079   4.836  23.428  0.00  0.00    -0.042 A 
ATOM     12  C   UNL     1       5.865   3.837  22.467  0.00  0.00    +0.005 A 
ATOM     13  C   UNL     1       5.741   2.481  22.814  0.00  0.00    +0.013 A 
BRANCH  11  14
ATOM     14  C   UNL     1       6.242   6.320  23.047  0.00  0.00    -0.013 C 
ATOM     15  C   UNL     1       7.176   6.463  21.825  0.00  0.00    +0.015 C 
ATOM     16  C   UNL     1       6.842   7.107  24.229  0.00  0.00    +0.015 C 
ATOM     17  C   UNL     1       4.908   7.004  22.662  0.00  0.00    +0.015 C 
ENDBRANCH  11  14
ENDBRANCH   4   8
BRANCH   2  18
ATOM     18  C   UNL     1       9.031   0.541  23.707  0.00  0.00    +0.099 A 
ATOM     19  S   UNL     1       9.643   1.834  22.739  0.00  0.00    -0.079 S 
ATOM     20  C   UNL     1      11.016   1.929  23.753  0.00  0.00    +0.066 A 
ATOM     21  C   UNL     1      10.878   1.048  24.802  0.00  0.00    +0.119 A 
ATOM     22  N   UNL     1       9.738   0.265  24.784  0.00  0.00    -0.250 NA
ENDBRANCH   2  18
BRANCH   1  23
ATOM     23  C   UNL     1       9.615  -1.943  22.343  0.00  0.00    +0.310 C 
ATOM     24  O   UNL     1      10.545  -2.444  22.963  0.00  0.00    -0.251 OA
BRANCH  23  25
ATOM     25  O   UNL     1       9.806  -1.424  21.111  0.00  0.00    -0.480 OA
ATOM     26  H   UNL     1      10.040  -2.044  20.392  0.00  0.00    +0.295 HD
ENDBRANCH  23  25
ENDBRANCH   1  23
BRANCH   6  27
ATOM     27  C   UNL     1       6.758  -1.869  26.360  0.00  0.00    +0.329 C 
ATOM     28  O   UNL     1       5.913  -2.457  27.039  0.00  0.00    -0.249 OA
BRANCH  27  29
ATOM     29  O   UNL     1       7.740  -1.166  26.961  0.00  0.00    -0.479 OA
ATOM     30  H   UNL     1       8.564  -1.108  26.420  0.00  0.00    +0.295 HD
ENDBRANCH  27  29
ENDBRANCH   6  27
BRANCH   6  31
ATOM     31  C   UNL     1       5.415  -2.481  24.217  0.00  0.00    +0.040 C 
BRANCH  31  32
ATOM     32  C   UNL     1       5.513  -3.966  23.774  0.00  0.00    -0.015 C 
ATOM     33  C   UNL     1       5.463  -4.074  22.242  0.00  0.00    +0.007 C 
ATOM     34  C   UNL     1       4.408  -4.849  24.350  0.00  0.00    +0.007 C 
ENDBRANCH  31  32
ENDBRANCH   6  31
TORSDOF 9
ENDMDL
MODEL 5
REMARK VINA RESULT:      -6.2      3.134      5.283
REMARK  Name = 
REMARK  14 active torsions:
REMARK  status: ('A' for Active; 'I' for Inactive)
REMARK    1  A    between atoms: C_2  and  C_32
REMARK    2  A    between atoms: C_4  and  C_5
REMARK    3  A    between atoms: C_4  and  C_29
REMARK    4  A    between atoms: C_5  and  C_6
REMARK    5  A    between atoms: C_6  and  C_7
REMARK    6  A    between atoms: C_6  and  C_8
REMARK    7  A    between atoms: C_10  and  C_12
REMARK    8  A    between atoms: C_15  and  C_18
REMARK    9  A    between atoms: C_18  and  C_19
REMARK   10  A    between atoms: C_18  and  C_20
REMARK   11  A    between atoms: C_18  and  C_21
REMARK   12  A    between atoms: C_22  and  C_24
REMARK   13  A    between atoms: C_29  and  O_30
REMARK   14  A    between atoms: C_32  and  O_33
REMARK                            x       y       z     vdW  Elec       q    Type
REMARK                         _______ _______ _______ _____ _____    ______ ____
ROOT
ATOM      1  C   UNL     1       9.156   2.522  24.348  0.00  0.00    +0.127 C 
ATOM      2  C   UNL     1       8.445   1.162  24.513  0.00  0.00    +0.147 C 
ATOM      3  N   UNL     1       6.993   1.498  24.540  0.00  0.00    -0.271 N 
ATOM      4  C   UNL     1       5.939   0.716  25.028  0.00  0.00    +0.248 C 
ATOM      5  O   UNL     1       4.808   1.210  25.105  0.00  0.00    -0.270 OA
ATOM      6  C   UNL     1       6.777   2.942  24.121  0.00  0.00    +0.136 C 
ATOM      7  C   UNL     1       8.161   3.316  23.530  0.00  0.00    +0.054 C 
ENDROOT
BRANCH   4   8
ATOM      8  C   UNL     1       6.049  -0.734  25.387  0.00  0.00    +0.037 A 
ATOM      9  C   UNL     1       5.653  -1.684  24.430  0.00  0.00    +0.013 A 
ATOM     10  C   UNL     1       5.725  -3.066  24.695  0.00  0.00    +0.005 A 
ATOM     11  C   UNL     1       6.224  -3.551  25.915  0.00  0.00    -0.042 A 
ATOM     12  C   UNL     1       6.552  -2.589  26.881  0.00  0.00    +0.005 A 
ATOM     13  C   UNL     1       6.428  -1.211  26.635  0.00  0.00    +0.013 A 
BRANCH  11  14
ATOM     14  C   UNL     1       6.386  -5.062  26.174  0.00  0.00    -0.013 C 
ATOM     15  C   UNL     1       7.879  -5.459  26.132  0.00  0.00    +0.015 C 
ATOM     16  C   UNL     1       5.625  -5.867  25.102  0.00  0.00    +0.015 C 
ATOM     17  C   UNL     1       5.852  -5.507  27.557  0.00  0.00    +0.015 C 
ENDBRANCH  11  14
ENDBRANCH   4   8
BRANCH   2  18
ATOM     18  C   UNL     1       8.770   0.197  23.396  0.00  0.00    +0.099 A 
ATOM     19  S   UNL     1       9.540  -1.308  23.753  0.00  0.00    -0.079 S 
ATOM     20  C   UNL     1       9.836  -1.538  22.085  0.00  0.00    +0.066 A 
ATOM     21  C   UNL     1       9.256  -0.517  21.367  0.00  0.00    +0.119 A 
ATOM     22  N   UNL     1       8.635   0.466  22.114  0.00  0.00    -0.250 NA
ENDBRANCH   2  18
BRANCH   1  23
ATOM     23  C   UNL     1      10.562   2.432  23.799  0.00  0.00    +0.310 C 
ATOM     24  O   UNL     1      11.408   1.678  24.265  0.00  0.00    -0.251 OA
BRANCH  23  25
ATOM     25  O   UNL     1      10.884   3.316  22.831  0.00  0.00    -0.480 OA
ATOM     26  H   UNL     1      11.206   2.957  21.980  0.00  0.00    +0.295 HD
ENDBRANCH  23  25
ENDBRANCH   1  23
BRANCH   6  27
ATOM     27  C   UNL     1       5.759   3.155  22.956  0.00  0.00    +0.329 C 
ATOM     28  O   UNL     1       6.088   3.173  21.768  0.00  0.00    -0.249 OA
BRANCH  27  29
ATOM     29  O   UNL     1       4.493   3.453  23.313  0.00  0.00    -0.479 OA
ATOM     30  H   UNL     1       3.818   2.901  22.850  0.00  0.00    +0.295 HD
ENDBRANCH  27  29
ENDBRANCH   6  27
BRANCH   6  31
ATOM     31  C   UNL     1       6.436   3.814  25.382  0.00  0.00    +0.040 C 
BRANCH  31  32
ATOM     32  C   UNL     1       6.752   5.334  25.369  0.00  0.00    -0.015 C 
ATOM     33  C   UNL     1       7.801   5.674  26.439  0.00  0.00    +0.007 C 
ATOM     34  C   UNL     1       5.526   6.214  25.608  0.00  0.00    +0.007 C 
ENDBRANCH  31  32
ENDBRANCH   6  31
TORSDOF 9
ENDMDL
MODEL 6
REMARK VINA RESULT:      -5.8      3.140      7.371
REMARK  Name = 
REMARK  14 active torsions:
REMARK  status: ('A' for Active; 'I' for Inactive)
REMARK    1  A    between atoms: C_2  and  C_32
REMARK    2  A    between atoms: C_4  and  C_5
REMARK    3  A    between atoms: C_4  and  C_29
REMARK    4  A    between atoms: C_5  and  C_6
REMARK    5  A    between atoms: C_6  and  C_7
REMARK    6  A    between atoms: C_6  and  C_8
REMARK    7  A    between atoms: C_10  and  C_12
REMARK    8  A    between atoms: C_15  and  C_18
REMARK    9  A    between atoms: C_18  and  C_19
REMARK   10  A    between atoms: C_18  and  C_20
REMARK   11  A    between atoms: C_18  and  C_21
REMARK   12  A    between atoms: C_22  and  C_24
REMARK   13  A    between atoms: C_29  and  O_30
REMARK   14  A    between atoms: C_32  and  O_33
REMARK                            x       y       z     vdW  Elec       q    Type
REMARK                         _______ _______ _______ _____ _____    ______ ____
ROOT
ATOM      1  C   UNL     1       8.173  -1.693  22.669  0.00  0.00    +0.127 C 
ATOM      2  C   UNL     1       7.792  -0.583  23.671  0.00  0.00    +0.147 C 
ATOM      3  N   UNL     1       7.165  -1.307  24.814  0.00  0.00    -0.271 N 
ATOM      4  C   UNL     1       6.326  -0.786  25.805  0.00  0.00    +0.248 C 
ATOM      5  O   UNL     1       5.776  -1.559  26.598  0.00  0.00    -0.270 OA
ATOM      6  C   UNL     1       7.399  -2.803  24.683  0.00  0.00    +0.136 C 
ATOM      7  C   UNL     1       8.484  -2.863  23.577  0.00  0.00    +0.054 C 
ENDROOT
BRANCH   4   8
ATOM      8  C   UNL     1       6.103   0.675  26.052  0.00  0.00    +0.037 A 
ATOM      9  C   UNL     1       6.938   1.324  26.977  0.00  0.00    +0.013 A 
ATOM     10  C   UNL     1       6.789   2.695  27.264  0.00  0.00    +0.005 A 
ATOM     11  C   UNL     1       5.819   3.476  26.614  0.00  0.00    -0.042 A 
ATOM     12  C   UNL     1       4.954   2.798  25.743  0.00  0.00    +0.005 A 
ATOM     13  C   UNL     1       5.068   1.419  25.500  0.00  0.00    +0.013 A 
BRANCH  11  14
ATOM     14  C   UNL     1       5.712   4.994  26.861  0.00  0.00    -0.013 C 
ATOM     15  C   UNL     1       6.281   5.777  25.657  0.00  0.00    +0.015 C 
ATOM     16  C   UNL     1       6.500   5.381  28.128  0.00  0.00    +0.015 C 
ATOM     17  C   UNL     1       4.255   5.481  27.051  0.00  0.00    +0.015 C 
ENDBRANCH  11  14
ENDBRANCH   4   8
BRANCH   2  18
ATOM     18  C   UNL     1       8.984   0.231  24.118  0.00  0.00    +0.099 A 
ATOM     19  S   UNL     1       9.114   1.893  23.664  0.00  0.00    -0.079 S 
ATOM     20  C   UNL     1      10.737   1.901  24.199  0.00  0.00    +0.066 A 
ATOM     21  C   UNL     1      11.043   0.684  24.767  0.00  0.00    +0.119 A 
ATOM     22  N   UNL     1      10.038  -0.265  24.734  0.00  0.00    -0.250 NA
ENDBRANCH   2  18
BRANCH   1  23
ATOM     23  C   UNL     1       9.248  -1.302  21.679  0.00  0.00    +0.310 C 
ATOM     24  O   UNL     1       9.021  -0.605  20.698  0.00  0.00    -0.251 OA
BRANCH  23  25
ATOM     25  O   UNL     1      10.463  -1.859  21.864  0.00  0.00    -0.480 OA
ATOM     26  H   UNL     1      10.492  -2.782  22.186  0.00  0.00    +0.295 HD
ENDBRANCH  23  25
ENDBRANCH   1  23
BRANCH   6  27
ATOM     27  C   UNL     1       8.043  -3.490  25.930  0.00  0.00    +0.329 C 
ATOM     28  O   UNL     1       9.259  -3.648  26.060  0.00  0.00    -0.249 OA
BRANCH  27  29
ATOM     29  O   UNL     1       7.190  -4.031  26.823  0.00  0.00    -0.479 OA
ATOM     30  H   UNL     1       6.247  -3.793  26.655  0.00  0.00    +0.295 HD
ENDBRANCH  27  29
ENDBRANCH   6  27
BRANCH   6  31
ATOM     31  C   UNL     1       6.074  -3.509  24.227  0.00  0.00    +0.040 C 
BRANCH  31  32
ATOM     32  C   UNL     1       6.140  -4.924  23.592  0.00  0.00    -0.015 C 
ATOM     33  C   UNL     1       5.738  -4.866  22.109  0.00  0.00    +0.007 C 
ATOM     34  C   UNL     1       5.245  -5.948  24.288  0.00  0.00    +0.007 C 
ENDBRANCH  31  32
ENDBRANCH   6  31
TORSDOF 9
ENDMDL
MODEL 7
REMARK VINA RESULT:      -5.8      2.483      4.199
REMARK  Name = 
REMARK  14 active torsions:
REMARK  status: ('A' for Active; 'I' for Inactive)
REMARK    1  A    between atoms: C_2  and  C_32
REMARK    2  A    between atoms: C_4  and  C_5
REMARK    3  A    between atoms: C_4  and  C_29
REMARK    4  A    between atoms: C_5  and  C_6
REMARK    5  A    between atoms: C_6  and  C_7
REMARK    6  A    between atoms: C_6  and  C_8
REMARK    7  A    between atoms: C_10  and  C_12
REMARK    8  A    between atoms: C_15  and  C_18
REMARK    9  A    between atoms: C_18  and  C_19
REMARK   10  A    between atoms: C_18  and  C_20
REMARK   11  A    between atoms: C_18  and  C_21
REMARK   12  A    between atoms: C_22  and  C_24
REMARK   13  A    between atoms: C_29  and  O_30
REMARK   14  A    between atoms: C_32  and  O_33
REMARK                            x       y       z     vdW  Elec       q    Type
REMARK                         _______ _______ _______ _____ _____    ______ ____
ROOT
ATOM      1  C   UNL     1       8.912  -1.177  24.033  0.00  0.00    +0.127 C 
ATOM      2  C   UNL     1       7.643  -1.909  24.518  0.00  0.00    +0.147 C 
ATOM      3  N   UNL     1       6.659  -0.821  24.785  0.00  0.00    -0.271 N 
ATOM      4  C   UNL     1       5.504  -0.880  25.572  0.00  0.00    +0.248 C 
ATOM      5  O   UNL     1       4.877   0.160  25.802  0.00  0.00    -0.270 OA
ATOM      6  C   UNL     1       7.166   0.497  24.224  0.00  0.00    +0.136 C 
ATOM      7  C   UNL     1       8.342   0.034  23.326  0.00  0.00    +0.054 C 
ENDROOT
BRANCH   4   8
ATOM      8  C   UNL     1       4.893  -2.144  26.096  0.00  0.00    +0.037 A 
ATOM      9  C   UNL     1       5.335  -2.625  27.339  0.00  0.00    +0.013 A 
ATOM     10  C   UNL     1       4.810  -3.807  27.897  0.00  0.00    +0.005 A 
ATOM     11  C   UNL     1       3.801  -4.537  27.247  0.00  0.00    -0.042 A 
ATOM     12  C   UNL     1       3.419  -4.078  25.978  0.00  0.00    +0.005 A 
ATOM     13  C   UNL     1       3.983  -2.929  25.398  0.00  0.00    +0.013 A 
BRANCH  11  14
ATOM     14  C   UNL     1       3.163  -5.781  27.896  0.00  0.00    -0.013 C 
ATOM     15  C   UNL     1       4.251  -6.674  28.533  0.00  0.00    +0.015 C 
ATOM     16  C   UNL     1       2.402  -6.601  26.835  0.00  0.00    +0.015 C 
ATOM     17  C   UNL     1       2.162  -5.437  29.025  0.00  0.00    +0.015 C 
ENDBRANCH  11  14
ENDBRANCH   4   8
BRANCH   2  18
ATOM     18  C   UNL     1       7.115  -2.895  23.501  0.00  0.00    +0.099 A 
ATOM     19  S   UNL     1       7.367  -4.589  23.730  0.00  0.00    -0.079 S 
ATOM     20  C   UNL     1       6.856  -4.871  22.123  0.00  0.00    +0.066 A 
ATOM     21  C   UNL     1       6.443  -3.686  21.555  0.00  0.00    +0.119 A 
ATOM     22  N   UNL     1       6.577  -2.561  22.346  0.00  0.00    -0.250 NA
ENDBRANCH   2  18
BRANCH   1  23
ATOM     23  C   UNL     1       9.866  -2.038  23.235  0.00  0.00    +0.310 C 
ATOM     24  O   UNL     1      10.489  -2.969  23.731  0.00  0.00    -0.251 OA
BRANCH  23  25
ATOM     25  O   UNL     1      10.091  -1.657  21.960  0.00  0.00    -0.480 OA
ATOM     26  H   UNL     1       9.414  -1.889  21.293  0.00  0.00    +0.295 HD
ENDBRANCH  23  25
ENDBRANCH   1  23
BRANCH   6  27
ATOM     27  C   UNL     1       6.182   1.238  23.264  0.00  0.00    +0.329 C 
ATOM     28  O   UNL     1       6.461   1.520  22.096  0.00  0.00    -0.249 OA
BRANCH  27  29
ATOM     29  O   UNL     1       5.032   1.682  23.810  0.00  0.00    -0.479 OA
ATOM     30  H   UNL     1       5.101   2.599  24.170  0.00  0.00    +0.295 HD
ENDBRANCH  27  29
ENDBRANCH   6  27
BRANCH   6  31
ATOM     31  C   UNL     1       7.664   1.415  25.396  0.00  0.00    +0.040 C 
BRANCH  31  32
ATOM     32  C   UNL     1       7.675   2.956  25.209  0.00  0.00    -0.015 C 
ATOM     33  C   UNL     1       9.015   3.416  24.614  0.00  0.00    +0.007 C 
ATOM     34  C   UNL     1       7.440   3.729  26.505  0.00  0.00    +0.007 C 
ENDBRANCH  31  32
ENDBRANCH   6  31
TORSDOF 9
ENDMDL
MODEL 8
REMARK VINA RESULT:      -5.7      2.586      7.546
REMARK  Name = 
REMARK  14 active torsions:
REMARK  status: ('A' for Active; 'I' for Inactive)
REMARK    1  A    between atoms: C_2  and  C_32
REMARK    2  A    between atoms: C_4  and  C_5
REMARK    3  A    between atoms: C_4  and  C_29
REMARK    4  A    between atoms: C_5  and  C_6
REMARK    5  A    between atoms: C_6  and  C_7
REMARK    6  A    between atoms: C_6  and  C_8
REMARK    7  A    between atoms: C_10  and  C_12
REMARK    8  A    between atoms: C_15  and  C_18
REMARK    9  A    between atoms: C_18  and  C_19
REMARK   10  A    between atoms: C_18  and  C_20
REMARK   11  A    between atoms: C_18  and  C_21
REMARK   12  A    between atoms: C_22  and  C_24
REMARK   13  A    between atoms: C_29  and  O_30
REMARK   14  A    between atoms: C_32  and  O_33
REMARK                            x       y       z     vdW  Elec       q    Type
REMARK                         _______ _______ _______ _____ _____    ______ ____
ROOT
ATOM      1  C   UNL     1       4.403  -4.686  24.103  0.00  0.00    +0.127 C 
ATOM      2  C   UNL     1       5.428  -3.546  24.286  0.00  0.00    +0.147 C 
ATOM      3  N   UNL     1       5.016  -2.868  25.549  0.00  0.00    -0.271 N 
ATOM      4  C   UNL     1       5.354  -1.582  25.983  0.00  0.00    +0.248 C 
ATOM      5  O   UNL     1       4.806  -1.123  26.992  0.00  0.00    -0.270 OA
ATOM      6  C   UNL     1       3.978  -3.702  26.281  0.00  0.00    +0.136 C 
ATOM      7  C   UNL     1       4.067  -5.057  25.531  0.00  0.00    +0.054 C 
ENDROOT
BRANCH   4   8
ATOM      8  C   UNL     1       6.420  -0.727  25.369  0.00  0.00    +0.037 A 
ATOM      9  C   UNL     1       7.716  -0.799  25.904  0.00  0.00    +0.013 A 
ATOM     10  C   UNL     1       8.770  -0.025  25.380  0.00  0.00    +0.005 A 
ATOM     11  C   UNL     1       8.574   0.829  24.282  0.00  0.00    -0.042 A 
ATOM     12  C   UNL     1       7.261   0.937  23.803  0.00  0.00    +0.005 A 
ATOM     13  C   UNL     1       6.199   0.205  24.362  0.00  0.00    +0.013 A 
BRANCH  11  14
ATOM     14  C   UNL     1       9.745   1.610  23.653  0.00  0.00    -0.013 C 
ATOM     15  C   UNL     1      11.091   1.127  24.236  0.00  0.00    +0.015 C 
ATOM     16  C   UNL     1       9.589   3.117  23.937  0.00  0.00    +0.015 C 
ATOM     17  C   UNL     1       9.843   1.434  22.118  0.00  0.00    +0.015 C 
ENDBRANCH  11  14
ENDBRANCH   4   8
BRANCH   2  18
ATOM     18  C   UNL     1       6.850  -4.051  24.367  0.00  0.00    +0.099 A 
ATOM     19  S   UNL     1       7.307  -5.147  25.622  0.00  0.00    -0.079 S 
ATOM     20  C   UNL     1       8.951  -4.899  25.225  0.00  0.00    +0.066 A 
ATOM     21  C   UNL     1       9.042  -4.083  24.119  0.00  0.00    +0.119 A 
ATOM     22  N   UNL     1       7.842  -3.611  23.620  0.00  0.00    -0.250 NA
ENDBRANCH   2  18
BRANCH   1  23
ATOM     23  C   UNL     1       4.869  -5.810  23.205  0.00  0.00    +0.310 C 
ATOM     24  O   UNL     1       5.159  -5.639  22.027  0.00  0.00    -0.251 OA
BRANCH  23  25
ATOM     25  O   UNL     1       4.840  -7.051  23.736  0.00  0.00    -0.480 OA
ATOM     26  H   UNL     1       4.000  -7.352  24.135  0.00  0.00    +0.295 HD
ENDBRANCH  23  25
ENDBRANCH   1  23
BRANCH   6  27
ATOM     27  C   UNL     1       4.314  -4.032  27.770  0.00  0.00    +0.329 C 
ATOM     28  O   UNL     1       3.590  -3.706  28.713  0.00  0.00    -0.249 OA
BRANCH  27  29
ATOM     29  O   UNL     1       5.520  -4.589  28.003  0.00  0.00    -0.479 OA
ATOM     30  H   UNL     1       6.071  -4.681  27.189  0.00  0.00    +0.295 HD
ENDBRANCH  27  29
ENDBRANCH   6  27
BRANCH   6  31
ATOM     31  C   UNL     1       2.561  -3.047  26.117  0.00  0.00    +0.040 C 
BRANCH  31  32
ATOM     32  C   UNL     1       1.317  -3.954  25.915  0.00  0.00    -0.015 C 
ATOM     33  C   UNL     1       0.443  -3.420  24.769  0.00  0.00    +0.007 C 
ATOM     34  C   UNL     1       0.443  -4.078  27.162  0.00  0.00    +0.007 C 
ENDBRANCH  31  32
ENDBRANCH   6  31
TORSDOF 9
ENDMDL
MODEL 9
REMARK VINA RESULT:      -5.7      1.903      2.566
REMARK  Name = 
REMARK  14 active torsions:
REMARK  status: ('A' for Active; 'I' for Inactive)
REMARK    1  A    between atoms: C_2  and  C_32
REMARK    2  A    between atoms: C_4  and  C_5
REMARK    3  A    between atoms: C_4  and  C_29
REMARK    4  A    between atoms: C_5  and  C_6
REMARK    5  A    between atoms: C_6  and  C_7
REMARK    6  A    between atoms: C_6  and  C_8
REMARK    7  A    between atoms: C_10  and  C_12
REMARK    8  A    between atoms: C_15  and  C_18
REMARK    9  A    between atoms: C_18  and  C_19
REMARK   10  A    between atoms: C_18  and  C_20
REMARK   11  A    between atoms: C_18  and  C_21
REMARK   12  A    between atoms: C_22  and  C_24
REMARK   13  A    between atoms: C_29  and  O_30
REMARK   14  A    between atoms: C_32  and  O_33
REMARK                            x       y       z     vdW  Elec       q    Type
REMARK                         _______ _______ _______ _____ _____    ______ ____
ROOT
ATOM      1  C   UNL     1       6.022  -1.123  25.403  0.00  0.00    +0.127 C 
ATOM      2  C   UNL     1       5.382  -2.520  25.265  0.00  0.00    +0.147 C 
ATOM      3  N   UNL     1       6.429  -3.350  24.603  0.00  0.00    -0.271 N 
ATOM      4  C   UNL     1       6.261  -4.560  23.920  0.00  0.00    +0.248 C 
ATOM      5  O   UNL     1       7.219  -5.043  23.305  0.00  0.00    -0.270 OA
ATOM      6  C   UNL     1       7.757  -2.612  24.588  0.00  0.00    +0.136 C 
ATOM      7  C   UNL     1       7.489  -1.450  25.579  0.00  0.00    +0.054 C 
ENDROOT
BRANCH   4   8
ATOM      8  C   UNL     1       5.014  -5.390  23.948  0.00  0.00    +0.037 A 
ATOM      9  C   UNL     1       4.975  -6.497  24.811  0.00  0.00    +0.013 A 
ATOM     10  C   UNL     1       3.839  -7.325  24.892  0.00  0.00    +0.005 A 
ATOM     11  C   UNL     1       2.686  -7.059  24.134  0.00  0.00    -0.042 A 
ATOM     12  C   UNL     1       2.766  -5.990  23.231  0.00  0.00    +0.005 A 
ATOM     13  C   UNL     1       3.921  -5.198  23.112  0.00  0.00    +0.013 A 
BRANCH  11  14
ATOM     14  C   UNL     1       1.410  -7.912  24.286  0.00  0.00    -0.013 C 
ATOM     15  C   UNL     1       0.695  -8.058  22.924  0.00  0.00    +0.015 C 
ATOM     16  C   UNL     1       0.446  -7.249  25.289  0.00  0.00    +0.015 C 
ATOM     17  C   UNL     1       1.691  -9.348  24.790  0.00  0.00    +0.015 C 
ENDBRANCH  11  14
ENDBRANCH   4   8
BRANCH   2  18
ATOM     18  C   UNL     1       4.972  -3.106  26.597  0.00  0.00    +0.099 A 
ATOM     19  S   UNL     1       6.089  -4.068  27.498  0.00  0.00    -0.079 S 
ATOM     20  C   UNL     1       4.817  -4.564  28.525  0.00  0.00    +0.066 A 
ATOM     21  C   UNL     1       3.659  -3.902  28.181  0.00  0.00    +0.119 A 
ATOM     22  N   UNL     1       3.751  -3.059  27.089  0.00  0.00    -0.250 NA
ENDBRANCH   2  18
BRANCH   1  23
ATOM     23  C   UNL     1       5.393  -0.247  26.463  0.00  0.00    +0.310 C 
ATOM     24  O   UNL     1       4.291   0.270  26.326  0.00  0.00    -0.251 OA
BRANCH  23  25
ATOM     25  O   UNL     1       6.161   0.039  27.535  0.00  0.00    -0.480 OA
ATOM     26  H   UNL     1       6.646   0.889  27.530  0.00  0.00    +0.295 HD
ENDBRANCH  23  25
ENDBRANCH   1  23
BRANCH   6  27
ATOM     27  C   UNL     1       8.965  -3.398  25.190  0.00  0.00    +0.329 C 
ATOM     28  O   UNL     1       9.019  -3.753  26.369  0.00  0.00    -0.249 OA
BRANCH  27  29
ATOM     29  O   UNL     1      10.032  -3.567  24.383  0.00  0.00    -0.479 OA
ATOM     30  H   UNL     1       9.985  -4.393  23.844  0.00  0.00    +0.295 HD
ENDBRANCH  27  29
ENDBRANCH   6  27
BRANCH   6  31
ATOM     31  C   UNL     1       8.050  -2.078  23.142  0.00  0.00    +0.040 C 
BRANCH  31  32
ATOM     32  C   UNL     1       8.662  -0.663  22.958  0.00  0.00    -0.015 C 
ATOM     33  C   UNL     1       7.574   0.346  22.559  0.00  0.00    +0.007 C 
ATOM     34  C   UNL     1       9.769  -0.609  21.907  0.00  0.00    +0.007 C 
ENDBRANCH  31  32
ENDBRANCH   6  31
TORSDOF 9
ENDMDL
