MODEL 1
REMARK VINA RESULT:      -6.9      0.000      0.000
REMARK  Name = 
REMARK  13 active torsions:
REMARK  status: ('A' for Active; 'I' for Inactive)
REMARK    1  A    between atoms: C_1  and  C_2
REMARK    2  A    between atoms: C_1  and  C_3
REMARK    3  A    between atoms: C_1  and  C_4
REMARK    4  A    between atoms: C_4  and  C_5
REMARK    5  A    between atoms: C_5  and  C_7
REMARK    6  A    between atoms: C_5  and  N_31
REMARK    7  A    between atoms: N_9  and  C_10
REMARK    8  A    between atoms: C_10  and  C_12
REMARK    9  A    between atoms: C_10  and  C_20
REMARK   10  A    between atoms: C_12  and  C_13
REMARK   11  A    between atoms: C_13  and  C_14
REMARK   12  A    between atoms: C_21  and  S_22
REMARK   13  A    between atoms: S_22  and  C_25
REMARK                            x       y       z     vdW  Elec       q    Type
REMARK                         _______ _______ _______ _____ _____    ______ ____
ROOT
ATOM      1  C   UNL     1       9.014  -1.647  25.377  0.00  0.00    +0.098 C 
ENDROOT
BRANCH   1   3
ATOM      2  C   UNL     1       9.963   0.601  24.826  0.00  0.00    +0.234 C 
ATOM      3  N   UNL     1       8.889  -0.270  24.930  0.00  0.00    -0.307 N 
ATOM      4  H   UNL     1       7.957   0.113  24.829  0.00  0.00    +0.149 HD
ATOM      5  O   UNL     1      11.120   0.236  25.013  0.00  0.00    -0.274 OA
BRANCH   2   6
ATOM      6  C   UNL     1       9.579   1.986  24.245  0.00  0.00    +0.161 C 
BRANCH   6   7
ATOM      7  N   UNL     1       8.135   2.145  24.412  0.00  0.00    -0.288 N 
ATOM      8  H   UNL     1       7.555   1.441  23.998  0.00  0.00    +0.151 HD
ATOM      9  C   UNL     1       7.599   3.297  24.911  0.00  0.00    +0.303 C 
ATOM     10  N   UNL     1       6.226   3.396  24.900  0.00  0.00    -0.281 N 
ATOM     11  C   UNL     1       5.237   2.434  24.400  0.00  0.00    +0.137 C 
ATOM     12  C   UNL     1       4.272   3.112  23.415  0.00  0.00    +0.179 C 
ATOM     13  O   UNL     1       3.671   4.286  23.985  0.00  0.00    -0.377 OA
ATOM     14  C   UNL     1       4.679   5.233  24.378  0.00  0.00    +0.179 C 
ATOM     15  C   UNL     1       5.610   4.622  25.426  0.00  0.00    +0.137 C 
ATOM     16  O   UNL     1       8.322   4.192  25.339  0.00  0.00    -0.253 OA
ENDBRANCH   6   7
BRANCH   6  17
ATOM     17  C   UNL     1      10.070   2.276  22.807  0.00  0.00    +0.034 C 
BRANCH  17  18
ATOM     18  C   UNL     1       9.430   1.554  21.602  0.00  0.00    -0.015 C 
ATOM     19  C   UNL     1       7.927   1.882  21.554  0.00  0.00    +0.007 C 
ATOM     20  C   UNL     1       9.585   0.035  21.593  0.00  0.00    +0.007 C 
ENDBRANCH  17  18
ENDBRANCH   6  17
ENDBRANCH   2   6
ENDBRANCH   1   3
BRANCH   1  21
ATOM     21  C   UNL     1       7.696  -2.015  26.000  0.00  0.00    +0.014 C 
ATOM     22  C   UNL     1       6.527  -1.424  25.699  0.00  0.00    +0.137 C 
BRANCH  22  23
ATOM     23  S   UNL     1       5.063  -1.989  26.451  0.00  0.00    +0.018 S 
ATOM     24  O   UNL     1       3.977  -1.127  26.024  0.00  0.00    -0.165 OA
ATOM     25  O   UNL     1       5.294  -2.249  27.859  0.00  0.00    -0.165 OA
BRANCH  23  26
ATOM     26  C   UNL     1       4.820  -3.577  25.682  0.00  0.00    +0.093 A 
ATOM     27  C   UNL     1       5.471  -4.706  26.185  0.00  0.00    +0.027 A 
ATOM     28  C   UNL     1       5.246  -5.948  25.589  0.00  0.00    +0.002 A 
ATOM     29  C   UNL     1       4.378  -6.053  24.498  0.00  0.00    +0.000 A 
ATOM     30  C   UNL     1       3.741  -4.919  23.993  0.00  0.00    +0.002 A 
ATOM     31  C   UNL     1       3.961  -3.674  24.582  0.00  0.00    +0.027 A 
ENDBRANCH  23  26
ENDBRANCH  22  23
ENDBRANCH   1  21
BRANCH   1  32
ATOM     32  C   UNL     1       9.335  -2.589  24.202  0.00  0.00    +0.031 C 
BRANCH  32  33
ATOM     33  C   UNL     1       8.737  -3.987  24.399  0.00  0.00    +0.037 C 
BRANCH  33  34
ATOM     34  C   UNL     1       7.811  -4.386  23.274  0.00  0.00    -0.047 A 
ATOM     35  C   UNL     1       7.717  -5.723  22.864  0.00  0.00    +0.003 A 
ATOM     36  C   UNL     1       6.877  -6.082  21.807  0.00  0.00    +0.000 A 
ATOM     37  C   UNL     1       6.120  -5.112  21.153  0.00  0.00    +0.000 A 
ATOM     38  C   UNL     1       6.194  -3.782  21.562  0.00  0.00    +0.000 A 
ATOM     39  C   UNL     1       7.034  -3.421  22.619  0.00  0.00    +0.003 A 
ENDBRANCH  33  34
ENDBRANCH  32  33
ENDBRANCH   1  32
TORSDOF 11
ENDMDL
MODEL 2
REMARK VINA RESULT:      -6.8      1.331      1.879
REMARK  Name = 
REMARK  13 active torsions:
REMARK  status: ('A' for Active; 'I' for Inactive)
REMARK    1  A    between atoms: C_1  and  C_2
REMARK    2  A    between atoms: C_1  and  C_3
REMARK    3  A    between atoms: C_1  and  C_4
REMARK    4  A    between atoms: C_4  and  C_5
REMARK    5  A    between atoms: C_5  and  C_7
REMARK    6  A    between atoms: C_5  and  N_31
REMARK    7  A    between atoms: N_9  and  C_10
REMARK    8  A    between atoms: C_10  and  C_12
REMARK    9  A    between atoms: C_10  and  C_20
REMARK   10  A    between atoms: C_12  and  C_13
REMARK   11  A    between atoms: C_13  and  C_14
REMARK   12  A    between atoms: C_21  and  S_22
REMARK   13  A    between atoms: S_22  and  C_25
REMARK                            x       y       z     vdW  Elec       q    Type
REMARK                         _______ _______ _______ _____ _____    ______ ____
ROOT
ATOM      1  C   UNL     1       8.700  -2.398  25.666  0.00  0.00    +0.098 C 
ENDROOT
BRANCH   1   3
ATOM      2  C   UNL     1       8.952  -0.001  24.996  0.00  0.00    +0.234 C 
ATOM      3  N   UNL     1       8.190  -1.153  25.117  0.00  0.00    -0.307 N 
ATOM      4  H   UNL     1       7.193  -1.082  24.951  0.00  0.00    +0.149 HD
ATOM      5  O   UNL     1      10.152   0.018  25.255  0.00  0.00    -0.274 OA
BRANCH   2   6
ATOM      6  C   UNL     1       8.201   1.164  24.302  0.00  0.00    +0.161 C 
BRANCH   6   7
ATOM      7  N   UNL     1       7.052   1.505  25.140  0.00  0.00    -0.288 N 
ATOM      8  H   UNL     1       6.253   0.905  25.072  0.00  0.00    +0.151 HD
ATOM      9  C   UNL     1       6.988   2.691  25.812  0.00  0.00    +0.303 C 
ATOM     10  N   UNL     1       5.808   2.971  26.462  0.00  0.00    -0.281 N 
ATOM     11  C   UNL     1       4.577   2.175  26.519  0.00  0.00    +0.137 C 
ATOM     12  C   UNL     1       3.363   3.022  26.107  0.00  0.00    +0.179 C 
ATOM     13  O   UNL     1       3.280   4.236  26.872  0.00  0.00    -0.377 OA
ATOM     14  C   UNL     1       4.473   5.021  26.711  0.00  0.00    +0.179 C 
ATOM     15  C   UNL     1       5.697   4.240  27.193  0.00  0.00    +0.137 C 
ATOM     16  O   UNL     1       7.945   3.460  25.821  0.00  0.00    -0.253 OA
ENDBRANCH   6   7
BRANCH   6  17
ATOM     17  C   UNL     1       7.837   0.944  22.815  0.00  0.00    +0.034 C 
BRANCH  17  18
ATOM     18  C   UNL     1       8.934   0.980  21.728  0.00  0.00    -0.015 C 
ATOM     19  C   UNL     1       9.438  -0.451  21.468  0.00  0.00    +0.007 C 
ATOM     20  C   UNL     1      10.141   1.858  22.048  0.00  0.00    +0.007 C 
ENDBRANCH  17  18
ENDBRANCH   6  17
ENDBRANCH   2   6
ENDBRANCH   1   3
BRANCH   1  21
ATOM     21  C   UNL     1       7.534  -3.088  26.319  0.00  0.00    +0.014 C 
ATOM     22  C   UNL     1       6.293  -2.575  26.383  0.00  0.00    +0.137 C 
BRANCH  22  23
ATOM     23  S   UNL     1       5.019  -3.506  27.116  0.00  0.00    +0.018 S 
ATOM     24  O   UNL     1       3.908  -2.613  27.387  0.00  0.00    -0.165 OA
ATOM     25  O   UNL     1       5.559  -4.355  28.161  0.00  0.00    -0.165 OA
BRANCH  23  26
ATOM     26  C   UNL     1       4.523  -4.592  25.795  0.00  0.00    +0.093 A 
ATOM     27  C   UNL     1       3.710  -4.116  24.763  0.00  0.00    +0.027 A 
ATOM     28  C   UNL     1       3.356  -4.972  23.720  0.00  0.00    +0.002 A 
ATOM     29  C   UNL     1       3.810  -6.294  23.715  0.00  0.00    +0.000 A 
ATOM     30  C   UNL     1       4.610  -6.767  24.755  0.00  0.00    +0.002 A 
ATOM     31  C   UNL     1       4.969  -5.919  25.802  0.00  0.00    +0.027 A 
ENDBRANCH  23  26
ENDBRANCH  22  23
ENDBRANCH   1  21
BRANCH   1  32
ATOM     32  C   UNL     1       9.304  -3.289  24.565  0.00  0.00    +0.031 C 
BRANCH  32  33
ATOM     33  C   UNL     1       8.585  -4.639  24.453  0.00  0.00    +0.037 C 
BRANCH  33  34
ATOM     34  C   UNL     1       7.689  -4.722  23.240  0.00  0.00    -0.047 A 
ATOM     35  C   UNL     1       6.985  -3.596  22.791  0.00  0.00    +0.003 A 
ATOM     36  C   UNL     1       6.139  -3.686  21.682  0.00  0.00    +0.000 A 
ATOM     37  C   UNL     1       5.993  -4.896  21.009  0.00  0.00    +0.000 A 
ATOM     38  C   UNL     1       6.700  -6.018  21.437  0.00  0.00    +0.000 A 
ATOM     39  C   UNL     1       7.546  -5.931  22.546  0.00  0.00    +0.003 A 
ENDBRANCH  33  34
ENDBRANCH  32  33
ENDBRANCH   1  32
TORSDOF 11
ENDMDL
MODEL 3
REMARK VINA RESULT:      -6.7      1.258      1.958
REMARK  Name = 
REMARK  13 active torsions:
REMARK  status: ('A' for Active; 'I' for Inactive)
REMARK    1  A    between atoms: C_1  and  C_2
REMARK    2  A    between atoms: C_1  and  C_3
REMARK    3  A    between atoms: C_1  and  C_4
REMARK    4  A    between atoms: C_4  and  C_5
REMARK    5  A    between atoms: C_5  and  C_7
REMARK    6  A    between atoms: C_5  and  N_31
REMARK    7  A    between atoms: N_9  and  C_10
REMARK    8  A    between atoms: C_10  and  C_12
REMARK    9  A    between atoms: C_10  and  C_20
REMARK   10  A    between atoms: C_12  and  C_13
REMARK   11  A    between atoms: C_13  and  C_14
REMARK   12  A    between atoms: C_21  and  S_22
REMARK   13  A    between atoms: S_22  and  C_25
REMARK                            x       y       z     vdW  Elec       q    Type
REMARK                         _______ _______ _______ _____ _____    ______ ____
ROOT
ATOM      1  C   UNL     1       9.057  -1.472  24.703  0.00  0.00    +0.098 C 
ENDROOT
BRANCH   1   3
ATOM      2  C   UNL     1      10.001   0.842  24.596  0.00  0.00    +0.234 C 
ATOM      3  N   UNL     1       8.921  -0.027  24.648  0.00  0.00    -0.307 N 
ATOM      4  H   UNL     1       8.001   0.369  24.802  0.00  0.00    +0.149 HD
ATOM      5  O   UNL     1      11.156   0.441  24.492  0.00  0.00    -0.274 OA
BRANCH   2   6
ATOM      6  C   UNL     1       9.588   2.330  24.458  0.00  0.00    +0.161 C 
BRANCH   6   7
ATOM      7  N   UNL     1       8.143   2.364  24.229  0.00  0.00    -0.288 N 
ATOM      8  H   UNL     1       7.801   1.844  23.445  0.00  0.00    +0.151 HD
ATOM      9  C   UNL     1       7.336   3.227  24.912  0.00  0.00    +0.303 C 
ATOM     10  N   UNL     1       6.015   3.274  24.527  0.00  0.00    -0.281 N 
ATOM     11  C   UNL     1       5.342   2.533  23.453  0.00  0.00    +0.137 C 
ATOM     12  C   UNL     1       4.585   3.494  22.524  0.00  0.00    +0.179 C 
ATOM     13  O   UNL     1       3.694   4.349  23.257  0.00  0.00    -0.377 OA
ATOM     14  C   UNL     1       4.415   5.117  24.235  0.00  0.00    +0.179 C 
ATOM     15  C   UNL     1       5.114   4.192  25.234  0.00  0.00    +0.137 C 
ATOM     16  O   UNL     1       7.784   3.923  25.819  0.00  0.00    -0.253 OA
ENDBRANCH   6   7
BRANCH   6  17
ATOM     17  C   UNL     1      10.394   3.163  23.434  0.00  0.00    +0.034 C 
BRANCH  17  18
ATOM     18  C   UNL     1      11.041   4.502  23.853  0.00  0.00    -0.015 C 
ATOM     19  C   UNL     1      10.030   5.643  23.643  0.00  0.00    +0.007 C 
ATOM     20  C   UNL     1      12.327   4.865  23.114  0.00  0.00    +0.007 C 
ENDBRANCH  17  18
ENDBRANCH   6  17
ENDBRANCH   2   6
ENDBRANCH   1   3
BRANCH   1  21
ATOM     21  C   UNL     1       7.881  -1.983  25.488  0.00  0.00    +0.014 C 
ATOM     22  C   UNL     1       7.805  -3.216  26.017  0.00  0.00    +0.137 C 
BRANCH  22  23
ATOM     23  S   UNL     1       6.409  -3.661  26.957  0.00  0.00    +0.018 S 
ATOM     24  O   UNL     1       5.719  -2.443  27.340  0.00  0.00    -0.165 OA
ATOM     25  O   UNL     1       6.773  -4.651  27.952  0.00  0.00    -0.165 OA
BRANCH  23  26
ATOM     26  C   UNL     1       5.390  -4.502  25.763  0.00  0.00    +0.093 A 
ATOM     27  C   UNL     1       5.371  -5.898  25.717  0.00  0.00    +0.027 A 
ATOM     28  C   UNL     1       4.544  -6.541  24.795  0.00  0.00    +0.002 A 
ATOM     29  C   UNL     1       3.747  -5.790  23.928  0.00  0.00    +0.000 A 
ATOM     30  C   UNL     1       3.780  -4.396  23.969  0.00  0.00    +0.002 A 
ATOM     31  C   UNL     1       4.605  -3.744  24.887  0.00  0.00    +0.027 A 
ENDBRANCH  23  26
ENDBRANCH  22  23
ENDBRANCH   1  21
BRANCH   1  32
ATOM     32  C   UNL     1       9.068  -2.087  23.290  0.00  0.00    +0.031 C 
BRANCH  32  33
ATOM     33  C   UNL     1       7.661  -2.183  22.689  0.00  0.00    +0.037 C 
BRANCH  33  34
ATOM     34  C   UNL     1       7.285  -3.597  22.315  0.00  0.00    -0.047 A 
ATOM     35  C   UNL     1       6.326  -3.846  21.323  0.00  0.00    +0.003 A 
ATOM     36  C   UNL     1       5.965  -5.156  20.999  0.00  0.00    +0.000 A 
ATOM     37  C   UNL     1       6.561  -6.230  21.657  0.00  0.00    +0.000 A 
ATOM     38  C   UNL     1       7.527  -5.996  22.634  0.00  0.00    +0.000 A 
ATOM     39  C   UNL     1       7.889  -4.685  22.960  0.00  0.00    +0.003 A 
ENDBRANCH  33  34
ENDBRANCH  32  33
ENDBRANCH   1  32
TORSDOF 11
ENDMDL
MODEL 4
REMARK VINA RESULT:      -6.6      1.541      2.006
REMARK  Name = 
REMARK  13 active torsions:
REMARK  status: ('A' for Active; 'I' for Inactive)
REMARK    1  A    between atoms: C_1  and  C_2
REMARK    2  A    between atoms: C_1  and  C_3
REMARK    3  A    between atoms: C_1  and  C_4
REMARK    4  A    between atoms: C_4  and  C_5
REMARK    5  A    between atoms: C_5  and  C_7
REMARK    6  A    between atoms: C_5  and  N_31
REMARK    7  A    between atoms: N_9  and  C_10
REMARK    8  A    between atoms: C_10  and  C_12
REMARK    9  A    between atoms: C_10  and  C_20
REMARK   10  A    between atoms: C_12  and  C_13
REMARK   11  A    between atoms: C_13  and  C_14
REMARK   12  A    between atoms: C_21  and  S_22
REMARK   13  A    between atoms: S_22  and  C_25
REMARK                            x       y       z     vdW  Elec       q    Type
REMARK                         _______ _______ _______ _____ _____    ______ ____
ROOT
ATOM      1  C   UNL     1       8.053  -3.180  26.478  0.00  0.00    +0.098 C 
ENDROOT
BRANCH   1   3
ATOM      2  C   UNL     1       8.691  -0.773  26.237  0.00  0.00    +0.234 C 
ATOM      3  N   UNL     1       8.206  -1.958  25.705  0.00  0.00    -0.307 N 
ATOM      4  H   UNL     1       7.803  -1.932  24.776  0.00  0.00    +0.149 HD
ATOM      5  O   UNL     1       9.124  -0.700  27.383  0.00  0.00    -0.274 OA
BRANCH   2   6
ATOM      6  C   UNL     1       8.837   0.358  25.187  0.00  0.00    +0.161 C 
BRANCH   6   7
ATOM      7  N   UNL     1       8.089   1.514  25.681  0.00  0.00    -0.288 N 
ATOM      8  H   UNL     1       7.273   1.319  26.229  0.00  0.00    +0.151 HD
ATOM      9  C   UNL     1       8.359   2.777  25.242  0.00  0.00    +0.303 C 
ATOM     10  N   UNL     1       7.511   3.774  25.666  0.00  0.00    -0.281 N 
ATOM     11  C   UNL     1       6.322   3.671  26.520  0.00  0.00    +0.137 C 
ATOM     12  C   UNL     1       5.111   4.334  25.845  0.00  0.00    +0.179 C 
ATOM     13  O   UNL     1       5.398   5.684  25.449  0.00  0.00    -0.377 OA
ATOM     14  C   UNL     1       6.515   5.722  24.545  0.00  0.00    +0.179 C 
ATOM     15  C   UNL     1       7.766   5.148  25.213  0.00  0.00    +0.137 C 
ATOM     16  O   UNL     1       9.315   2.994  24.502  0.00  0.00    -0.253 OA
ENDBRANCH   6   7
BRANCH   6  17
ATOM     17  C   UNL     1       8.490  -0.023  23.728  0.00  0.00    +0.034 C 
BRANCH  17  18
ATOM     18  C   UNL     1       9.579   0.001  22.634  0.00  0.00    -0.015 C 
ATOM     19  C   UNL     1       9.091   0.857  21.451  0.00  0.00    +0.007 C 
ATOM     20  C   UNL     1       9.992  -1.366  22.092  0.00  0.00    +0.007 C 
ENDBRANCH  17  18
ENDBRANCH   6  17
ENDBRANCH   2   6
ENDBRANCH   1   3
BRANCH   1  21
ATOM     21  C   UNL     1       6.580  -3.347  26.728  0.00  0.00    +0.014 C 
ATOM     22  C   UNL     1       5.619  -2.901  25.901  0.00  0.00    +0.137 C 
BRANCH  22  23
ATOM     23  S   UNL     1       3.950  -3.214  26.281  0.00  0.00    +0.018 S 
ATOM     24  O   UNL     1       3.175  -2.048  25.898  0.00  0.00    -0.165 OA
ATOM     25  O   UNL     1       3.839  -3.773  27.615  0.00  0.00    -0.165 OA
BRANCH  23  26
ATOM     26  C   UNL     1       3.535  -4.527  25.152  0.00  0.00    +0.093 A 
ATOM     27  C   UNL     1       2.501  -4.357  24.228  0.00  0.00    +0.027 A 
ATOM     28  C   UNL     1       2.209  -5.385  23.331  0.00  0.00    +0.002 A 
ATOM     29  C   UNL     1       2.945  -6.572  23.364  0.00  0.00    +0.000 A 
ATOM     30  C   UNL     1       3.968  -6.741  24.298  0.00  0.00    +0.002 A 
ATOM     31  C   UNL     1       4.266  -5.719  25.199  0.00  0.00    +0.027 A 
ENDBRANCH  23  26
ENDBRANCH  22  23
ENDBRANCH   1  21
BRANCH   1  32
ATOM     32  C   UNL     1       8.610  -4.396  25.715  0.00  0.00    +0.031 C 
BRANCH  32  33
ATOM     33  C   UNL     1       8.954  -4.060  24.259  0.00  0.00    +0.037 C 
BRANCH  33  34
ATOM     34  C   UNL     1       7.876  -4.492  23.294  0.00  0.00    -0.047 A 
ATOM     35  C   UNL     1       7.752  -5.834  22.910  0.00  0.00    +0.003 A 
ATOM     36  C   UNL     1       6.768  -6.223  21.997  0.00  0.00    +0.000 A 
ATOM     37  C   UNL     1       5.895  -5.277  21.465  0.00  0.00    +0.000 A 
ATOM     38  C   UNL     1       5.998  -3.942  21.851  0.00  0.00    +0.000 A 
ATOM     39  C   UNL     1       6.982  -3.551  22.763  0.00  0.00    +0.003 A 
ENDBRANCH  33  34
ENDBRANCH  32  33
ENDBRANCH   1  32
TORSDOF 11
ENDMDL
MODEL 5
REMARK VINA RESULT:      -6.6      2.771      5.588
REMARK  Name = 
REMARK  13 active torsions:
REMARK  status: ('A' for Active; 'I' for Inactive)
REMARK    1  A    between atoms: C_1  and  C_2
REMARK    2  A    between atoms: C_1  and  C_3
REMARK    3  A    between atoms: C_1  and  C_4
REMARK    4  A    between atoms: C_4  and  C_5
REMARK    5  A    between atoms: C_5  and  C_7
REMARK    6  A    between atoms: C_5  and  N_31
REMARK    7  A    between atoms: N_9  and  C_10
REMARK    8  A    between atoms: C_10  and  C_12
REMARK    9  A    between atoms: C_10  and  C_20
REMARK   10  A    between atoms: C_12  and  C_13
REMARK   11  A    between atoms: C_13  and  C_14
REMARK   12  A    between atoms: C_21  and  S_22
REMARK   13  A    between atoms: S_22  and  C_25
REMARK                            x       y       z     vdW  Elec       q    Type
REMARK                         _______ _______ _______ _____ _____    ______ ____
ROOT
ATOM      1  C   UNL     1       8.809  -3.099  24.537  0.00  0.00    +0.098 C 
ENDROOT
BRANCH   1   3
ATOM      2  C   UNL     1       7.833  -1.308  25.984  0.00  0.00    +0.234 C 
ATOM      3  N   UNL     1       7.847  -2.045  24.809  0.00  0.00    -0.307 N 
ATOM      4  H   UNL     1       7.064  -1.943  24.176  0.00  0.00    +0.149 HD
ATOM      5  O   UNL     1       8.702  -1.429  26.842  0.00  0.00    -0.274 OA
BRANCH   2   6
ATOM      6  C   UNL     1       6.762  -0.186  25.994  0.00  0.00    +0.161 C 
BRANCH   6   7
ATOM      7  N   UNL     1       5.642  -0.658  26.808  0.00  0.00    -0.288 N 
ATOM      8  H   UNL     1       5.662  -0.420  27.780  0.00  0.00    +0.151 HD
ATOM      9  C   UNL     1       4.735  -1.552  26.319  0.00  0.00    +0.303 C 
ATOM     10  N   UNL     1       3.800  -2.034  27.207  0.00  0.00    -0.281 N 
ATOM     11  C   UNL     1       3.649  -1.736  28.636  0.00  0.00    +0.137 C 
ATOM     12  C   UNL     1       3.597  -3.033  29.457  0.00  0.00    +0.179 C 
ATOM     13  O   UNL     1       2.592  -3.933  28.965  0.00  0.00    -0.377 OA
ATOM     14  C   UNL     1       2.835  -4.263  27.587  0.00  0.00    +0.179 C 
ATOM     15  C   UNL     1       2.808  -3.002  26.721  0.00  0.00    +0.137 C 
ATOM     16  O   UNL     1       4.770  -1.904  25.142  0.00  0.00    -0.253 OA
ENDBRANCH   6   7
BRANCH   6  17
ATOM     17  C   UNL     1       6.335   0.353  24.608  0.00  0.00    +0.034 C 
BRANCH  17  18
ATOM     18  C   UNL     1       7.006   1.612  24.018  0.00  0.00    -0.015 C 
ATOM     19  C   UNL     1       7.341   2.591  25.158  0.00  0.00    +0.007 C 
ATOM     20  C   UNL     1       6.183   2.363  22.974  0.00  0.00    +0.007 C 
ENDBRANCH  17  18
ENDBRANCH   6  17
ENDBRANCH   2   6
ENDBRANCH   1   3
BRANCH   1  21
ATOM     21  C   UNL     1       8.083  -4.144  23.736  0.00  0.00    +0.014 C 
ATOM     22  C   UNL     1       6.884  -3.955  23.160  0.00  0.00    +0.137 C 
BRANCH  22  23
ATOM     23  S   UNL     1       6.181  -5.231  22.208  0.00  0.00    +0.018 S 
ATOM     24  O   UNL     1       7.117  -6.339  22.179  0.00  0.00    -0.165 OA
ATOM     25  O   UNL     1       5.633  -4.691  20.978  0.00  0.00    -0.165 OA
BRANCH  23  26
ATOM     26  C   UNL     1       4.788  -5.732  23.198  0.00  0.00    +0.093 A 
ATOM     27  C   UNL     1       3.561  -5.077  23.065  0.00  0.00    +0.027 A 
ATOM     28  C   UNL     1       2.472  -5.502  23.827  0.00  0.00    +0.002 A 
ATOM     29  C   UNL     1       2.615  -6.571  24.715  0.00  0.00    +0.000 A 
ATOM     30  C   UNL     1       3.847  -7.212  24.854  0.00  0.00    +0.002 A 
ATOM     31  C   UNL     1       4.941  -6.794  24.097  0.00  0.00    +0.027 A 
ENDBRANCH  23  26
ENDBRANCH  22  23
ENDBRANCH   1  21
BRANCH   1  32
ATOM     32  C   UNL     1      10.019  -2.562  23.749  0.00  0.00    +0.031 C 
BRANCH  32  33
ATOM     33  C   UNL     1       9.597  -1.689  22.562  0.00  0.00    +0.037 C 
BRANCH  33  34
ATOM     34  C   UNL     1       9.944  -0.232  22.760  0.00  0.00    -0.047 A 
ATOM     35  C   UNL     1      10.515   0.212  23.960  0.00  0.00    +0.003 A 
ATOM     36  C   UNL     1      10.811   1.565  24.146  0.00  0.00    +0.000 A 
ATOM     37  C   UNL     1      10.546   2.485  23.135  0.00  0.00    +0.000 A 
ATOM     38  C   UNL     1       9.992   2.053  21.931  0.00  0.00    +0.000 A 
ATOM     39  C   UNL     1       9.694   0.700  21.744  0.00  0.00    +0.003 A 
ENDBRANCH  33  34
ENDBRANCH  32  33
ENDBRANCH   1  32
TORSDOF 11
ENDMDL
MODEL 6
REMARK VINA RESULT:      -6.5      2.741      8.158
REMARK  Name = 
REMARK  13 active torsions:
REMARK  status: ('A' for Active; 'I' for Inactive)
REMARK    1  A    between atoms: C_1  and  C_2
REMARK    2  A    between atoms: C_1  and  C_3
REMARK    3  A    between atoms: C_1  and  C_4
REMARK    4  A    between atoms: C_4  and  C_5
REMARK    5  A    between atoms: C_5  and  C_7
REMARK    6  A    between atoms: C_5  and  N_31
REMARK    7  A    between atoms: N_9  and  C_10
REMARK    8  A    between atoms: C_10  and  C_12
REMARK    9  A    between atoms: C_10  and  C_20
REMARK   10  A    between atoms: C_12  and  C_13
REMARK   11  A    between atoms: C_13  and  C_14
REMARK   12  A    between atoms: C_21  and  S_22
REMARK   13  A    between atoms: S_22  and  C_25
REMARK                            x       y       z     vdW  Elec       q    Type
REMARK                         _______ _______ _______ _____ _____    ______ ____
ROOT
ATOM      1  C   UNL     1       8.271   1.183  21.988  0.00  0.00    +0.098 C 
ENDROOT
BRANCH   1   3
ATOM      2  C   UNL     1       8.863  -1.241  22.176  0.00  0.00    +0.234 C 
ATOM      3  N   UNL     1       8.257  -0.097  22.676  0.00  0.00    -0.307 N 
ATOM      4  H   UNL     1       7.654  -0.195  23.484  0.00  0.00    +0.149 HD
ATOM      5  O   UNL     1       9.545  -1.226  21.156  0.00  0.00    -0.274 OA
BRANCH   2   6
ATOM      6  C   UNL     1       8.778  -2.453  23.139  0.00  0.00    +0.161 C 
BRANCH   6   7
ATOM      7  N   UNL     1       7.421  -2.989  23.049  0.00  0.00    -0.288 N 
ATOM      8  H   UNL     1       6.671  -2.329  23.128  0.00  0.00    +0.151 HD
ATOM      9  C   UNL     1       7.184  -4.333  23.074  0.00  0.00    +0.303 C 
ATOM     10  N   UNL     1       5.866  -4.728  23.120  0.00  0.00    -0.281 N 
ATOM     11  C   UNL     1       4.657  -3.898  23.169  0.00  0.00    +0.137 C 
ATOM     12  C   UNL     1       3.759  -4.317  24.344  0.00  0.00    +0.179 C 
ATOM     13  O   UNL     1       3.470  -5.724  24.314  0.00  0.00    -0.377 OA
ATOM     14  C   UNL     1       4.683  -6.493  24.356  0.00  0.00    +0.179 C 
ATOM     15  C   UNL     1       5.568  -6.166  23.152  0.00  0.00    +0.137 C 
ATOM     16  O   UNL     1       8.113  -5.135  23.061  0.00  0.00    -0.253 OA
ENDBRANCH   6   7
BRANCH   6  17
ATOM     17  C   UNL     1       9.246  -2.198  24.591  0.00  0.00    +0.034 C 
BRANCH  17  18
ATOM     18  C   UNL     1       8.225  -2.184  25.750  0.00  0.00    -0.015 C 
ATOM     19  C   UNL     1       8.564  -1.031  26.712  0.00  0.00    +0.007 C 
ATOM     20  C   UNL     1       8.144  -3.473  26.564  0.00  0.00    +0.007 C 
ENDBRANCH  17  18
ENDBRANCH   6  17
ENDBRANCH   2   6
ENDBRANCH   1   3
BRANCH   1  21
ATOM     21  C   UNL     1       7.101   1.965  22.516  0.00  0.00    +0.014 C 
ATOM     22  C   UNL     1       6.247   1.508  23.448  0.00  0.00    +0.137 C 
BRANCH  22  23
ATOM     23  S   UNL     1       4.966   2.542  24.015  0.00  0.00    +0.018 S 
ATOM     24  O   UNL     1       4.139   1.773  24.926  0.00  0.00    -0.165 OA
ATOM     25  O   UNL     1       4.374   3.259  22.901  0.00  0.00    -0.165 OA
BRANCH  23  26
ATOM     26  C   UNL     1       5.844   3.753  24.981  0.00  0.00    +0.093 A 
ATOM     27  C   UNL     1       5.729   5.111  24.674  0.00  0.00    +0.027 A 
ATOM     28  C   UNL     1       6.400   6.049  25.460  0.00  0.00    +0.002 A 
ATOM     29  C   UNL     1       7.180   5.627  26.539  0.00  0.00    +0.000 A 
ATOM     30  C   UNL     1       7.302   4.268  26.832  0.00  0.00    +0.002 A 
ATOM     31  C   UNL     1       6.636   3.323  26.052  0.00  0.00    +0.027 A 
ENDBRANCH  23  26
ENDBRANCH  22  23
ENDBRANCH   1  21
BRANCH   1  32
ATOM     32  C   UNL     1       9.586   1.942  22.247  0.00  0.00    +0.031 C 
BRANCH  32  33
ATOM     33  C   UNL     1       9.653   2.516  23.668  0.00  0.00    +0.037 C 
BRANCH  33  34
ATOM     34  C   UNL     1      10.430   3.809  23.735  0.00  0.00    -0.047 A 
ATOM     35  C   UNL     1       9.829   4.983  24.208  0.00  0.00    +0.003 A 
ATOM     36  C   UNL     1      10.546   6.182  24.245  0.00  0.00    +0.000 A 
ATOM     37  C   UNL     1      11.871   6.219  23.817  0.00  0.00    +0.000 A 
ATOM     38  C   UNL     1      12.485   5.054  23.360  0.00  0.00    +0.000 A 
ATOM     39  C   UNL     1      11.769   3.854  23.321  0.00  0.00    +0.003 A 
ENDBRANCH  33  34
ENDBRANCH  32  33
ENDBRANCH   1  32
TORSDOF 11
ENDMDL
MODEL 7
REMARK VINA RESULT:      -6.5      2.103      3.239
REMARK  Name = 
REMARK  13 active torsions:
REMARK  status: ('A' for Active; 'I' for Inactive)
REMARK    1  A    between atoms: C_1  and  C_2
REMARK    2  A    between atoms: C_1  and  C_3
REMARK    3  A    between atoms: C_1  and  C_4
REMARK    4  A    between atoms: C_4  and  C_5
REMARK    5  A    between atoms: C_5  and  C_7
REMARK    6  A    between atoms: C_5  and  N_31
REMARK    7  A    between atoms: N_9  and  C_10
REMARK    8  A    between atoms: C_10  and  C_12
REMARK    9  A    between atoms: C_10  and  C_20
REMARK   10  A    between atoms: C_12  and  C_13
REMARK   11  A    between atoms: C_13  and  C_14
REMARK   12  A    between atoms: C_21  and  S_22
REMARK   13  A    between atoms: S_22  and  C_25
REMARK                            x       y       z     vdW  Elec       q    Type
REMARK                         _______ _______ _______ _____ _____    ______ ____
ROOT
ATOM      1  C   UNL     1       9.048  -2.553  25.650  0.00  0.00    +0.098 C 
ENDROOT
BRANCH   1   3
ATOM      2  C   UNL     1       8.781  -0.066  25.687  0.00  0.00    +0.234 C 
ATOM      3  N   UNL     1       8.247  -1.344  25.745  0.00  0.00    -0.307 N 
ATOM      4  H   UNL     1       7.274  -1.440  26.011  0.00  0.00    +0.149 HD
ATOM      5  O   UNL     1       9.968   0.136  25.451  0.00  0.00    -0.274 OA
BRANCH   2   6
ATOM      6  C   UNL     1       7.707   1.052  25.726  0.00  0.00    +0.161 C 
BRANCH   6   7
ATOM      7  N   UNL     1       8.230   2.187  24.965  0.00  0.00    -0.288 N 
ATOM      8  H   UNL     1       9.014   2.669  25.360  0.00  0.00    +0.151 HD
ATOM      9  C   UNL     1       7.556   2.694  23.893  0.00  0.00    +0.303 C 
ATOM     10  N   UNL     1       8.063   3.843  23.330  0.00  0.00    -0.281 N 
ATOM     11  C   UNL     1       9.232   4.630  23.739  0.00  0.00    +0.137 C 
ATOM     12  C   UNL     1       8.853   6.107  23.924  0.00  0.00    +0.179 C 
ATOM     13  O   UNL     1       8.203   6.638  22.758  0.00  0.00    -0.377 OA
ATOM     14  C   UNL     1       7.016   5.887  22.452  0.00  0.00    +0.179 C 
ATOM     15  C   UNL     1       7.364   4.423  22.176  0.00  0.00    +0.137 C 
ATOM     16  O   UNL     1       6.545   2.141  23.466  0.00  0.00    -0.253 OA
ENDBRANCH   6   7
BRANCH   6  17
ATOM     17  C   UNL     1       7.184   1.439  27.130  0.00  0.00    +0.034 C 
BRANCH  17  18
ATOM     18  C   UNL     1       5.686   1.290  27.473  0.00  0.00    -0.015 C 
ATOM     19  C   UNL     1       5.333  -0.206  27.569  0.00  0.00    +0.007 C 
ATOM     20  C   UNL     1       4.721   1.943  26.486  0.00  0.00    +0.007 C 
ENDBRANCH  17  18
ENDBRANCH   6  17
ENDBRANCH   2   6
ENDBRANCH   1   3
BRANCH   1  21
ATOM     21  C   UNL     1       8.265  -3.640  26.333  0.00  0.00    +0.014 C 
ATOM     22  C   UNL     1       7.029  -3.478  26.836  0.00  0.00    +0.137 C 
BRANCH  22  23
ATOM     23  S   UNL     1       6.210  -4.838  27.549  0.00  0.00    +0.018 S 
ATOM     24  O   UNL     1       5.314  -4.336  28.574  0.00  0.00    -0.165 OA
ATOM     25  O   UNL     1       7.161  -5.892  27.848  0.00  0.00    -0.165 OA
BRANCH  23  26
ATOM     26  C   UNL     1       5.207  -5.435  26.205  0.00  0.00    +0.093 A 
ATOM     27  C   UNL     1       4.892  -6.793  26.114  0.00  0.00    +0.027 A 
ATOM     28  C   UNL     1       4.080  -7.239  25.071  0.00  0.00    +0.002 A 
ATOM     29  C   UNL     1       3.592  -6.332  24.127  0.00  0.00    +0.000 A 
ATOM     30  C   UNL     1       3.921  -4.979  24.215  0.00  0.00    +0.002 A 
ATOM     31  C   UNL     1       4.733  -4.524  25.254  0.00  0.00    +0.027 A 
ENDBRANCH  23  26
ENDBRANCH  22  23
ENDBRANCH   1  21
BRANCH   1  32
ATOM     32  C   UNL     1       9.322  -2.929  24.182  0.00  0.00    +0.031 C 
BRANCH  32  33
ATOM     33  C   UNL     1       8.152  -2.560  23.262  0.00  0.00    +0.037 C 
BRANCH  33  34
ATOM     34  C   UNL     1       7.470  -3.773  22.674  0.00  0.00    -0.047 A 
ATOM     35  C   UNL     1       7.800  -5.063  23.112  0.00  0.00    +0.003 A 
ATOM     36  C   UNL     1       7.183  -6.183  22.547  0.00  0.00    +0.000 A 
ATOM     37  C   UNL     1       6.228  -6.025  21.546  0.00  0.00    +0.000 A 
ATOM     38  C   UNL     1       5.881  -4.746  21.113  0.00  0.00    +0.000 A 
ATOM     39  C   UNL     1       6.497  -3.625  21.676  0.00  0.00    +0.003 A 
ENDBRANCH  33  34
ENDBRANCH  32  33
ENDBRANCH   1  32
TORSDOF 11
ENDMDL
MODEL 8
REMARK VINA RESULT:      -6.4      2.965      8.387
REMARK  Name = 
REMARK  13 active torsions:
REMARK  status: ('A' for Active; 'I' for Inactive)
REMARK    1  A    between atoms: C_1  and  C_2
REMARK    2  A    between atoms: C_1  and  C_3
REMARK    3  A    between atoms: C_1  and  C_4
REMARK    4  A    between atoms: C_4  and  C_5
REMARK    5  A    between atoms: C_5  and  C_7
REMARK    6  A    between atoms: C_5  and  N_31
REMARK    7  A    between atoms: N_9  and  C_10
REMARK    8  A    between atoms: C_10  and  C_12
REMARK    9  A    between atoms: C_10  and  C_20
REMARK   10  A    between atoms: C_12  and  C_13
REMARK   11  A    between atoms: C_13  and  C_14
REMARK   12  A    between atoms: C_21  and  S_22
REMARK   13  A    between atoms: S_22  and  C_25
REMARK                            x       y       z     vdW  Elec       q    Type
REMARK                         _______ _______ _______ _____ _____    ______ ____
ROOT
ATOM      1  C   UNL     1       6.589  -1.824  23.591  0.00  0.00    +0.098 C 
ENDROOT
BRANCH   1   3
ATOM      2  C   UNL     1       4.926  -3.625  23.095  0.00  0.00    +0.234 C 
ATOM      3  N   UNL     1       5.600  -2.809  23.992  0.00  0.00    -0.307 N 
ATOM      4  H   UNL     1       5.282  -2.799  24.954  0.00  0.00    +0.149 HD
ATOM      5  O   UNL     1       5.194  -3.640  21.897  0.00  0.00    -0.274 OA
BRANCH   2   6
ATOM      6  C   UNL     1       3.985  -4.649  23.781  0.00  0.00    +0.161 C 
BRANCH   6   7
ATOM      7  N   UNL     1       4.481  -4.856  25.141  0.00  0.00    -0.288 N 
ATOM      8  H   UNL     1       5.435  -5.147  25.232  0.00  0.00    +0.151 HD
ATOM      9  C   UNL     1       3.636  -4.863  26.212  0.00  0.00    +0.303 C 
ATOM     10  N   UNL     1       4.183  -5.200  27.430  0.00  0.00    -0.281 N 
ATOM     11  C   UNL     1       5.565  -5.581  27.745  0.00  0.00    +0.137 C 
ATOM     12  C   UNL     1       5.597  -6.910  28.514  0.00  0.00    +0.179 C 
ATOM     13  O   UNL     1       4.750  -6.874  29.674  0.00  0.00    -0.377 OA
ATOM     14  C   UNL     1       3.392  -6.583  29.302  0.00  0.00    +0.179 C 
ATOM     15  C   UNL     1       3.305  -5.223  28.607  0.00  0.00    +0.137 C 
ATOM     16  O   UNL     1       2.447  -4.586  26.077  0.00  0.00    -0.253 OA
ENDBRANCH   6   7
BRANCH   6  17
ATOM     17  C   UNL     1       3.739  -5.966  23.007  0.00  0.00    +0.034 C 
BRANCH  17  18
ATOM     18  C   UNL     1       2.332  -6.601  22.972  0.00  0.00    -0.015 C 
ATOM     19  C   UNL     1       1.271  -5.487  23.025  0.00  0.00    +0.007 C 
ATOM     20  C   UNL     1       2.036  -7.593  24.095  0.00  0.00    +0.007 C 
ENDBRANCH  17  18
ENDBRANCH   6  17
ENDBRANCH   2   6
ENDBRANCH   1   3
BRANCH   1  21
ATOM     21  C   UNL     1       6.407  -0.640  24.500  0.00  0.00    +0.014 C 
ATOM     22  C   UNL     1       6.450   0.639  24.091  0.00  0.00    +0.137 C 
BRANCH  22  23
ATOM     23  S   UNL     1       6.162   1.916  25.238  0.00  0.00    +0.018 S 
ATOM     24  O   UNL     1       6.752   1.523  26.505  0.00  0.00    -0.165 OA
ATOM     25  O   UNL     1       4.779   2.347  25.167  0.00  0.00    -0.165 OA
BRANCH  23  26
ATOM     26  C   UNL     1       7.138   3.253  24.584  0.00  0.00    +0.093 A 
ATOM     27  C   UNL     1       6.953   3.678  23.266  0.00  0.00    +0.027 A 
ATOM     28  C   UNL     1       7.705   4.747  22.779  0.00  0.00    +0.002 A 
ATOM     29  C   UNL     1       8.636   5.381  23.606  0.00  0.00    +0.000 A 
ATOM     30  C   UNL     1       8.827   4.944  24.917  0.00  0.00    +0.002 A 
ATOM     31  C   UNL     1       8.079   3.875  25.413  0.00  0.00    +0.027 A 
ENDBRANCH  23  26
ENDBRANCH  22  23
ENDBRANCH   1  21
BRANCH   1  32
ATOM     32  C   UNL     1       8.019  -2.383  23.718  0.00  0.00    +0.031 C 
BRANCH  32  33
ATOM     33  C   UNL     1       8.928  -1.916  22.575  0.00  0.00    +0.037 C 
BRANCH  33  34
ATOM     34  C   UNL     1       9.496  -0.537  22.812  0.00  0.00    -0.047 A 
ATOM     35  C   UNL     1      10.093  -0.208  24.037  0.00  0.00    +0.003 A 
ATOM     36  C   UNL     1      10.596   1.077  24.258  0.00  0.00    +0.000 A 
ATOM     37  C   UNL     1      10.513   2.043  23.257  0.00  0.00    +0.000 A 
ATOM     38  C   UNL     1       9.935   1.723  22.030  0.00  0.00    +0.000 A 
ATOM     39  C   UNL     1       9.431   0.438  21.807  0.00  0.00    +0.003 A 
ENDBRANCH  33  34
ENDBRANCH  32  33
ENDBRANCH   1  32
TORSDOF 11
ENDMDL
MODEL 9
REMARK VINA RESULT:      -6.4      2.496      4.378
REMARK  Name = 
REMARK  13 active torsions:
REMARK  status: ('A' for Active; 'I' for Inactive)
REMARK    1  A    between atoms: C_1  and  C_2
REMARK    2  A    between atoms: C_1  and  C_3
REMARK    3  A    between atoms: C_1  and  C_4
REMARK    4  A    between atoms: C_4  and  C_5
REMARK    5  A    between atoms: C_5  and  C_7
REMARK    6  A    between atoms: C_5  and  N_31
REMARK    7  A    between atoms: N_9  and  C_10
REMARK    8  A    between atoms: C_10  and  C_12
REMARK    9  A    between atoms: C_10  and  C_20
REMARK   10  A    between atoms: C_12  and  C_13
REMARK   11  A    between atoms: C_13  and  C_14
REMARK   12  A    between atoms: C_21  and  S_22
REMARK   13  A    between atoms: S_22  and  C_25
REMARK                            x       y       z     vdW  Elec       q    Type
REMARK                         _______ _______ _______ _____ _____    ______ ____
ROOT
ATOM      1  C   UNL     1       5.595  -0.240  25.995  0.00  0.00    +0.098 C 
ENDROOT
BRANCH   1   3
ATOM      2  C   UNL     1       5.192   1.882  24.734  0.00  0.00    +0.234 C 
ATOM      3  N   UNL     1       5.661   0.579  24.797  0.00  0.00    -0.307 N 
ATOM      4  H   UNL     1       5.929   0.129  23.930  0.00  0.00    +0.149 HD
ATOM      5  O   UNL     1       4.774   2.474  25.724  0.00  0.00    -0.274 OA
BRANCH   2   6
ATOM      6  C   UNL     1       5.457   2.567  23.369  0.00  0.00    +0.161 C 
BRANCH   6   7
ATOM      7  N   UNL     1       4.165   2.729  22.702  0.00  0.00    -0.288 N 
ATOM      8  H   UNL     1       3.705   1.891  22.405  0.00  0.00    +0.151 HD
ATOM      9  C   UNL     1       3.715   3.957  22.313  0.00  0.00    +0.303 C 
ATOM     10  N   UNL     1       2.553   3.985  21.575  0.00  0.00    -0.281 N 
ATOM     11  C   UNL     1       1.725   2.862  21.119  0.00  0.00    +0.137 C 
ATOM     12  C   UNL     1       1.482   2.950  19.604  0.00  0.00    +0.179 C 
ATOM     13  O   UNL     1       0.947   4.228  19.226  0.00  0.00    -0.377 OA
ATOM     14  C   UNL     1       1.837   5.287  19.617  0.00  0.00    +0.179 C 
ATOM     15  C   UNL     1       2.037   5.287  21.133  0.00  0.00    +0.137 C 
ATOM     16  O   UNL     1       4.332   4.976  22.611  0.00  0.00    -0.253 OA
ENDBRANCH   6   7
BRANCH   6  17
ATOM     17  C   UNL     1       6.533   1.903  22.477  0.00  0.00    +0.034 C 
BRANCH  17  18
ATOM     18  C   UNL     1       7.840   2.652  22.141  0.00  0.00    -0.015 C 
ATOM     19  C   UNL     1       8.813   1.688  21.438  0.00  0.00    +0.007 C 
ATOM     20  C   UNL     1       8.565   3.270  23.335  0.00  0.00    +0.007 C 
ENDBRANCH  17  18
ENDBRANCH   6  17
ENDBRANCH   2   6
ENDBRANCH   1   3
BRANCH   1  21
ATOM     21  C   UNL     1       5.454  -1.664  25.533  0.00  0.00    +0.014 C 
ATOM     22  C   UNL     1       4.555  -2.532  26.028  0.00  0.00    +0.137 C 
BRANCH  22  23
ATOM     23  S   UNL     1       4.458  -4.137  25.361  0.00  0.00    +0.018 S 
ATOM     24  O   UNL     1       3.910  -4.034  24.021  0.00  0.00    -0.165 OA
ATOM     25  O   UNL     1       3.878  -5.046  26.331  0.00  0.00    -0.165 OA
BRANCH  23  26
ATOM     26  C   UNL     1       6.171  -4.597  25.205  0.00  0.00    +0.093 A 
ATOM     27  C   UNL     1       6.945  -4.816  26.348  0.00  0.00    +0.027 A 
ATOM     28  C   UNL     1       8.277  -5.205  26.207  0.00  0.00    +0.002 A 
ATOM     29  C   UNL     1       8.827  -5.369  24.933  0.00  0.00    +0.000 A 
ATOM     30  C   UNL     1       8.054  -5.135  23.796  0.00  0.00    +0.002 A 
ATOM     31  C   UNL     1       6.721  -4.745  23.927  0.00  0.00    +0.027 A 
ENDBRANCH  23  26
ENDBRANCH  22  23
ENDBRANCH   1  21
BRANCH   1  32
ATOM     32  C   UNL     1       6.862  -0.077  26.855  0.00  0.00    +0.031 C 
BRANCH  32  33
ATOM     33  C   UNL     1       7.869  -1.210  26.625  0.00  0.00    +0.037 C 
BRANCH  33  34
ATOM     34  C   UNL     1       8.853  -0.897  25.523  0.00  0.00    -0.047 A 
ATOM     35  C   UNL     1       8.956  -1.725  24.397  0.00  0.00    +0.003 A 
ATOM     36  C   UNL     1       9.886  -1.443  23.393  0.00  0.00    +0.000 A 
ATOM     37  C   UNL     1      10.716  -0.329  23.500  0.00  0.00    +0.000 A 
ATOM     38  C   UNL     1      10.612   0.510  24.607  0.00  0.00    +0.000 A 
ATOM     39  C   UNL     1       9.683   0.229  25.613  0.00  0.00    +0.003 A 
ENDBRANCH  33  34
ENDBRANCH  32  33
ENDBRANCH   1  32
TORSDOF 11
ENDMDL
