MODEL 1
REMARK VINA RESULT:      -3.8      0.000      0.000
REMARK  Name = 
REMARK  6 active torsions:
REMARK  status: ('A' for Active; 'I' for Inactive)
REMARK    1  A    between atoms: C_1  and  C_2
REMARK    2  A    between atoms: C_2  and  C_3
REMARK    3  A    between atoms: C_3  and  C_4
REMARK    4  A    between atoms: C_4  and  C_5
REMARK    5  A    between atoms: C_5  and  C_6
REMARK    6  A    between atoms: C_6  and  C_7
REMARK                            x       y       z     vdW  Elec       q    Type
REMARK                         _______ _______ _______ _____ _____    ______ ____
ROOT
ATOM      1  C   UNL     1       9.844   1.879  24.218  0.00  0.00    +0.095 C 
ENDROOT
BRANCH   1   2
ATOM      2  C   UNL     1      10.530   2.672  23.129  0.00  0.00    +0.210 C 
ATOM      3  O   UNL     1      11.336   3.573  23.316  0.00  0.00    -0.276 OA
ATOM      4  N   UNL     1      10.178   2.288  21.866  0.00  0.00    -0.329 N 
ATOM      5  H   UNL     1      10.622   2.759  21.089  0.00  0.00    +0.145 HD
ATOM      6  H   UNL     1       9.547   1.522  21.676  0.00  0.00    +0.145 HD
ENDBRANCH   1   2
BRANCH   1   7
ATOM      7  C   UNL     1      10.568   0.574  24.549  0.00  0.00    +0.009 C 
BRANCH   7   8
ATOM      8  C   UNL     1       9.609  -0.582  24.856  0.00  0.00    +0.000 C 
BRANCH   8   9
ATOM      9  C   UNL     1       9.863  -1.809  23.978  0.00  0.00    -0.000 C 
BRANCH   9  11
ATOM     10  C   UNL     1       9.171  -1.199  21.649  0.00  0.00    +0.004 C 
ATOM     11  C   UNL     1      10.350  -1.434  22.579  0.00  0.00    -0.003 C 
ENDBRANCH   9  11
ENDBRANCH   8   9
ENDBRANCH   7   8
ENDBRANCH   1   7
TORSDOF 5
ENDMDL
MODEL 2
REMARK VINA RESULT:      -3.8      2.758      3.808
REMARK  Name = 
REMARK  6 active torsions:
REMARK  status: ('A' for Active; 'I' for Inactive)
REMARK    1  A    between atoms: C_1  and  C_2
REMARK    2  A    between atoms: C_2  and  C_3
REMARK    3  A    between atoms: C_3  and  C_4
REMARK    4  A    between atoms: C_4  and  C_5
REMARK    5  A    between atoms: C_5  and  C_6
REMARK    6  A    between atoms: C_6  and  C_7
REMARK                            x       y       z     vdW  Elec       q    Type
REMARK                         _______ _______ _______ _____ _____    ______ ____
ROOT
ATOM      1  C   UNL     1       9.043  -0.923  24.087  0.00  0.00    +0.095 C 
ENDROOT
BRANCH   1   2
ATOM      2  C   UNL     1       9.825  -1.922  23.266  0.00  0.00    +0.210 C 
ATOM      3  O   UNL     1      10.340  -2.943  23.701  0.00  0.00    -0.276 OA
ATOM      4  N   UNL     1       9.913  -1.594  21.942  0.00  0.00    -0.329 N 
ATOM      5  H   UNL     1      10.398  -2.235  21.329  0.00  0.00    +0.145 HD
ATOM      6  H   UNL     1       9.465  -0.781  21.542  0.00  0.00    +0.145 HD
ENDBRANCH   1   2
BRANCH   1   7
ATOM      7  C   UNL     1       9.921  -0.138  25.061  0.00  0.00    +0.009 C 
BRANCH   7   8
ATOM      8  C   UNL     1      10.892   0.818  24.357  0.00  0.00    +0.000 C 
BRANCH   8   9
ATOM      9  C   UNL     1      10.189   2.037  23.757  0.00  0.00    -0.000 C 
BRANCH   9  11
ATOM     10  C   UNL     1       8.711   1.891  21.740  0.00  0.00    +0.004 C 
ATOM     11  C   UNL     1      10.146   1.992  22.231  0.00  0.00    -0.003 C 
ENDBRANCH   9  11
ENDBRANCH   8   9
ENDBRANCH   7   8
ENDBRANCH   1   7
TORSDOF 5
ENDMDL
MODEL 3
REMARK VINA RESULT:      -3.8      1.310      1.310
REMARK  Name = 
REMARK  6 active torsions:
REMARK  status: ('A' for Active; 'I' for Inactive)
REMARK    1  A    between atoms: C_1  and  C_2
REMARK    2  A    between atoms: C_2  and  C_3
REMARK    3  A    between atoms: C_3  and  C_4
REMARK    4  A    between atoms: C_4  and  C_5
REMARK    5  A    between atoms: C_5  and  C_6
REMARK    6  A    between atoms: C_6  and  C_7
REMARK                            x       y       z     vdW  Elec       q    Type
REMARK                         _______ _______ _______ _____ _____    ______ ____
ROOT
ATOM      1  C   UNL     1      10.353   2.175  23.967  0.00  0.00    +0.095 C 
ENDROOT
BRANCH   1   2
ATOM      2  C   UNL     1       9.385   2.155  22.806  0.00  0.00    +0.210 C 
ATOM      3  O   UNL     1       8.165   2.156  22.905  0.00  0.00    -0.276 OA
ATOM      4  N   UNL     1       9.995   2.144  21.583  0.00  0.00    -0.329 N 
ATOM      5  H   UNL     1       9.405   2.160  20.762  0.00  0.00    +0.145 HD
ATOM      6  H   UNL     1      10.998   2.184  21.465  0.00  0.00    +0.145 HD
ENDBRANCH   1   2
BRANCH   1   7
ATOM      7  C   UNL     1      10.928   0.796  24.285  0.00  0.00    +0.009 C 
BRANCH   7   8
ATOM      8  C   UNL     1       9.927  -0.121  24.999  0.00  0.00    +0.000 C 
BRANCH   8   9
ATOM      9  C   UNL     1       9.681  -1.428  24.244  0.00  0.00    -0.000 C 
BRANCH   9  11
ATOM     10  C   UNL     1       9.207  -1.437  21.784  0.00  0.00    +0.004 C 
ATOM     11  C   UNL     1      10.295  -1.418  22.845  0.00  0.00    -0.003 C 
ENDBRANCH   9  11
ENDBRANCH   8   9
ENDBRANCH   7   8
ENDBRANCH   1   7
TORSDOF 5
ENDMDL
MODEL 4
REMARK VINA RESULT:      -3.6      4.530      5.618
REMARK  Name = 
REMARK  6 active torsions:
REMARK  status: ('A' for Active; 'I' for Inactive)
REMARK    1  A    between atoms: C_1  and  C_2
REMARK    2  A    between atoms: C_2  and  C_3
REMARK    3  A    between atoms: C_3  and  C_4
REMARK    4  A    between atoms: C_4  and  C_5
REMARK    5  A    between atoms: C_5  and  C_6
REMARK    6  A    between atoms: C_6  and  C_7
REMARK                            x       y       z     vdW  Elec       q    Type
REMARK                         _______ _______ _______ _____ _____    ______ ____
ROOT
ATOM      1  C   UNL     1       9.049  -3.183  24.954  0.00  0.00    +0.095 C 
ENDROOT
BRANCH   1   2
ATOM      2  C   UNL     1       9.237  -4.680  25.047  0.00  0.00    +0.210 C 
ATOM      3  O   UNL     1       9.003  -5.476  24.148  0.00  0.00    -0.276 OA
ATOM      4  N   UNL     1       9.716  -5.099  26.257  0.00  0.00    -0.329 N 
ATOM      5  H   UNL     1       9.892  -6.087  26.377  0.00  0.00    +0.145 HD
ATOM      6  H   UNL     1       9.958  -4.465  27.006  0.00  0.00    +0.145 HD
ENDBRANCH   1   2
BRANCH   1   7
ATOM      7  C   UNL     1       9.922  -2.541  23.876  0.00  0.00    +0.009 C 
BRANCH   7   8
ATOM      8  C   UNL     1       9.106  -1.899  22.748  0.00  0.00    +0.000 C 
BRANCH   8   9
ATOM      9  C   UNL     1       9.949  -0.988  21.853  0.00  0.00    -0.000 C 
BRANCH   9  11
ATOM     10  C   UNL     1       9.967   1.512  22.016  0.00  0.00    +0.004 C 
ATOM     11  C   UNL     1       9.218   0.301  21.482  0.00  0.00    -0.003 C 
ENDBRANCH   9  11
ENDBRANCH   8   9
ENDBRANCH   7   8
ENDBRANCH   1   7
TORSDOF 5
ENDMDL
MODEL 5
REMARK VINA RESULT:      -3.6      2.704      4.103
REMARK  Name = 
REMARK  6 active torsions:
REMARK  status: ('A' for Active; 'I' for Inactive)
REMARK    1  A    between atoms: C_1  and  C_2
REMARK    2  A    between atoms: C_2  and  C_3
REMARK    3  A    between atoms: C_3  and  C_4
REMARK    4  A    between atoms: C_4  and  C_5
REMARK    5  A    between atoms: C_5  and  C_6
REMARK    6  A    between atoms: C_6  and  C_7
REMARK                            x       y       z     vdW  Elec       q    Type
REMARK                         _______ _______ _______ _____ _____    ______ ____
ROOT
ATOM      1  C   UNL     1       9.128   0.088  21.012  0.00  0.00    +0.095 C 
ENDROOT
BRANCH   1   2
ATOM      2  C   UNL     1       9.163  -1.176  21.840  0.00  0.00    +0.210 C 
ATOM      3  O   UNL     1       8.181  -1.759  22.277  0.00  0.00    -0.276 OA
ATOM      4  N   UNL     1      10.425  -1.648  22.067  0.00  0.00    -0.329 N 
ATOM      5  H   UNL     1      10.520  -2.508  22.590  0.00  0.00    +0.145 HD
ATOM      6  H   UNL     1      11.255  -1.214  21.686  0.00  0.00    +0.145 HD
ENDBRANCH   1   2
BRANCH   1   7
ATOM      7  C   UNL     1       8.896   1.343  21.853  0.00  0.00    +0.009 C 
BRANCH   7   8
ATOM      8  C   UNL     1      10.200   2.007  22.312  0.00  0.00    +0.000 C 
BRANCH   8   9
ATOM      9  C   UNL     1      10.303   2.118  23.834  0.00  0.00    -0.000 C 
BRANCH   9  11
ATOM     10  C   UNL     1       9.918   0.077  25.234  0.00  0.00    +0.004 C 
ATOM     11  C   UNL     1      10.950   0.886  24.465  0.00  0.00    -0.003 C 
ENDBRANCH   9  11
ENDBRANCH   8   9
ENDBRANCH   7   8
ENDBRANCH   1   7
TORSDOF 5
ENDMDL
MODEL 6
REMARK VINA RESULT:      -3.6      2.896      4.408
REMARK  Name = 
REMARK  6 active torsions:
REMARK  status: ('A' for Active; 'I' for Inactive)
REMARK    1  A    between atoms: C_1  and  C_2
REMARK    2  A    between atoms: C_2  and  C_3
REMARK    3  A    between atoms: C_3  and  C_4
REMARK    4  A    between atoms: C_4  and  C_5
REMARK    5  A    between atoms: C_5  and  C_6
REMARK    6  A    between atoms: C_6  and  C_7
REMARK                            x       y       z     vdW  Elec       q    Type
REMARK                         _______ _______ _______ _____ _____    ______ ____
ROOT
ATOM      1  C   UNL     1       8.665  -1.422  22.217  0.00  0.00    +0.095 C 
ENDROOT
BRANCH   1   2
ATOM      2  C   UNL     1       9.493  -2.010  23.336  0.00  0.00    +0.210 C 
ATOM      3  O   UNL     1      10.541  -2.625  23.190  0.00  0.00    -0.276 OA
ATOM      4  N   UNL     1       8.972  -1.787  24.580  0.00  0.00    -0.329 N 
ATOM      5  H   UNL     1       9.492  -2.128  25.377  0.00  0.00    +0.145 HD
ATOM      6  H   UNL     1       8.132  -1.249  24.739  0.00  0.00    +0.145 HD
ENDBRANCH   1   2
BRANCH   1   7
ATOM      7  C   UNL     1       9.434  -0.397  21.384  0.00  0.00    +0.009 C 
BRANCH   7   8
ATOM      8  C   UNL     1       8.988   1.046  21.650  0.00  0.00    +0.000 C 
BRANCH   8   9
ATOM      9  C   UNL     1      10.114   1.918  22.208  0.00  0.00    -0.000 C 
BRANCH   9  11
ATOM     10  C   UNL     1       9.226   1.896  24.550  0.00  0.00    +0.004 C 
ATOM     11  C   UNL     1      10.428   1.600  23.669  0.00  0.00    -0.003 C 
ENDBRANCH   9  11
ENDBRANCH   8   9
ENDBRANCH   7   8
ENDBRANCH   1   7
TORSDOF 5
ENDMDL
MODEL 7
REMARK VINA RESULT:      -3.5      2.029      3.001
REMARK  Name = 
REMARK  6 active torsions:
REMARK  status: ('A' for Active; 'I' for Inactive)
REMARK    1  A    between atoms: C_1  and  C_2
REMARK    2  A    between atoms: C_2  and  C_3
REMARK    3  A    between atoms: C_3  and  C_4
REMARK    4  A    between atoms: C_4  and  C_5
REMARK    5  A    between atoms: C_5  and  C_6
REMARK    6  A    between atoms: C_6  and  C_7
REMARK                            x       y       z     vdW  Elec       q    Type
REMARK                         _______ _______ _______ _____ _____    ______ ____
ROOT
ATOM      1  C   UNL     1       9.373  -0.193  21.474  0.00  0.00    +0.095 C 
ENDROOT
BRANCH   1   2
ATOM      2  C   UNL     1       9.019   1.276  21.516  0.00  0.00    +0.210 C 
ATOM      3  O   UNL     1       7.887   1.732  21.423  0.00  0.00    -0.276 OA
ATOM      4  N   UNL     1      10.100   2.096  21.683  0.00  0.00    -0.329 N 
ATOM      5  H   UNL     1       9.932   3.091  21.749  0.00  0.00    +0.145 HD
ATOM      6  H   UNL     1      11.042   1.752  21.804  0.00  0.00    +0.145 HD
ENDBRANCH   1   2
BRANCH   1   7
ATOM      7  C   UNL     1      10.337  -0.604  22.586  0.00  0.00    +0.009 C 
BRANCH   7   8
ATOM      8  C   UNL     1       9.635  -0.859  23.925  0.00  0.00    +0.000 C 
BRANCH   8   9
ATOM      9  C   UNL     1       9.915   0.236  24.956  0.00  0.00    -0.000 C 
BRANCH   9  11
ATOM     10  C   UNL     1       7.421   0.436  24.816  0.00  0.00    +0.004 C 
ATOM     11  C   UNL     1       8.713   1.155  25.170  0.00  0.00    -0.003 C 
ENDBRANCH   9  11
ENDBRANCH   8   9
ENDBRANCH   7   8
ENDBRANCH   1   7
TORSDOF 5
ENDMDL
MODEL 8
REMARK VINA RESULT:      -3.5      1.517      2.413
REMARK  Name = 
REMARK  6 active torsions:
REMARK  status: ('A' for Active; 'I' for Inactive)
REMARK    1  A    between atoms: C_1  and  C_2
REMARK    2  A    between atoms: C_2  and  C_3
REMARK    3  A    between atoms: C_3  and  C_4
REMARK    4  A    between atoms: C_4  and  C_5
REMARK    5  A    between atoms: C_5  and  C_6
REMARK    6  A    between atoms: C_6  and  C_7
REMARK                            x       y       z     vdW  Elec       q    Type
REMARK                         _______ _______ _______ _____ _____    ______ ____
ROOT
ATOM      1  C   UNL     1      10.178   1.709  22.207  0.00  0.00    +0.095 C 
ENDROOT
BRANCH   1   2
ATOM      2  C   UNL     1       9.720   2.498  23.412  0.00  0.00    +0.210 C 
ATOM      3  O   UNL     1       9.608   2.051  24.546  0.00  0.00    -0.276 OA
ATOM      4  N   UNL     1       9.435   3.806  23.137  0.00  0.00    -0.329 N 
ATOM      5  H   UNL     1       9.151   4.398  23.905  0.00  0.00    +0.145 HD
ATOM      6  H   UNL     1       9.556   4.217  22.221  0.00  0.00    +0.145 HD
ENDBRANCH   1   2
BRANCH   1   7
ATOM      7  C   UNL     1       9.057   0.886  21.574  0.00  0.00    +0.009 C 
BRANCH   7   8
ATOM      8  C   UNL     1       9.367  -0.615  21.531  0.00  0.00    +0.000 C 
BRANCH   8   9
ATOM      9  C   UNL     1      10.421  -1.032  22.558  0.00  0.00    -0.000 C 
BRANCH   9  11
ATOM     10  C   UNL     1       9.199  -1.490  24.697  0.00  0.00    +0.004 C 
ATOM     11  C   UNL     1       9.912  -2.115  23.508  0.00  0.00    -0.003 C 
ENDBRANCH   9  11
ENDBRANCH   8   9
ENDBRANCH   7   8
ENDBRANCH   1   7
TORSDOF 5
ENDMDL
MODEL 9
REMARK VINA RESULT:      -3.5      1.623      2.619
REMARK  Name = 
REMARK  6 active torsions:
REMARK  status: ('A' for Active; 'I' for Inactive)
REMARK    1  A    between atoms: C_1  and  C_2
REMARK    2  A    between atoms: C_2  and  C_3
REMARK    3  A    between atoms: C_3  and  C_4
REMARK    4  A    between atoms: C_4  and  C_5
REMARK    5  A    between atoms: C_5  and  C_6
REMARK    6  A    between atoms: C_6  and  C_7
REMARK                            x       y       z     vdW  Elec       q    Type
REMARK                         _______ _______ _______ _____ _____    ______ ____
ROOT
ATOM      1  C   UNL     1       9.298   0.138  21.547  0.00  0.00    +0.095 C 
ENDROOT
BRANCH   1   2
ATOM      2  C   UNL     1      10.045   1.178  22.350  0.00  0.00    +0.210 C 
ATOM      3  O   UNL     1      10.495   1.009  23.475  0.00  0.00    -0.276 OA
ATOM      4  N   UNL     1      10.197   2.369  21.699  0.00  0.00    -0.329 N 
ATOM      5  H   UNL     1      10.714   3.100  22.168  0.00  0.00    +0.145 HD
ATOM      6  H   UNL     1       9.874   2.529  20.754  0.00  0.00    +0.145 HD
ENDBRANCH   1   2
BRANCH   1   7
ATOM      7  C   UNL     1       9.825  -1.279  21.772  0.00  0.00    +0.009 C 
BRANCH   7   8
ATOM      8  C   UNL     1       8.876  -2.146  22.607  0.00  0.00    +0.000 C 
BRANCH   8   9
ATOM      9  C   UNL     1       9.469  -2.536  23.962  0.00  0.00    -0.000 C 
BRANCH   9  11
ATOM     10  C   UNL     1       7.591  -1.065  24.729  0.00  0.00    +0.004 C 
ATOM     11  C   UNL     1       8.935  -1.670  25.102  0.00  0.00    -0.003 C 
ENDBRANCH   9  11
ENDBRANCH   8   9
ENDBRANCH   7   8
ENDBRANCH   1   7
TORSDOF 5
ENDMDL
