MODEL 1
REMARK VINA RESULT:      -5.1      0.000      0.000
REMARK  Name = 
REMARK  1 active torsions:
REMARK  status: ('A' for Active; 'I' for Inactive)
REMARK    1  A    between atoms: O_1  and  C_2
REMARK                            x       y       z     vdW  Elec       q    Type
REMARK                         _______ _______ _______ _____ _____    ______ ____
ROOT
ATOM      1  C   UNL     1       9.725  -1.527  23.510  0.00  0.00    +0.156 A 
ATOM      2  C   UNL     1       9.427  -2.517  24.458  0.00  0.00    +0.115 A 
ATOM      3  N   UNL     1       9.876  -3.782  24.289  0.00  0.00    -0.251 NA
ATOM      4  C   UNL     1       9.575  -4.721  25.207  0.00  0.00    +0.111 A 
ATOM      5  C   UNL     1       8.823  -4.469  26.331  0.00  0.00    +0.020 A 
ATOM      6  C   UNL     1       8.358  -3.173  26.520  0.00  0.00    +0.013 A 
ATOM      7  C   UNL     1       8.647  -2.155  25.582  0.00  0.00    +0.022 A 
ATOM      8  C   UNL     1       8.202  -0.815  25.711  0.00  0.00    +0.051 A 
ATOM      9 CL   UNL     1       7.250  -0.291  27.062  0.00  0.00    -0.083 Cl
ATOM     10  C   UNL     1       8.510   0.148  24.750  0.00  0.00    +0.038 A 
ATOM     11  C   UNL     1       9.271  -0.210  23.647  0.00  0.00    +0.058 A 
ATOM     12  I   UNL     1       9.706   1.254  22.220  0.00  0.00    -0.040 I 
ENDROOT
BRANCH   1  13
ATOM     13  O   UNL     1      10.488  -1.885  22.417  0.00  0.00    -0.504 OA
ATOM     14  H   UNL     1       9.891  -2.142  21.695  0.00  0.00    +0.292 HD
ENDBRANCH   1  13
TORSDOF 1
ENDMDL
MODEL 2
REMARK VINA RESULT:      -5.1      3.810      4.709
REMARK  Name = 
REMARK  1 active torsions:
REMARK  status: ('A' for Active; 'I' for Inactive)
REMARK    1  A    between atoms: O_1  and  C_2
REMARK                            x       y       z     vdW  Elec       q    Type
REMARK                         _______ _______ _______ _____ _____    ______ ____
ROOT
ATOM      1  C   UNL     1       6.511  -3.717  22.675  0.00  0.00    +0.156 A 
ATOM      2  C   UNL     1       7.746  -3.062  22.806  0.00  0.00    +0.115 A 
ATOM      3  N   UNL     1       8.129  -2.140  21.893  0.00  0.00    -0.251 NA
ATOM      4  C   UNL     1       9.320  -1.525  22.032  0.00  0.00    +0.111 A 
ATOM      5  C   UNL     1      10.190  -1.782  23.066  0.00  0.00    +0.020 A 
ATOM      6  C   UNL     1       9.807  -2.724  24.013  0.00  0.00    +0.013 A 
ATOM      7  C   UNL     1       8.567  -3.396  23.908  0.00  0.00    +0.022 A 
ATOM      8  C   UNL     1       8.117  -4.369  24.835  0.00  0.00    +0.051 A 
ATOM      9 CL   UNL     1       9.062  -4.827  26.215  0.00  0.00    -0.083 Cl
ATOM     10  C   UNL     1       6.887  -5.008  24.679  0.00  0.00    +0.038 A 
ATOM     11  C   UNL     1       6.085  -4.681  23.595  0.00  0.00    +0.058 A 
ATOM     12  I   UNL     1       4.252  -5.664  23.382  0.00  0.00    -0.040 I 
ENDROOT
BRANCH   1  13
ATOM     13  O   UNL     1       5.713  -3.385  21.600  0.00  0.00    -0.504 OA
ATOM     14  H   UNL     1       6.194  -2.753  21.041  0.00  0.00    +0.292 HD
ENDBRANCH   1  13
TORSDOF 1
ENDMDL
MODEL 3
REMARK VINA RESULT:      -4.9      3.456      3.831
REMARK  Name = 
REMARK  1 active torsions:
REMARK  status: ('A' for Active; 'I' for Inactive)
REMARK    1  A    between atoms: O_1  and  C_2
REMARK                            x       y       z     vdW  Elec       q    Type
REMARK                         _______ _______ _______ _____ _____    ______ ____
ROOT
ATOM      1  C   UNL     1       7.246  -1.820  23.382  0.00  0.00    +0.156 A 
ATOM      2  C   UNL     1       7.109  -3.136  22.916  0.00  0.00    +0.115 A 
ATOM      3  N   UNL     1       6.239  -3.420  21.918  0.00  0.00    -0.251 NA
ATOM      4  C   UNL     1       6.116  -4.691  21.488  0.00  0.00    +0.111 A 
ATOM      5  C   UNL     1       6.835  -5.741  22.009  0.00  0.00    +0.020 A 
ATOM      6  C   UNL     1       7.734  -5.464  23.031  0.00  0.00    +0.013 A 
ATOM      7  C   UNL     1       7.896  -4.146  23.517  0.00  0.00    +0.022 A 
ATOM      8  C   UNL     1       8.791  -3.794  24.558  0.00  0.00    +0.051 A 
ATOM      9 CL   UNL     1       9.797  -4.971  25.340  0.00  0.00    -0.083 Cl
ATOM     10  C   UNL     1       8.905  -2.477  25.005  0.00  0.00    +0.038 A 
ATOM     11  C   UNL     1       8.129  -1.490  24.416  0.00  0.00    +0.058 A 
ATOM     12  I   UNL     1       8.314   0.471  25.116  0.00  0.00    -0.040 I 
ENDROOT
BRANCH   1  13
ATOM     13  O   UNL     1       6.477  -0.839  22.789  0.00  0.00    -0.504 OA
ATOM     14  H   UNL     1       5.766  -1.268  22.284  0.00  0.00    +0.292 HD
ENDBRANCH   1  13
TORSDOF 1
ENDMDL
MODEL 4
REMARK VINA RESULT:      -4.8      2.733      3.105
REMARK  Name = 
REMARK  1 active torsions:
REMARK  status: ('A' for Active; 'I' for Inactive)
REMARK    1  A    between atoms: O_1  and  C_2
REMARK                            x       y       z     vdW  Elec       q    Type
REMARK                         _______ _______ _______ _____ _____    ______ ____
ROOT
ATOM      1  C   UNL     1       8.902  -1.890  24.274  0.00  0.00    +0.156 A 
ATOM      2  C   UNL     1       8.394  -3.047  24.885  0.00  0.00    +0.115 A 
ATOM      3  N   UNL     1       8.598  -3.268  26.204  0.00  0.00    -0.251 NA
ATOM      4  C   UNL     1       8.109  -4.388  26.772  0.00  0.00    +0.111 A 
ATOM      5  C   UNL     1       7.398  -5.341  26.079  0.00  0.00    +0.020 A 
ATOM      6  C   UNL     1       7.177  -5.125  24.725  0.00  0.00    +0.013 A 
ATOM      7  C   UNL     1       7.674  -3.965  24.086  0.00  0.00    +0.022 A 
ATOM      8  C   UNL     1       7.488  -3.684  22.708  0.00  0.00    +0.051 A 
ATOM      9 CL   UNL     1       6.611  -4.755  21.664  0.00  0.00    -0.083 Cl
ATOM     10  C   UNL     1       8.007  -2.528  22.126  0.00  0.00    +0.038 A 
ATOM     11  C   UNL     1       8.717  -1.631  22.911  0.00  0.00    +0.058 A 
ATOM     12  I   UNL     1       9.492   0.087  22.007  0.00  0.00    -0.040 I 
ENDROOT
BRANCH   1  13
ATOM     13  O   UNL     1       9.601  -0.997  25.059  0.00  0.00    -0.504 OA
ATOM     14  H   UNL     1      10.350  -0.653  24.544  0.00  0.00    +0.292 HD
ENDBRANCH   1  13
TORSDOF 1
ENDMDL
MODEL 5
REMARK VINA RESULT:      -4.8      2.635      3.266
REMARK  Name = 
REMARK  1 active torsions:
REMARK  status: ('A' for Active; 'I' for Inactive)
REMARK    1  A    between atoms: O_1  and  C_2
REMARK                            x       y       z     vdW  Elec       q    Type
REMARK                         _______ _______ _______ _____ _____    ______ ____
ROOT
ATOM      1  C   UNL     1       9.487   1.927  23.017  0.00  0.00    +0.156 A 
ATOM      2  C   UNL     1       9.628   0.542  23.197  0.00  0.00    +0.115 A 
ATOM      3  N   UNL     1      10.248  -0.208  22.256  0.00  0.00    -0.251 NA
ATOM      4  C   UNL     1      10.369  -1.537  22.443  0.00  0.00    +0.111 A 
ATOM      5  C   UNL     1       9.893  -2.193  23.555  0.00  0.00    +0.020 A 
ATOM      6  C   UNL     1       9.259  -1.434  24.530  0.00  0.00    +0.013 A 
ATOM      7  C   UNL     1       9.106  -0.037  24.377  0.00  0.00    +0.022 A 
ATOM      8  C   UNL     1       8.467   0.795  25.330  0.00  0.00    +0.051 A 
ATOM      9 CL   UNL     1       7.808   0.164  26.804  0.00  0.00    -0.083 Cl
ATOM     10  C   UNL     1       8.336   2.169  25.124  0.00  0.00    +0.038 A 
ATOM     11  C   UNL     1       8.846   2.734  23.964  0.00  0.00    +0.058 A 
ATOM     12  I   UNL     1       8.624   4.793  23.679  0.00  0.00    -0.040 I 
ENDROOT
BRANCH   1  13
ATOM     13  O   UNL     1      10.001   2.486  21.865  0.00  0.00    -0.504 OA
ATOM     14  H   UNL     1      10.762   3.041  22.105  0.00  0.00    +0.292 HD
ENDBRANCH   1  13
TORSDOF 1
ENDMDL
MODEL 6
REMARK VINA RESULT:      -4.8      4.500      5.132
REMARK  Name = 
REMARK  1 active torsions:
REMARK  status: ('A' for Active; 'I' for Inactive)
REMARK    1  A    between atoms: O_1  and  C_2
REMARK                            x       y       z     vdW  Elec       q    Type
REMARK                         _______ _______ _______ _____ _____    ______ ____
ROOT
ATOM      1  C   UNL     1       7.367  -4.179  25.108  0.00  0.00    +0.156 A 
ATOM      2  C   UNL     1       6.350  -5.145  25.128  0.00  0.00    +0.115 A 
ATOM      3  N   UNL     1       5.821  -5.554  26.305  0.00  0.00    -0.251 NA
ATOM      4  C   UNL     1       4.849  -6.487  26.306  0.00  0.00    +0.111 A 
ATOM      5  C   UNL     1       4.349  -7.063  25.161  0.00  0.00    +0.020 A 
ATOM      6  C   UNL     1       4.881  -6.650  23.946  0.00  0.00    +0.013 A 
ATOM      7  C   UNL     1       5.903  -5.675  23.895  0.00  0.00    +0.022 A 
ATOM      8  C   UNL     1       6.492  -5.212  22.692  0.00  0.00    +0.051 A 
ATOM      9 CL   UNL     1       5.994  -5.805  21.140  0.00  0.00    -0.083 Cl
ATOM     10  C   UNL     1       7.505  -4.253  22.700  0.00  0.00    +0.038 A 
ATOM     11  C   UNL     1       7.943  -3.738  23.911  0.00  0.00    +0.058 A 
ATOM     12  I   UNL     1       9.470  -2.310  23.891  0.00  0.00    -0.040 I 
ENDROOT
BRANCH   1  13
ATOM     13  O   UNL     1       7.797  -3.664  26.313  0.00  0.00    -0.504 OA
ATOM     14  H   UNL     1       8.512  -4.227  26.652  0.00  0.00    +0.292 HD
ENDBRANCH   1  13
TORSDOF 1
ENDMDL
MODEL 7
REMARK VINA RESULT:      -4.6      5.833      6.675
REMARK  Name = 
REMARK  1 active torsions:
REMARK  status: ('A' for Active; 'I' for Inactive)
REMARK    1  A    between atoms: O_1  and  C_2
REMARK                            x       y       z     vdW  Elec       q    Type
REMARK                         _______ _______ _______ _____ _____    ______ ____
ROOT
ATOM      1  C   UNL     1       4.568  -6.703  25.484  0.00  0.00    +0.156 A 
ATOM      2  C   UNL     1       5.779  -6.006  25.612  0.00  0.00    +0.115 A 
ATOM      3  N   UNL     1       6.451  -6.017  26.787  0.00  0.00    -0.251 NA
ATOM      4  C   UNL     1       7.610  -5.337  26.894  0.00  0.00    +0.111 A 
ATOM      5  C   UNL     1       8.165  -4.617  25.862  0.00  0.00    +0.020 A 
ATOM      6  C   UNL     1       7.487  -4.600  24.649  0.00  0.00    +0.013 A 
ATOM      7  C   UNL     1       6.267  -5.297  24.490  0.00  0.00    +0.022 A 
ATOM      8  C   UNL     1       5.524  -5.319  23.283  0.00  0.00    +0.051 A 
ATOM      9 CL   UNL     1       6.058  -4.483  21.861  0.00  0.00    -0.083 Cl
ATOM     10  C   UNL     1       4.320  -6.017  23.183  0.00  0.00    +0.038 A 
ATOM     11  C   UNL     1       3.842  -6.708  24.287  0.00  0.00    +0.058 A 
ATOM     12  I   UNL     1       2.029  -7.735  24.110  0.00  0.00    -0.040 I 
ENDROOT
BRANCH   1  13
ATOM     13  O   UNL     1       4.099  -7.395  26.581  0.00  0.00    -0.504 OA
ATOM     14  H   UNL     1       4.393  -8.318  26.513  0.00  0.00    +0.292 HD
ENDBRANCH   1  13
TORSDOF 1
ENDMDL
MODEL 8
REMARK VINA RESULT:      -4.6      2.895      3.984
REMARK  Name = 
REMARK  1 active torsions:
REMARK  status: ('A' for Active; 'I' for Inactive)
REMARK    1  A    between atoms: O_1  and  C_2
REMARK                            x       y       z     vdW  Elec       q    Type
REMARK                         _______ _______ _______ _____ _____    ______ ____
ROOT
ATOM      1  C   UNL     1       7.780  -3.265  23.531  0.00  0.00    +0.156 A 
ATOM      2  C   UNL     1       8.625  -2.166  23.310  0.00  0.00    +0.115 A 
ATOM      3  N   UNL     1       9.059  -1.880  22.060  0.00  0.00    -0.251 NA
ATOM      4  C   UNL     1       9.875  -0.825  21.868  0.00  0.00    +0.111 A 
ATOM      5  C   UNL     1      10.303  -0.002  22.884  0.00  0.00    +0.020 A 
ATOM      6  C   UNL     1       9.862  -0.282  24.171  0.00  0.00    +0.013 A 
ATOM      7  C   UNL     1       9.007  -1.380  24.422  0.00  0.00    +0.022 A 
ATOM      8  C   UNL     1       8.523  -1.725  25.709  0.00  0.00    +0.051 A 
ATOM      9 CL   UNL     1       8.938  -0.807  27.121  0.00  0.00    -0.083 Cl
ATOM     10  C   UNL     1       7.687  -2.825  25.901  0.00  0.00    +0.038 A 
ATOM     11  C   UNL     1       7.318  -3.596  24.809  0.00  0.00    +0.058 A 
ATOM     12  I   UNL     1       6.074  -5.245  25.131  0.00  0.00    -0.040 I 
ENDROOT
BRANCH   1  13
ATOM     13  O   UNL     1       7.409  -4.026  22.442  0.00  0.00    -0.504 OA
ATOM     14  H   UNL     1       6.754  -3.528  21.926  0.00  0.00    +0.292 HD
ENDBRANCH   1  13
TORSDOF 1
ENDMDL
MODEL 9
REMARK VINA RESULT:      -4.6      3.181      3.595
REMARK  Name = 
REMARK  1 active torsions:
REMARK  status: ('A' for Active; 'I' for Inactive)
REMARK    1  A    between atoms: O_1  and  C_2
REMARK                            x       y       z     vdW  Elec       q    Type
REMARK                         _______ _______ _______ _____ _____    ______ ____
ROOT
ATOM      1  C   UNL     1       7.171  -2.319  23.341  0.00  0.00    +0.156 A 
ATOM      2  C   UNL     1       6.610  -3.347  24.115  0.00  0.00    +0.115 A 
ATOM      3  N   UNL     1       5.266  -3.488  24.191  0.00  0.00    -0.251 NA
ATOM      4  C   UNL     1       4.745  -4.477  24.943  0.00  0.00    +0.111 A 
ATOM      5  C   UNL     1       5.510  -5.372  25.655  0.00  0.00    +0.020 A 
ATOM      6  C   UNL     1       6.891  -5.241  25.583  0.00  0.00    +0.013 A 
ATOM      7  C   UNL     1       7.483  -4.217  24.808  0.00  0.00    +0.022 A 
ATOM      8  C   UNL     1       8.883  -4.025  24.694  0.00  0.00    +0.051 A 
ATOM      9 CL   UNL     1      10.020  -5.054  25.504  0.00  0.00    -0.083 Cl
ATOM     10  C   UNL     1       9.415  -2.993  23.920  0.00  0.00    +0.038 A 
ATOM     11  C   UNL     1       8.556  -2.138  23.245  0.00  0.00    +0.058 A 
ATOM     12  I   UNL     1       9.382  -0.594  22.104  0.00  0.00    -0.040 I 
ENDROOT
BRANCH   1  13
ATOM     13  O   UNL     1       6.314  -1.475  22.666  0.00  0.00    -0.504 OA
ATOM     14  H   UNL     1       6.232  -0.650  23.172  0.00  0.00    +0.292 HD
ENDBRANCH   1  13
TORSDOF 1
ENDMDL
