MODEL 1
REMARK VINA RESULT:      -4.2      0.000      0.000
REMARK  Name = 
REMARK  9 active torsions:
REMARK  status: ('A' for Active; 'I' for Inactive)
REMARK    1  A    between atoms: C_1  and  C_2
REMARK    2  A    between atoms: C_2  and  C_3
REMARK    3  A    between atoms: C_3  and  C_4
REMARK    4  A    between atoms: C_4  and  C_5
REMARK    5  A    between atoms: C_5  and  O_7
REMARK    6  A    between atoms: C_5  and  C_8
REMARK    7  A    between atoms: C_8  and  O_10
REMARK    8  A    between atoms: C_8  and  C_11
REMARK    9  A    between atoms: C_11  and  O_12
REMARK                            x       y       z     vdW  Elec       q    Type
REMARK                         _______ _______ _______ _____ _____    ______ ____
ROOT
ATOM      1  C   UNL     1       8.836  -3.689  24.451  0.00  0.00    +0.145 C 
ENDROOT
BRANCH   1   2
ATOM      2  O   UNL     1      10.135  -3.324  23.974  0.00  0.00    -0.389 OA
ATOM      3  H   UNL     1      10.444  -2.576  24.517  0.00  0.00    +0.210 HD
ENDBRANCH   1   2
BRANCH   1   4
ATOM      4  C   UNL     1       7.891  -3.858  23.251  0.00  0.00    +0.034 C 
BRANCH   4   5
ATOM      5  C   UNL     1       7.525  -5.328  23.008  0.00  0.00    +0.002 C 
BRANCH   5   7
ATOM      6  C   UNL     1       6.214  -5.787  20.904  0.00  0.00    +0.004 C 
ATOM      7  C   UNL     1       6.134  -5.455  22.386  0.00  0.00    -0.003 C 
ENDBRANCH   5   7
ENDBRANCH   4   5
ENDBRANCH   1   4
BRANCH   1   8
ATOM      8  C   UNL     1       8.925  -4.952  25.344  0.00  0.00    +0.168 C 
BRANCH   8   9
ATOM      9  O   UNL     1      10.256  -5.467  25.365  0.00  0.00    -0.387 OA
ATOM     10  H   UNL     1      10.753  -5.036  24.651  0.00  0.00    +0.210 HD
ENDBRANCH   8   9
BRANCH   8  11
ATOM     11  C   UNL     1       8.440  -4.723  26.785  0.00  0.00    +0.189 C 
BRANCH  11  12
ATOM     12  O   UNL     1       8.025  -5.935  27.407  0.00  0.00    -0.392 OA
ATOM     13  H   UNL     1       7.145  -5.758  27.799  0.00  0.00    +0.210 HD
ENDBRANCH  11  12
ENDBRANCH   8  11
ENDBRANCH   1   8
TORSDOF 8
ENDMDL
MODEL 2
REMARK VINA RESULT:      -4.0      5.036      6.904
REMARK  Name = 
REMARK  9 active torsions:
REMARK  status: ('A' for Active; 'I' for Inactive)
REMARK    1  A    between atoms: C_1  and  C_2
REMARK    2  A    between atoms: C_2  and  C_3
REMARK    3  A    between atoms: C_3  and  C_4
REMARK    4  A    between atoms: C_4  and  C_5
REMARK    5  A    between atoms: C_5  and  O_7
REMARK    6  A    between atoms: C_5  and  C_8
REMARK    7  A    between atoms: C_8  and  O_10
REMARK    8  A    between atoms: C_8  and  C_11
REMARK    9  A    between atoms: C_11  and  O_12
REMARK                            x       y       z     vdW  Elec       q    Type
REMARK                         _______ _______ _______ _____ _____    ______ ____
ROOT
ATOM      1  C   UNL     1      10.184   1.255  22.395  0.00  0.00    +0.145 C 
ENDROOT
BRANCH   1   2
ATOM      2  O   UNL     1      10.474   2.436  21.640  0.00  0.00    -0.389 OA
ATOM      3  H   UNL     1      10.904   2.153  20.812  0.00  0.00    +0.210 HD
ENDBRANCH   1   2
BRANCH   1   4
ATOM      4  C   UNL     1      10.114   1.619  23.886  0.00  0.00    +0.034 C 
BRANCH   4   5
ATOM      5  C   UNL     1      10.707   0.518  24.776  0.00  0.00    +0.002 C 
BRANCH   5   7
ATOM      6  C   UNL     1       8.324   0.457  25.593  0.00  0.00    +0.004 C 
ATOM      7  C   UNL     1       9.608  -0.335  25.407  0.00  0.00    -0.003 C 
ENDBRANCH   5   7
ENDBRANCH   4   5
ENDBRANCH   1   4
BRANCH   1   8
ATOM      8  C   UNL     1       8.892   0.581  21.867  0.00  0.00    +0.168 C 
BRANCH   8   9
ATOM      9  O   UNL     1       8.518   1.123  20.600  0.00  0.00    -0.387 OA
ATOM     10  H   UNL     1       7.696   0.686  20.321  0.00  0.00    +0.210 HD
ENDBRANCH   8   9
BRANCH   8  11
ATOM     11  C   UNL     1       8.994  -0.949  21.761  0.00  0.00    +0.189 C 
BRANCH  11  12
ATOM     12  O   UNL     1      10.336  -1.382  21.564  0.00  0.00    -0.392 OA
ATOM     13  H   UNL     1      10.528  -2.025  22.278  0.00  0.00    +0.210 HD
ENDBRANCH  11  12
ENDBRANCH   8  11
ENDBRANCH   1   8
TORSDOF 8
ENDMDL
MODEL 3
REMARK VINA RESULT:      -4.0      2.480      3.614
REMARK  Name = 
REMARK  9 active torsions:
REMARK  status: ('A' for Active; 'I' for Inactive)
REMARK    1  A    between atoms: C_1  and  C_2
REMARK    2  A    between atoms: C_2  and  C_3
REMARK    3  A    between atoms: C_3  and  C_4
REMARK    4  A    between atoms: C_4  and  C_5
REMARK    5  A    between atoms: C_5  and  O_7
REMARK    6  A    between atoms: C_5  and  C_8
REMARK    7  A    between atoms: C_8  and  O_10
REMARK    8  A    between atoms: C_8  and  C_11
REMARK    9  A    between atoms: C_11  and  O_12
REMARK                            x       y       z     vdW  Elec       q    Type
REMARK                         _______ _______ _______ _____ _____    ______ ____
ROOT
ATOM      1  C   UNL     1       8.853  -3.117  24.053  0.00  0.00    +0.145 C 
ENDROOT
BRANCH   1   2
ATOM      2  O   UNL     1      10.275  -3.182  23.904  0.00  0.00    -0.389 OA
ATOM      3  H   UNL     1      10.667  -2.656  24.625  0.00  0.00    +0.210 HD
ENDBRANCH   1   2
BRANCH   1   4
ATOM      4  C   UNL     1       8.232  -2.637  22.731  0.00  0.00    +0.034 C 
BRANCH   4   5
ATOM      5  C   UNL     1       8.269  -1.109  22.598  0.00  0.00    +0.002 C 
BRANCH   5   7
ATOM      6  C   UNL     1       9.603   0.832  21.700  0.00  0.00    +0.004 C 
ATOM      7  C   UNL     1       9.354  -0.666  21.616  0.00  0.00    -0.003 C 
ENDBRANCH   5   7
ENDBRANCH   4   5
ENDBRANCH   1   4
BRANCH   1   8
ATOM      8  C   UNL     1       8.297  -4.481  24.532  0.00  0.00    +0.168 C 
BRANCH   8   9
ATOM      9  O   UNL     1       8.285  -5.429  23.464  0.00  0.00    -0.387 OA
ATOM     10  H   UNL     1       9.110  -5.940  23.511  0.00  0.00    +0.210 HD
ENDBRANCH   8   9
BRANCH   8  11
ATOM     11  C   UNL     1       9.058  -5.069  25.731  0.00  0.00    +0.189 C 
BRANCH  11  12
ATOM     12  O   UNL     1      10.295  -5.657  25.342  0.00  0.00    -0.392 OA
ATOM     13  H   UNL     1      10.688  -5.059  24.673  0.00  0.00    +0.210 HD
ENDBRANCH  11  12
ENDBRANCH   8  11
ENDBRANCH   1   8
TORSDOF 8
ENDMDL
MODEL 4
REMARK VINA RESULT:      -3.9      2.147      3.174
REMARK  Name = 
REMARK  9 active torsions:
REMARK  status: ('A' for Active; 'I' for Inactive)
REMARK    1  A    between atoms: C_1  and  C_2
REMARK    2  A    between atoms: C_2  and  C_3
REMARK    3  A    between atoms: C_3  and  C_4
REMARK    4  A    between atoms: C_4  and  C_5
REMARK    5  A    between atoms: C_5  and  O_7
REMARK    6  A    between atoms: C_5  and  C_8
REMARK    7  A    between atoms: C_8  and  O_10
REMARK    8  A    between atoms: C_8  and  C_11
REMARK    9  A    between atoms: C_11  and  O_12
REMARK                            x       y       z     vdW  Elec       q    Type
REMARK                         _______ _______ _______ _____ _____    ______ ____
ROOT
ATOM      1  C   UNL     1       8.602  -3.649  24.141  0.00  0.00    +0.145 C 
ENDROOT
BRANCH   1   2
ATOM      2  O   UNL     1       7.236  -3.302  24.393  0.00  0.00    -0.389 OA
ATOM      3  H   UNL     1       7.231  -2.644  25.112  0.00  0.00    +0.210 HD
ENDBRANCH   1   2
BRANCH   1   4
ATOM      4  C   UNL     1       9.479  -2.402  24.339  0.00  0.00    +0.034 C 
BRANCH   4   5
ATOM      5  C   UNL     1      10.196  -1.990  23.047  0.00  0.00    +0.002 C 
BRANCH   5   7
ATOM      6  C   UNL     1       9.447  -0.154  21.492  0.00  0.00    +0.004 C 
ATOM      7  C   UNL     1       9.196  -1.576  21.968  0.00  0.00    -0.003 C 
ENDBRANCH   5   7
ENDBRANCH   4   5
ENDBRANCH   1   4
BRANCH   1   8
ATOM      8  C   UNL     1       9.027  -4.846  25.027  0.00  0.00    +0.168 C 
BRANCH   8   9
ATOM      9  O   UNL     1      10.421  -5.117  24.881  0.00  0.00    -0.387 OA
ATOM     10  H   UNL     1      10.718  -5.587  25.677  0.00  0.00    +0.210 HD
ENDBRANCH   8   9
BRANCH   8  11
ATOM     11  C   UNL     1       8.695  -4.659  26.516  0.00  0.00    +0.189 C 
BRANCH  11  12
ATOM     12  O   UNL     1       8.098  -5.822  27.080  0.00  0.00    -0.392 OA
ATOM     13  H   UNL     1       8.802  -6.276  27.589  0.00  0.00    +0.210 HD
ENDBRANCH  11  12
ENDBRANCH   8  11
ENDBRANCH   1   8
TORSDOF 8
ENDMDL
MODEL 5
REMARK VINA RESULT:      -3.9      1.134      2.701
REMARK  Name = 
REMARK  9 active torsions:
REMARK  status: ('A' for Active; 'I' for Inactive)
REMARK    1  A    between atoms: C_1  and  C_2
REMARK    2  A    between atoms: C_2  and  C_3
REMARK    3  A    between atoms: C_3  and  C_4
REMARK    4  A    between atoms: C_4  and  C_5
REMARK    5  A    between atoms: C_5  and  O_7
REMARK    6  A    between atoms: C_5  and  C_8
REMARK    7  A    between atoms: C_8  and  O_10
REMARK    8  A    between atoms: C_8  and  C_11
REMARK    9  A    between atoms: C_11  and  O_12
REMARK                            x       y       z     vdW  Elec       q    Type
REMARK                         _______ _______ _______ _____ _____    ______ ____
ROOT
ATOM      1  C   UNL     1       8.021  -5.453  26.027  0.00  0.00    +0.145 C 
ENDROOT
BRANCH   1   2
ATOM      2  O   UNL     1       7.865  -5.734  27.422  0.00  0.00    -0.389 OA
ATOM      3  H   UNL     1       7.608  -6.671  27.502  0.00  0.00    +0.210 HD
ENDBRANCH   1   2
BRANCH   1   4
ATOM      4  C   UNL     1       6.769  -4.719  25.522  0.00  0.00    +0.034 C 
BRANCH   4   5
ATOM      5  C   UNL     1       6.081  -5.473  24.376  0.00  0.00    +0.002 C 
BRANCH   5   7
ATOM      6  C   UNL     1       7.076  -6.010  22.123  0.00  0.00    +0.004 C 
ATOM      7  C   UNL     1       6.507  -4.919  23.016  0.00  0.00    -0.003 C 
ENDBRANCH   5   7
ENDBRANCH   4   5
ENDBRANCH   1   4
BRANCH   1   8
ATOM      8  C   UNL     1       9.334  -4.669  25.778  0.00  0.00    +0.168 C 
BRANCH   8   9
ATOM      9  O   UNL     1      10.283  -5.475  25.081  0.00  0.00    -0.387 OA
ATOM     10  H   UNL     1      10.555  -4.991  24.283  0.00  0.00    +0.210 HD
ENDBRANCH   8   9
BRANCH   8  11
ATOM     11  C   UNL     1       9.128  -3.347  25.021  0.00  0.00    +0.189 C 
BRANCH  11  12
ATOM     12  O   UNL     1      10.080  -3.177  23.976  0.00  0.00    -0.392 OA
ATOM     13  H   UNL     1      10.868  -2.759  24.382  0.00  0.00    +0.210 HD
ENDBRANCH  11  12
ENDBRANCH   8  11
ENDBRANCH   1   8
TORSDOF 8
ENDMDL
MODEL 6
REMARK VINA RESULT:      -3.9      4.301      6.018
REMARK  Name = 
REMARK  9 active torsions:
REMARK  status: ('A' for Active; 'I' for Inactive)
REMARK    1  A    between atoms: C_1  and  C_2
REMARK    2  A    between atoms: C_2  and  C_3
REMARK    3  A    between atoms: C_3  and  C_4
REMARK    4  A    between atoms: C_4  and  C_5
REMARK    5  A    between atoms: C_5  and  O_7
REMARK    6  A    between atoms: C_5  and  C_8
REMARK    7  A    between atoms: C_8  and  O_10
REMARK    8  A    between atoms: C_8  and  C_11
REMARK    9  A    between atoms: C_11  and  O_12
REMARK                            x       y       z     vdW  Elec       q    Type
REMARK                         _______ _______ _______ _____ _____    ______ ____
ROOT
ATOM      1  C   UNL     1      10.002  -0.595  22.583  0.00  0.00    +0.145 C 
ENDROOT
BRANCH   1   2
ATOM      2  O   UNL     1      10.272  -1.608  21.608  0.00  0.00    -0.389 OA
ATOM      3  H   UNL     1      10.378  -1.162  20.748  0.00  0.00    +0.210 HD
ENDBRANCH   1   2
BRANCH   1   4
ATOM      4  C   UNL     1       9.331   0.600  21.890  0.00  0.00    +0.034 C 
BRANCH   4   5
ATOM      5  C   UNL     1      10.128   1.898  22.078  0.00  0.00    +0.002 C 
BRANCH   5   7
ATOM      6  C   UNL     1       9.243   2.698  24.298  0.00  0.00    +0.004 C 
ATOM      7  C   UNL     1      10.446   2.142  23.553  0.00  0.00    -0.003 C 
ENDBRANCH   5   7
ENDBRANCH   4   5
ENDBRANCH   1   4
BRANCH   1   8
ATOM      8  C   UNL     1       9.165  -1.178  23.749  0.00  0.00    +0.168 C 
BRANCH   8   9
ATOM      9  O   UNL     1       7.889  -0.541  23.827  0.00  0.00    -0.387 OA
ATOM     10  H   UNL     1       7.566  -0.634  24.738  0.00  0.00    +0.210 HD
ENDBRANCH   8   9
BRANCH   8  11
ATOM     11  C   UNL     1       8.973  -2.701  23.669  0.00  0.00    +0.189 C 
BRANCH  11  12
ATOM     12  O   UNL     1      10.142  -3.408  24.068  0.00  0.00    -0.392 OA
ATOM     13  H   UNL     1      10.906  -2.856  23.798  0.00  0.00    +0.210 HD
ENDBRANCH  11  12
ENDBRANCH   8  11
ENDBRANCH   1   8
TORSDOF 8
ENDMDL
MODEL 7
REMARK VINA RESULT:      -3.8      2.201      3.884
REMARK  Name = 
REMARK  9 active torsions:
REMARK  status: ('A' for Active; 'I' for Inactive)
REMARK    1  A    between atoms: C_1  and  C_2
REMARK    2  A    between atoms: C_2  and  C_3
REMARK    3  A    between atoms: C_3  and  C_4
REMARK    4  A    between atoms: C_4  and  C_5
REMARK    5  A    between atoms: C_5  and  O_7
REMARK    6  A    between atoms: C_5  and  C_8
REMARK    7  A    between atoms: C_8  and  O_10
REMARK    8  A    between atoms: C_8  and  C_11
REMARK    9  A    between atoms: C_11  and  O_12
REMARK                            x       y       z     vdW  Elec       q    Type
REMARK                         _______ _______ _______ _____ _____    ______ ____
ROOT
ATOM      1  C   UNL     1       9.349  -4.019  24.998  0.00  0.00    +0.145 C 
ENDROOT
BRANCH   1   2
ATOM      2  O   UNL     1      10.297  -5.083  24.867  0.00  0.00    -0.389 OA
ATOM      3  H   UNL     1      10.359  -5.302  23.919  0.00  0.00    +0.210 HD
ENDBRANCH   1   2
BRANCH   1   4
ATOM      4  C   UNL     1       9.782  -2.850  24.099  0.00  0.00    +0.034 C 
BRANCH   4   5
ATOM      5  C   UNL     1       8.840  -1.645  24.226  0.00  0.00    +0.002 C 
BRANCH   5   7
ATOM      6  C   UNL     1      10.432   0.210  24.840  0.00  0.00    +0.004 C 
ATOM      7  C   UNL     1       9.308  -0.692  25.325  0.00  0.00    -0.003 C 
ENDBRANCH   5   7
ENDBRANCH   4   5
ENDBRANCH   1   4
BRANCH   1   8
ATOM      8  C   UNL     1       7.919  -4.530  24.693  0.00  0.00    +0.168 C 
BRANCH   8   9
ATOM      9  O   UNL     1       7.911  -5.355  23.528  0.00  0.00    -0.387 OA
ATOM     10  H   UNL     1       7.051  -5.805  23.489  0.00  0.00    +0.210 HD
ENDBRANCH   8   9
BRANCH   8  11
ATOM     11  C   UNL     1       7.274  -5.289  25.863  0.00  0.00    +0.189 C 
BRANCH  11  12
ATOM     12  O   UNL     1       8.247  -5.857  26.733  0.00  0.00    -0.392 OA
ATOM     13  H   UNL     1       9.086  -5.379  26.561  0.00  0.00    +0.210 HD
ENDBRANCH  11  12
ENDBRANCH   8  11
ENDBRANCH   1   8
TORSDOF 8
ENDMDL
MODEL 8
REMARK VINA RESULT:      -3.8      1.407      2.230
REMARK  Name = 
REMARK  9 active torsions:
REMARK  status: ('A' for Active; 'I' for Inactive)
REMARK    1  A    between atoms: C_1  and  C_2
REMARK    2  A    between atoms: C_2  and  C_3
REMARK    3  A    between atoms: C_3  and  C_4
REMARK    4  A    between atoms: C_4  and  C_5
REMARK    5  A    between atoms: C_5  and  O_7
REMARK    6  A    between atoms: C_5  and  C_8
REMARK    7  A    between atoms: C_8  and  O_10
REMARK    8  A    between atoms: C_8  and  C_11
REMARK    9  A    between atoms: C_11  and  O_12
REMARK                            x       y       z     vdW  Elec       q    Type
REMARK                         _______ _______ _______ _____ _____    ______ ____
ROOT
ATOM      1  C   UNL     1       7.154  -4.220  25.744  0.00  0.00    +0.145 C 
ENDROOT
BRANCH   1   2
ATOM      2  O   UNL     1       7.464  -2.971  25.116  0.00  0.00    -0.389 OA
ATOM      3  H   UNL     1       6.628  -2.602  24.776  0.00  0.00    +0.210 HD
ENDBRANCH   1   2
BRANCH   1   4
ATOM      4  C   UNL     1       6.530  -5.162  24.703  0.00  0.00    +0.034 C 
BRANCH   4   5
ATOM      5  C   UNL     1       6.571  -4.568  23.288  0.00  0.00    +0.002 C 
BRANCH   5   7
ATOM      6  C   UNL     1       6.319  -5.786  21.097  0.00  0.00    +0.004 C 
ATOM      7  C   UNL     1       7.216  -5.538  22.299  0.00  0.00    -0.003 C 
ENDBRANCH   5   7
ENDBRANCH   4   5
ENDBRANCH   1   4
BRANCH   1   8
ATOM      8  C   UNL     1       8.415  -4.808  26.425  0.00  0.00    +0.168 C 
BRANCH   8   9
ATOM      9  O   UNL     1       8.059  -5.816  27.371  0.00  0.00    -0.387 OA
ATOM     10  H   UNL     1       8.851  -6.348  27.552  0.00  0.00    +0.210 HD
ENDBRANCH   8   9
BRANCH   8  11
ATOM     11  C   UNL     1       9.443  -5.376  25.433  0.00  0.00    +0.189 C 
BRANCH  11  12
ATOM     12  O   UNL     1      10.012  -4.360  24.614  0.00  0.00    -0.392 OA
ATOM     13  H   UNL     1       9.675  -3.506  24.957  0.00  0.00    +0.210 HD
ENDBRANCH  11  12
ENDBRANCH   8  11
ENDBRANCH   1   8
TORSDOF 8
ENDMDL
MODEL 9
REMARK VINA RESULT:      -3.8      5.193      6.811
REMARK  Name = 
REMARK  9 active torsions:
REMARK  status: ('A' for Active; 'I' for Inactive)
REMARK    1  A    between atoms: C_1  and  C_2
REMARK    2  A    between atoms: C_2  and  C_3
REMARK    3  A    between atoms: C_3  and  C_4
REMARK    4  A    between atoms: C_4  and  C_5
REMARK    5  A    between atoms: C_5  and  O_7
REMARK    6  A    between atoms: C_5  and  C_8
REMARK    7  A    between atoms: C_8  and  O_10
REMARK    8  A    between atoms: C_8  and  C_11
REMARK    9  A    between atoms: C_11  and  O_12
REMARK                            x       y       z     vdW  Elec       q    Type
REMARK                         _______ _______ _______ _____ _____    ______ ____
ROOT
ATOM      1  C   UNL     1       9.084   1.332  22.578  0.00  0.00    +0.145 C 
ENDROOT
BRANCH   1   2
ATOM      2  O   UNL     1       9.116   2.256  21.485  0.00  0.00    -0.389 OA
ATOM      3  H   UNL     1       8.665   3.069  21.778  0.00  0.00    +0.210 HD
ENDBRANCH   1   2
BRANCH   1   4
ATOM      4  C   UNL     1      10.091   0.203  22.308  0.00  0.00    +0.034 C 
BRANCH   4   5
ATOM      5  C   UNL     1       9.445  -0.984  21.581  0.00  0.00    +0.002 C 
BRANCH   5   7
ATOM      6  C   UNL     1       9.817  -2.241  23.734  0.00  0.00    +0.004 C 
ATOM      7  C   UNL     1       8.866  -1.992  22.574  0.00  0.00    -0.003 C 
ENDBRANCH   5   7
ENDBRANCH   4   5
ENDBRANCH   1   4
BRANCH   1   8
ATOM      8  C   UNL     1       9.336   2.071  23.916  0.00  0.00    +0.168 C 
BRANCH   8   9
ATOM      9  O   UNL     1      10.269   1.355  24.725  0.00  0.00    -0.387 OA
ATOM     10  H   UNL     1       9.912   1.319  25.628  0.00  0.00    +0.210 HD
ENDBRANCH   8   9
BRANCH   8  11
ATOM     11  C   UNL     1       9.817   3.520  23.739  0.00  0.00    +0.189 C 
BRANCH  11  12
ATOM     12  O   UNL     1      11.023   3.594  22.987  0.00  0.00    -0.392 OA
ATOM     13  H   UNL     1      11.529   4.353  23.345  0.00  0.00    +0.210 HD
ENDBRANCH  11  12
ENDBRANCH   8  11
ENDBRANCH   1   8
TORSDOF 8
ENDMDL
