MODEL 1
REMARK VINA RESULT:      -4.1      0.000      0.000
REMARK  Name = 
REMARK  6 active torsions:
REMARK  status: ('A' for Active; 'I' for Inactive)
REMARK    1  A    between atoms: N_1  and  CA_2
REMARK    2  A    between atoms: CA_2  and  CB_4
REMARK    3  A    between atoms: CA_2  and  C_9
REMARK    4  A    between atoms: CB_4  and  CG_5
REMARK    5  A    between atoms: CG_5  and  CD_6
REMARK    6  A    between atoms: C_9  and  O_10
REMARK                            x       y       z     vdW  Elec       q    Type
REMARK                         _______ _______ _______ _____ _____    ______ ____
ROOT
ATOM      1  CA  GLN A   1       9.994   2.053  24.000  0.00  0.00    +0.161 C 
ENDROOT
BRANCH   1   2
ATOM      2  N   GLN A   1       8.953   2.222  25.067  0.00  0.00    -0.318 NA
ATOM      3  H1  GLN A   1       8.982   3.196  25.395  0.00  0.00    +0.119 HD
ATOM      4  H2  GLN A   1       8.036   2.153  24.615  0.00  0.00    +0.119 HD
ENDBRANCH   1   2
BRANCH   1   5
ATOM      5  C   GLN A   1       9.325   2.339  22.637  0.00  0.00    +0.322 C 
ATOM      6  OXT GLN A   1       8.150   2.625  22.467  0.00  0.00    -0.249 OA
BRANCH   5   7
ATOM      7  O   GLN A   1      10.209   2.204  21.615  0.00  0.00    -0.480 OA
ATOM      8  H   GLN A   1      10.017   2.960  21.003  0.00  0.00    +0.295 HD
ENDBRANCH   5   7
ENDBRANCH   1   5
BRANCH   1   9
ATOM      9  CB  GLN A   1      10.590   0.646  24.090  0.00  0.00    +0.039 C 
BRANCH   9  10
ATOM     10  CG  GLN A   1       9.579  -0.469  23.814  0.00  0.00    +0.097 C 
BRANCH  10  11
ATOM     11  CD  GLN A   1      10.067  -1.420  22.744  0.00  0.00    +0.211 C 
ATOM     12  OE1 GLN A   1      10.566  -2.517  22.961  0.00  0.00    -0.276 OA
ATOM     13  NE2 GLN A   1       9.907  -0.951  21.473  0.00  0.00    -0.329 N 
ATOM     14 HE21 GLN A   1      10.165  -1.560  20.707  0.00  0.00    +0.145 HD
ATOM     15 HE22 GLN A   1       9.436  -0.082  21.264  0.00  0.00    +0.145 HD
ENDBRANCH  10  11
ENDBRANCH   9  10
ENDBRANCH   1   9
TORSDOF 6
ENDMDL
MODEL 2
REMARK VINA RESULT:      -4.0      2.096      3.833
REMARK  Name = 
REMARK  6 active torsions:
REMARK  status: ('A' for Active; 'I' for Inactive)
REMARK    1  A    between atoms: N_1  and  CA_2
REMARK    2  A    between atoms: CA_2  and  CB_4
REMARK    3  A    between atoms: CA_2  and  C_9
REMARK    4  A    between atoms: CB_4  and  CG_5
REMARK    5  A    between atoms: CG_5  and  CD_6
REMARK    6  A    between atoms: C_9  and  O_10
REMARK                            x       y       z     vdW  Elec       q    Type
REMARK                         _______ _______ _______ _____ _____    ______ ____
ROOT
ATOM      1  CA  GLN A   1       9.386  -0.525  23.722  0.00  0.00    +0.161 C 
ENDROOT
BRANCH   1   2
ATOM      2  N   GLN A   1       9.040  -1.554  24.758  0.00  0.00    -0.318 NA
ATOM      3  H1  GLN A   1       9.580  -2.406  24.559  0.00  0.00    +0.119 HD
ATOM      4  H2  GLN A   1       9.428  -1.232  25.651  0.00  0.00    +0.119 HD
ENDBRANCH   1   2
BRANCH   1   5
ATOM      5  C   GLN A   1      10.076  -1.251  22.546  0.00  0.00    +0.322 C 
ATOM      6  OXT GLN A   1      10.761  -2.258  22.634  0.00  0.00    -0.249 OA
BRANCH   5   7
ATOM      7  O   GLN A   1       9.855  -0.607  21.370  0.00  0.00    -0.480 OA
ATOM      8  H   GLN A   1      10.740  -0.565  20.926  0.00  0.00    +0.295 HD
ENDBRANCH   5   7
ENDBRANCH   1   5
BRANCH   1   9
ATOM      9  CB  GLN A   1      10.263   0.558  24.355  0.00  0.00    +0.039 C 
BRANCH   9  10
ATOM     10  CG  GLN A   1       9.730   1.977  24.152  0.00  0.00    +0.097 C 
BRANCH  10  11
ATOM     11  CD  GLN A   1      10.515   2.731  23.101  0.00  0.00    +0.211 C 
ATOM     12  OE1 GLN A   1      11.349   3.594  23.340  0.00  0.00    -0.276 OA
ATOM     13  NE2 GLN A   1      10.215   2.367  21.821  0.00  0.00    -0.329 N 
ATOM     14 HE21 GLN A   1      10.742   2.795  21.071  0.00  0.00    +0.145 HD
ATOM     15 HE22 GLN A   1       9.583   1.610  21.600  0.00  0.00    +0.145 HD
ENDBRANCH  10  11
ENDBRANCH   9  10
ENDBRANCH   1   9
TORSDOF 6
ENDMDL
MODEL 3
REMARK VINA RESULT:      -4.0      4.125      6.255
REMARK  Name = 
REMARK  6 active torsions:
REMARK  status: ('A' for Active; 'I' for Inactive)
REMARK    1  A    between atoms: N_1  and  CA_2
REMARK    2  A    between atoms: CA_2  and  CB_4
REMARK    3  A    between atoms: CA_2  and  C_9
REMARK    4  A    between atoms: CB_4  and  CG_5
REMARK    5  A    between atoms: CG_5  and  CD_6
REMARK    6  A    between atoms: C_9  and  O_10
REMARK                            x       y       z     vdW  Elec       q    Type
REMARK                         _______ _______ _______ _____ _____    ______ ____
ROOT
ATOM      1  CA  GLN A   1       9.166  -4.569  25.609  0.00  0.00    +0.161 C 
ENDROOT
BRANCH   1   2
ATOM      2  N   GLN A   1      10.251  -5.587  25.418  0.00  0.00    -0.318 NA
ATOM      3  H1  GLN A   1      10.112  -6.040  24.507  0.00  0.00    +0.119 HD
ATOM      4  H2  GLN A   1      11.132  -5.076  25.296  0.00  0.00    +0.119 HD
ENDBRANCH   1   2
BRANCH   1   5
ATOM      5  C   GLN A   1       7.916  -5.304  26.143  0.00  0.00    +0.322 C 
ATOM      6  OXT GLN A   1       6.856  -5.428  25.550  0.00  0.00    -0.249 OA
BRANCH   5   7
ATOM      7  O   GLN A   1       8.124  -5.785  27.396  0.00  0.00    -0.480 OA
ATOM      8  H   GLN A   1       9.026  -6.196  27.372  0.00  0.00    +0.295 HD
ENDBRANCH   5   7
ENDBRANCH   1   5
BRANCH   1   9
ATOM      9  CB  GLN A   1       8.913  -3.842  24.286  0.00  0.00    +0.039 C 
BRANCH   9  10
ATOM     10  CG  GLN A   1       9.374  -2.383  24.288  0.00  0.00    +0.097 C 
BRANCH  10  11
ATOM     11  CD  GLN A   1       9.623  -1.868  22.888  0.00  0.00    +0.211 C 
ATOM     12  OE1 GLN A   1      10.718  -1.837  22.341  0.00  0.00    -0.276 OA
ATOM     13  NE2 GLN A   1       8.499  -1.424  22.255  0.00  0.00    -0.329 N 
ATOM     14 HE21 GLN A   1       8.587  -1.115  21.295  0.00  0.00    +0.145 HD
ATOM     15 HE22 GLN A   1       7.576  -1.504  22.657  0.00  0.00    +0.145 HD
ENDBRANCH  10  11
ENDBRANCH   9  10
ENDBRANCH   1   9
TORSDOF 6
ENDMDL
MODEL 4
REMARK VINA RESULT:      -4.0      1.684      1.737
REMARK  Name = 
REMARK  6 active torsions:
REMARK  status: ('A' for Active; 'I' for Inactive)
REMARK    1  A    between atoms: N_1  and  CA_2
REMARK    2  A    between atoms: CA_2  and  CB_4
REMARK    3  A    between atoms: CA_2  and  C_9
REMARK    4  A    between atoms: CB_4  and  CG_5
REMARK    5  A    between atoms: CG_5  and  CD_6
REMARK    6  A    between atoms: C_9  and  O_10
REMARK                            x       y       z     vdW  Elec       q    Type
REMARK                         _______ _______ _______ _____ _____    ______ ____
ROOT
ATOM      1  CA  GLN A   1       9.661   1.894  23.029  0.00  0.00    +0.161 C 
ENDROOT
BRANCH   1   2
ATOM      2  N   GLN A   1       9.876   1.894  21.544  0.00  0.00    -0.318 NA
ATOM      3  H1  GLN A   1       9.815   2.864  21.209  0.00  0.00    +0.119 HD
ATOM      4  H2  GLN A   1      10.857   1.648  21.376  0.00  0.00    +0.119 HD
ENDBRANCH   1   2
BRANCH   1   5
ATOM      5  C   GLN A   1      10.025   3.298  23.560  0.00  0.00    +0.322 C 
ATOM      6  OXT GLN A   1       9.362   3.954  24.348  0.00  0.00    -0.249 OA
BRANCH   5   7
ATOM      7  O   GLN A   1      11.183   3.748  23.013  0.00  0.00    -0.480 OA
ATOM      8  H   GLN A   1      11.522   2.996  22.464  0.00  0.00    +0.295 HD
ENDBRANCH   5   7
ENDBRANCH   1   5
BRANCH   1   9
ATOM      9  CB  GLN A   1      10.498   0.779  23.663  0.00  0.00    +0.039 C 
BRANCH   9  10
ATOM     10  CG  GLN A   1       9.689  -0.468  24.022  0.00  0.00    +0.097 C 
BRANCH  10  11
ATOM     11  CD  GLN A   1      10.063  -1.652  23.157  0.00  0.00    +0.211 C 
ATOM     12  OE1 GLN A   1      10.261  -2.786  23.575  0.00  0.00    -0.276 OA
ATOM     13  NE2 GLN A   1      10.170  -1.355  21.830  0.00  0.00    -0.329 N 
ATOM     14 HE21 GLN A   1      10.367  -2.112  21.189  0.00  0.00    +0.145 HD
ATOM     15 HE22 GLN A   1       9.945  -0.445  21.452  0.00  0.00    +0.145 HD
ENDBRANCH  10  11
ENDBRANCH   9  10
ENDBRANCH   1   9
TORSDOF 6
ENDMDL
MODEL 5
REMARK VINA RESULT:      -4.0      5.805      6.799
REMARK  Name = 
REMARK  6 active torsions:
REMARK  status: ('A' for Active; 'I' for Inactive)
REMARK    1  A    between atoms: N_1  and  CA_2
REMARK    2  A    between atoms: CA_2  and  CB_4
REMARK    3  A    between atoms: CA_2  and  C_9
REMARK    4  A    between atoms: CB_4  and  CG_5
REMARK    5  A    between atoms: CG_5  and  CD_6
REMARK    6  A    between atoms: C_9  and  O_10
REMARK                            x       y       z     vdW  Elec       q    Type
REMARK                         _______ _______ _______ _____ _____    ______ ____
ROOT
ATOM      1  CA  GLN A   1       8.070  -5.416  25.642  0.00  0.00    +0.161 C 
ENDROOT
BRANCH   1   2
ATOM      2  N   GLN A   1       8.092  -5.540  27.137  0.00  0.00    -0.318 NA
ATOM      3  H1  GLN A   1       8.545  -6.429  27.381  0.00  0.00    +0.119 HD
ATOM      4  H2  GLN A   1       8.747  -4.835  27.494  0.00  0.00    +0.119 HD
ENDBRANCH   1   2
BRANCH   1   5
ATOM      5  C   GLN A   1       9.441  -4.864  25.193  0.00  0.00    +0.322 C 
ATOM      6  OXT GLN A   1       9.616  -3.969  24.381  0.00  0.00    -0.249 OA
BRANCH   5   7
ATOM      7  O   GLN A   1      10.461  -5.527  25.795  0.00  0.00    -0.480 OA
ATOM      8  H   GLN A   1      11.215  -5.484  25.153  0.00  0.00    +0.295 HD
ENDBRANCH   5   7
ENDBRANCH   1   5
BRANCH   1   9
ATOM      9  CB  GLN A   1       6.899  -4.523  25.224  0.00  0.00    +0.039 C 
BRANCH   9  10
ATOM     10  CG  GLN A   1       6.049  -5.112  24.096  0.00  0.00    +0.097 C 
BRANCH  10  11
ATOM     11  CD  GLN A   1       5.990  -4.194  22.895  0.00  0.00    +0.211 C 
ATOM     12  OE1 GLN A   1       4.966  -3.897  22.294  0.00  0.00    -0.276 OA
ATOM     13  NE2 GLN A   1       7.205  -3.704  22.515  0.00  0.00    -0.329 N 
ATOM     14 HE21 GLN A   1       7.231  -3.041  21.750  0.00  0.00    +0.145 HD
ATOM     15 HE22 GLN A   1       8.054  -3.877  23.035  0.00  0.00    +0.145 HD
ENDBRANCH  10  11
ENDBRANCH   9  10
ENDBRANCH   1   9
TORSDOF 6
ENDMDL
MODEL 6
REMARK VINA RESULT:      -3.9      2.146      2.449
REMARK  Name = 
REMARK  6 active torsions:
REMARK  status: ('A' for Active; 'I' for Inactive)
REMARK    1  A    between atoms: N_1  and  CA_2
REMARK    2  A    between atoms: CA_2  and  CB_4
REMARK    3  A    between atoms: CA_2  and  C_9
REMARK    4  A    between atoms: CB_4  and  CG_5
REMARK    5  A    between atoms: CG_5  and  CD_6
REMARK    6  A    between atoms: C_9  and  O_10
REMARK                            x       y       z     vdW  Elec       q    Type
REMARK                         _______ _______ _______ _____ _____    ______ ____
ROOT
ATOM      1  CA  GLN A   1       8.862   1.112  21.543  0.00  0.00    +0.161 C 
ENDROOT
BRANCH   1   2
ATOM      2  N   GLN A   1       9.952   2.125  21.734  0.00  0.00    -0.318 NA
ATOM      3  H1  GLN A   1       9.526   3.060  21.740  0.00  0.00    +0.119 HD
ATOM      4  H2  GLN A   1      10.303   2.021  22.692  0.00  0.00    +0.119 HD
ENDBRANCH   1   2
BRANCH   1   5
ATOM      5  C   GLN A   1       7.892   1.227  22.739  0.00  0.00    +0.322 C 
ATOM      6  OXT GLN A   1       8.037   1.961  23.704  0.00  0.00    -0.249 OA
BRANCH   5   7
ATOM      7  O   GLN A   1       6.844   0.374  22.609  0.00  0.00    -0.480 OA
ATOM      8  H   GLN A   1       6.100   0.797  23.109  0.00  0.00    +0.295 HD
ENDBRANCH   5   7
ENDBRANCH   1   5
BRANCH   1   9
ATOM      9  CB  GLN A   1       9.483  -0.281  21.408  0.00  0.00    +0.039 C 
BRANCH   9  10
ATOM     10  CG  GLN A   1      10.140  -0.788  22.694  0.00  0.00    +0.097 C 
BRANCH  10  11
ATOM     11  CD  GLN A   1       9.593  -2.134  23.114  0.00  0.00    +0.211 C 
ATOM     12  OE1 GLN A   1      10.174  -2.926  23.844  0.00  0.00    -0.276 OA
ATOM     13  NE2 GLN A   1       8.360  -2.414  22.601  0.00  0.00    -0.329 N 
ATOM     14 HE21 GLN A   1       7.913  -3.277  22.884  0.00  0.00    +0.145 HD
ATOM     15 HE22 GLN A   1       7.830  -1.750  22.053  0.00  0.00    +0.145 HD
ENDBRANCH  10  11
ENDBRANCH   9  10
ENDBRANCH   1   9
TORSDOF 6
ENDMDL
MODEL 7
REMARK VINA RESULT:      -3.9      3.295      4.763
REMARK  Name = 
REMARK  6 active torsions:
REMARK  status: ('A' for Active; 'I' for Inactive)
REMARK    1  A    between atoms: N_1  and  CA_2
REMARK    2  A    between atoms: CA_2  and  CB_4
REMARK    3  A    between atoms: CA_2  and  C_9
REMARK    4  A    between atoms: CB_4  and  CG_5
REMARK    5  A    between atoms: CG_5  and  CD_6
REMARK    6  A    between atoms: C_9  and  O_10
REMARK                            x       y       z     vdW  Elec       q    Type
REMARK                         _______ _______ _______ _____ _____    ______ ____
ROOT
ATOM      1  CA  GLN A   1       9.102   2.392  22.786  0.00  0.00    +0.161 C 
ENDROOT
BRANCH   1   2
ATOM      2  N   GLN A   1      10.008   2.167  21.611  0.00  0.00    -0.318 NA
ATOM      3  H1  GLN A   1      10.496   3.048  21.407  0.00  0.00    +0.119 HD
ATOM      4  H2  GLN A   1      10.763   1.546  21.922  0.00  0.00    +0.119 HD
ENDBRANCH   1   2
BRANCH   1   5
ATOM      5  C   GLN A   1       7.803   3.043  22.263  0.00  0.00    +0.322 C 
ATOM      6  OXT GLN A   1       6.773   2.450  21.982  0.00  0.00    -0.249 OA
BRANCH   5   7
ATOM      7  O   GLN A   1       7.947   4.386  22.117  0.00  0.00    -0.480 OA
ATOM      8  H   GLN A   1       8.370   4.696  22.958  0.00  0.00    +0.295 HD
ENDBRANCH   5   7
ENDBRANCH   1   5
BRANCH   1   9
ATOM      9  CB  GLN A   1       9.824   3.251  23.828  0.00  0.00    +0.039 C 
BRANCH   9  10
ATOM     10  CG  GLN A   1      11.225   3.690  23.397  0.00  0.00    +0.097 C 
BRANCH  10  11
ATOM     11  CD  GLN A   1      11.416   5.184  23.539  0.00  0.00    +0.211 C 
ATOM     12  OE1 GLN A   1      12.426   5.720  23.978  0.00  0.00    -0.276 OA
ATOM     13  NE2 GLN A   1      10.343   5.920  23.128  0.00  0.00    -0.329 N 
ATOM     14 HE21 GLN A   1      10.424   6.928  23.147  0.00  0.00    +0.145 HD
ATOM     15 HE22 GLN A   1       9.527   5.506  22.698  0.00  0.00    +0.145 HD
ENDBRANCH  10  11
ENDBRANCH   9  10
ENDBRANCH   1   9
TORSDOF 6
ENDMDL
MODEL 8
REMARK VINA RESULT:      -3.9      1.522      1.696
REMARK  Name = 
REMARK  6 active torsions:
REMARK  status: ('A' for Active; 'I' for Inactive)
REMARK    1  A    between atoms: N_1  and  CA_2
REMARK    2  A    between atoms: CA_2  and  CB_4
REMARK    3  A    between atoms: CA_2  and  C_9
REMARK    4  A    between atoms: CB_4  and  CG_5
REMARK    5  A    between atoms: CG_5  and  CD_6
REMARK    6  A    between atoms: C_9  and  O_10
REMARK                            x       y       z     vdW  Elec       q    Type
REMARK                         _______ _______ _______ _____ _____    ______ ____
ROOT
ATOM      1  CA  GLN A   1      10.212   1.072  23.415  0.00  0.00    +0.161 C 
ENDROOT
BRANCH   1   2
ATOM      2  N   GLN A   1       9.017   1.525  24.202  0.00  0.00    -0.318 NA
ATOM      3  H1  GLN A   1       8.946   0.942  25.045  0.00  0.00    +0.119 HD
ATOM      4  H2  GLN A   1       9.230   2.455  24.575  0.00  0.00    +0.119 HD
ENDBRANCH   1   2
BRANCH   1   5
ATOM      5  C   GLN A   1       9.804   1.010  21.927  0.00  0.00    +0.322 C 
ATOM      6  OXT GLN A   1       9.591  -0.009  21.289  0.00  0.00    -0.249 OA
BRANCH   5   7
ATOM      7  O   GLN A   1       9.735   2.252  21.382  0.00  0.00    -0.480 OA
ATOM      8  H   GLN A   1       9.341   2.825  22.087  0.00  0.00    +0.295 HD
ENDBRANCH   5   7
ENDBRANCH   1   5
BRANCH   1   9
ATOM      9  CB  GLN A   1      10.698  -0.274  23.959  0.00  0.00    +0.039 C 
BRANCH   9  10
ATOM     10  CG  GLN A   1       9.583  -1.133  24.561  0.00  0.00    +0.097 C 
BRANCH  10  11
ATOM     11  CD  GLN A   1       9.455  -2.465  23.857  0.00  0.00    +0.211 C 
ATOM     12  OE1 GLN A   1      10.053  -3.484  24.179  0.00  0.00    -0.276 OA
ATOM     13  NE2 GLN A   1       8.596  -2.451  22.797  0.00  0.00    -0.329 N 
ATOM     14 HE21 GLN A   1       8.424  -3.323  22.314  0.00  0.00    +0.145 HD
ATOM     15 HE22 GLN A   1       8.039  -1.643  22.554  0.00  0.00    +0.145 HD
ENDBRANCH  10  11
ENDBRANCH   9  10
ENDBRANCH   1   9
TORSDOF 6
ENDMDL
MODEL 9
REMARK VINA RESULT:      -3.9      1.850      4.409
REMARK  Name = 
REMARK  6 active torsions:
REMARK  status: ('A' for Active; 'I' for Inactive)
REMARK    1  A    between atoms: N_1  and  CA_2
REMARK    2  A    between atoms: CA_2  and  CB_4
REMARK    3  A    between atoms: CA_2  and  C_9
REMARK    4  A    between atoms: CB_4  and  CG_5
REMARK    5  A    between atoms: CG_5  and  CD_6
REMARK    6  A    between atoms: C_9  and  O_10
REMARK                            x       y       z     vdW  Elec       q    Type
REMARK                         _______ _______ _______ _____ _____    ______ ____
ROOT
ATOM      1  CA  GLN A   1      10.180  -1.161  23.277  0.00  0.00    +0.161 C 
ENDROOT
BRANCH   1   2
ATOM      2  N   GLN A   1      10.242  -1.526  21.822  0.00  0.00    -0.318 NA
ATOM      3  H1  GLN A   1      10.901  -2.306  21.713  0.00  0.00    +0.119 HD
ATOM      4  H2  GLN A   1       9.339  -1.944  21.572  0.00  0.00    +0.119 HD
ENDBRANCH   1   2
BRANCH   1   5
ATOM      5  C   GLN A   1       9.410  -2.280  24.013  0.00  0.00    +0.322 C 
ATOM      6  OXT GLN A   1       8.303  -2.169  24.516  0.00  0.00    -0.249 OA
BRANCH   5   7
ATOM      7  O   GLN A   1      10.136  -3.426  24.067  0.00  0.00    -0.480 OA
ATOM      8  H   GLN A   1      11.084  -3.136  24.044  0.00  0.00    +0.295 HD
ENDBRANCH   5   7
ENDBRANCH   1   5
BRANCH   1   9
ATOM      9  CB  GLN A   1       9.525   0.215  23.427  0.00  0.00    +0.039 C 
BRANCH   9  10
ATOM     10  CG  GLN A   1      10.471   1.289  23.968  0.00  0.00    +0.097 C 
BRANCH  10  11
ATOM     11  CD  GLN A   1      10.558   2.482  23.042  0.00  0.00    +0.211 C 
ATOM     12  OE1 GLN A   1      10.972   3.588  23.365  0.00  0.00    -0.276 OA
ATOM     13  NE2 GLN A   1      10.125   2.229  21.773  0.00  0.00    -0.329 N 
ATOM     14 HE21 GLN A   1      10.205   2.969  21.088  0.00  0.00    +0.145 HD
ATOM     15 HE22 GLN A   1       9.845   1.309  21.463  0.00  0.00    +0.145 HD
ENDBRANCH  10  11
ENDBRANCH   9  10
ENDBRANCH   1   9
TORSDOF 6
ENDMDL
