MODEL 1
REMARK VINA RESULT:      -7.6      0.000      0.000
REMARK  Name = 
REMARK  4 active torsions:
REMARK  status: ('A' for Active; 'I' for Inactive)
REMARK    1  A    between atoms: N_6  and  C_12
REMARK    2  A    between atoms: C_9  and  O_10
REMARK    3  A    between atoms: C_14  and  C_18
REMARK    4  A    between atoms: C_18  and  O_19
REMARK                            x       y       z     vdW  Elec       q    Type
REMARK                         _______ _______ _______ _____ _____    ______ ____
ROOT
ATOM      1  N   UNL     1       8.684  -3.352  25.471  0.00  0.00    -0.327 N 
ATOM      2  H   UNL     1       8.505  -4.118  24.832  0.00  0.00    +0.145 HD
ATOM      3  H   UNL     1       8.014  -3.177  26.202  0.00  0.00    +0.145 HD
ATOM      4  C   UNL     1       9.018  -2.209  24.772  0.00  0.00    +0.218 A 
ATOM      5  N   UNL     1       9.455  -2.434  23.505  0.00  0.00    -0.178 NA
ATOM      6  C   UNL     1       9.856  -1.389  22.761  0.00  0.00    +0.247 A 
ATOM      7  C   UNL     1       9.789  -0.129  23.344  0.00  0.00    +0.193 A 
ATOM      8  C   UNL     1       9.292   0.024  24.675  0.00  0.00    +0.210 A 
ATOM      9  N   UNL     1       9.326   1.315  25.026  0.00  0.00    -0.127 NA
ATOM     10  N   UNL     1       9.865   1.892  23.921  0.00  0.00    -0.148 N 
ATOM     11  N   UNL     1      10.134   1.073  22.871  0.00  0.00    -0.140 NA
ATOM     12  N   UNL     1       8.875  -1.028  25.422  0.00  0.00    -0.191 NA
ENDROOT
BRANCH  10  13
ATOM     13  C   UNL     1      10.184   3.275  23.830  0.00  0.00    +0.087 A 
ATOM     14  C   UNL     1       9.295   4.272  24.250  0.00  0.00    +0.029 A 
ATOM     15  C   UNL     1       9.667   5.618  24.142  0.00  0.00    +0.003 A 
ATOM     16  C   UNL     1      10.918   5.976  23.624  0.00  0.00    +0.015 A 
ATOM     17  C   UNL     1      11.812   4.982  23.214  0.00  0.00    +0.061 A 
ATOM     18  C   UNL     1      11.437   3.640  23.307  0.00  0.00    +0.044 A 
BRANCH  17  19
ATOM     19  C   UNL     1      13.145   5.274  22.629  0.00  0.00    +0.337 C 
ATOM     20  O   UNL     1      13.287   5.736  21.510  0.00  0.00    -0.245 OA
BRANCH  19  21
ATOM     21  O   UNL     1      14.180   4.931  23.423  0.00  0.00    -0.477 OA
ATOM     22  H   UNL     1      14.072   5.154  24.363  0.00  0.00    +0.295 HD
ENDBRANCH  19  21
ENDBRANCH  17  19
ENDBRANCH  10  13
BRANCH   6  23
ATOM     23  O   UNL     1      10.327  -1.616  21.494  0.00  0.00    -0.491 OA
ATOM     24  H   UNL     1      11.232  -1.952  21.618  0.00  0.00    +0.294 HD
ENDBRANCH   6  23
TORSDOF 4
ENDMDL
MODEL 2
REMARK VINA RESULT:      -7.1      3.518      7.617
REMARK  Name = 
REMARK  4 active torsions:
REMARK  status: ('A' for Active; 'I' for Inactive)
REMARK    1  A    between atoms: N_6  and  C_12
REMARK    2  A    between atoms: C_9  and  O_10
REMARK    3  A    between atoms: C_14  and  C_18
REMARK    4  A    between atoms: C_18  and  O_19
REMARK                            x       y       z     vdW  Elec       q    Type
REMARK                         _______ _______ _______ _____ _____    ______ ____
ROOT
ATOM      1  N   UNL     1       6.098   4.203  22.261  0.00  0.00    -0.327 N 
ATOM      2  H   UNL     1       6.735   4.989  22.208  0.00  0.00    +0.145 HD
ATOM      3  H   UNL     1       5.324   4.260  22.903  0.00  0.00    +0.145 HD
ATOM      4  C   UNL     1       6.801   3.021  22.382  0.00  0.00    +0.218 A 
ATOM      5  N   UNL     1       8.096   3.094  21.976  0.00  0.00    -0.178 NA
ATOM      6  C   UNL     1       8.849   1.981  22.004  0.00  0.00    +0.247 A 
ATOM      7  C   UNL     1       8.246   0.814  22.459  0.00  0.00    +0.193 A 
ATOM      8  C   UNL     1       6.885   0.828  22.892  0.00  0.00    +0.210 A 
ATOM      9  N   UNL     1       6.518  -0.400  23.277  0.00  0.00    -0.127 NA
ATOM     10  N   UNL     1       7.647  -1.117  23.039  0.00  0.00    -0.148 N 
ATOM     11  N   UNL     1       8.724  -0.429  22.575  0.00  0.00    -0.140 NA
ATOM     12  N   UNL     1       6.127   1.953  22.877  0.00  0.00    -0.191 NA
ENDROOT
BRANCH  10  13
ATOM     13  C   UNL     1       7.740  -2.524  23.217  0.00  0.00    +0.087 A 
ATOM     14  C   UNL     1       7.139  -3.426  22.330  0.00  0.00    +0.029 A 
ATOM     15  C   UNL     1       7.271  -4.803  22.552  0.00  0.00    +0.003 A 
ATOM     16  C   UNL     1       7.999  -5.286  23.646  0.00  0.00    +0.015 A 
ATOM     17  C   UNL     1       8.609  -4.387  24.528  0.00  0.00    +0.061 A 
ATOM     18  C   UNL     1       8.467  -3.014  24.316  0.00  0.00    +0.044 A 
BRANCH  17  19
ATOM     19  C   UNL     1       9.376  -4.812  25.726  0.00  0.00    +0.337 C 
ATOM     20  O   UNL     1       9.084  -4.456  26.855  0.00  0.00    -0.245 OA
BRANCH  19  21
ATOM     21  O   UNL     1      10.451  -5.577  25.448  0.00  0.00    -0.477 OA
ATOM     22  H   UNL     1      11.163  -5.128  24.960  0.00  0.00    +0.295 HD
ENDBRANCH  19  21
ENDBRANCH  17  19
ENDBRANCH  10  13
BRANCH   6  23
ATOM     23  O   UNL     1      10.147   2.044  21.566  0.00  0.00    -0.491 OA
ATOM     24  H   UNL     1      10.460   2.927  21.833  0.00  0.00    +0.294 HD
ENDBRANCH   6  23
TORSDOF 4
ENDMDL
MODEL 3
REMARK VINA RESULT:      -7.0      3.639      8.055
REMARK  Name = 
REMARK  4 active torsions:
REMARK  status: ('A' for Active; 'I' for Inactive)
REMARK    1  A    between atoms: N_6  and  C_12
REMARK    2  A    between atoms: C_9  and  O_10
REMARK    3  A    between atoms: C_14  and  C_18
REMARK    4  A    between atoms: C_18  and  O_19
REMARK                            x       y       z     vdW  Elec       q    Type
REMARK                         _______ _______ _______ _____ _____    ______ ____
ROOT
ATOM      1  N   UNL     1       5.974   4.204  22.263  0.00  0.00    -0.327 N 
ATOM      2  H   UNL     1       6.591   5.005  22.193  0.00  0.00    +0.145 HD
ATOM      3  H   UNL     1       5.207   4.251  22.915  0.00  0.00    +0.145 HD
ATOM      4  C   UNL     1       6.707   3.041  22.390  0.00  0.00    +0.218 A 
ATOM      5  N   UNL     1       7.994   3.141  21.966  0.00  0.00    -0.178 NA
ATOM      6  C   UNL     1       8.775   2.047  21.997  0.00  0.00    +0.247 A 
ATOM      7  C   UNL     1       8.207   0.872  22.474  0.00  0.00    +0.193 A 
ATOM      8  C   UNL     1       6.851   0.858  22.926  0.00  0.00    +0.210 A 
ATOM      9  N   UNL     1       6.521  -0.374  23.331  0.00  0.00    -0.127 NA
ATOM     10  N   UNL     1       7.663  -1.066  23.087  0.00  0.00    -0.148 N 
ATOM     11  N   UNL     1       8.716  -0.358  22.600  0.00  0.00    -0.140 NA
ATOM     12  N   UNL     1       6.066   1.964  22.907  0.00  0.00    -0.191 NA
ENDROOT
BRANCH  10  13
ATOM     13  C   UNL     1       7.793  -2.468  23.280  0.00  0.00    +0.087 A 
ATOM     14  C   UNL     1       8.584  -3.006  24.302  0.00  0.00    +0.029 A 
ATOM     15  C   UNL     1       8.668  -4.396  24.450  0.00  0.00    +0.003 A 
ATOM     16  C   UNL     1       7.967  -5.252  23.591  0.00  0.00    +0.015 A 
ATOM     17  C   UNL     1       7.167  -4.717  22.576  0.00  0.00    +0.061 A 
ATOM     18  C   UNL     1       7.093  -3.331  22.419  0.00  0.00    +0.044 A 
BRANCH  17  19
ATOM     19  C   UNL     1       6.412  -5.550  21.606  0.00  0.00    +0.337 C 
ATOM     20  O   UNL     1       5.941  -5.097  20.576  0.00  0.00    -0.245 OA
BRANCH  19  21
ATOM     21  O   UNL     1       6.247  -6.831  21.994  0.00  0.00    -0.477 OA
ATOM     22  H   UNL     1       6.944  -7.180  22.576  0.00  0.00    +0.295 HD
ENDBRANCH  19  21
ENDBRANCH  17  19
ENDBRANCH  10  13
BRANCH   6  23
ATOM     23  O   UNL     1      10.065   2.137  21.541  0.00  0.00    -0.491 OA
ATOM     24  H   UNL     1      10.339   3.051  21.737  0.00  0.00    +0.294 HD
ENDBRANCH   6  23
TORSDOF 4
ENDMDL
MODEL 4
REMARK VINA RESULT:      -7.0      3.317      7.750
REMARK  Name = 
REMARK  4 active torsions:
REMARK  status: ('A' for Active; 'I' for Inactive)
REMARK    1  A    between atoms: N_6  and  C_12
REMARK    2  A    between atoms: C_9  and  O_10
REMARK    3  A    between atoms: C_14  and  C_18
REMARK    4  A    between atoms: C_18  and  O_19
REMARK                            x       y       z     vdW  Elec       q    Type
REMARK                         _______ _______ _______ _____ _____    ______ ____
ROOT
ATOM      1  N   UNL     1      11.063   3.967  22.981  0.00  0.00    -0.327 N 
ATOM      2  H   UNL     1      10.689   4.824  23.373  0.00  0.00    +0.145 HD
ATOM      3  H   UNL     1      11.317   3.961  22.007  0.00  0.00    +0.145 HD
ATOM      4  C   UNL     1      10.268   2.893  23.329  0.00  0.00    +0.218 A 
ATOM      5  N   UNL     1       9.476   3.107  24.411  0.00  0.00    -0.178 NA
ATOM      6  C   UNL     1       8.705   2.103  24.862  0.00  0.00    +0.247 A 
ATOM      7  C   UNL     1       8.766   0.896  24.176  0.00  0.00    +0.193 A 
ATOM      8  C   UNL     1       9.607   0.760  23.029  0.00  0.00    +0.210 A 
ATOM      9  N   UNL     1       9.510  -0.482  22.539  0.00  0.00    -0.127 NA
ATOM     10  N   UNL     1       8.647  -1.061  23.412  0.00  0.00    -0.148 N 
ATOM     11  N   UNL     1       8.146  -0.268  24.397  0.00  0.00    -0.140 NA
ATOM     12  N   UNL     1      10.376   1.777  22.565  0.00  0.00    -0.191 NA
ENDROOT
BRANCH  10  13
ATOM     13  C   UNL     1       8.278  -2.433  23.364  0.00  0.00    +0.087 A 
ATOM     14  C   UNL     1       7.553  -2.970  22.294  0.00  0.00    +0.029 A 
ATOM     15  C   UNL     1       7.224  -4.331  22.297  0.00  0.00    +0.003 A 
ATOM     16  C   UNL     1       7.617  -5.160  23.355  0.00  0.00    +0.015 A 
ATOM     17  C   UNL     1       8.351  -4.629  24.421  0.00  0.00    +0.061 A 
ATOM     18  C   UNL     1       8.667  -3.269  24.426  0.00  0.00    +0.044 A 
BRANCH  17  19
ATOM     19  C   UNL     1       8.783  -5.429  25.594  0.00  0.00    +0.337 C 
ATOM     20  O   UNL     1       8.009  -5.795  26.463  0.00  0.00    -0.245 OA
BRANCH  19  21
ATOM     21  O   UNL     1      10.110  -5.665  25.640  0.00  0.00    -0.477 OA
ATOM     22  H   UNL     1      10.409  -6.202  26.392  0.00  0.00    +0.295 HD
ENDBRANCH  19  21
ENDBRANCH  17  19
ENDBRANCH  10  13
BRANCH   6  23
ATOM     23  O   UNL     1       7.928   2.307  25.973  0.00  0.00    -0.491 OA
ATOM     24  H   UNL     1       8.559   2.481  26.694  0.00  0.00    +0.294 HD
ENDBRANCH   6  23
TORSDOF 4
ENDMDL
MODEL 5
REMARK VINA RESULT:      -6.9      3.142      4.750
REMARK  Name = 
REMARK  4 active torsions:
REMARK  status: ('A' for Active; 'I' for Inactive)
REMARK    1  A    between atoms: N_6  and  C_12
REMARK    2  A    between atoms: C_9  and  O_10
REMARK    3  A    between atoms: C_14  and  C_18
REMARK    4  A    between atoms: C_18  and  O_19
REMARK                            x       y       z     vdW  Elec       q    Type
REMARK                         _______ _______ _______ _____ _____    ______ ____
ROOT
ATOM      1  N   UNL     1       6.107  -6.031  27.238  0.00  0.00    -0.327 N 
ATOM      2  H   UNL     1       6.448  -6.981  27.335  0.00  0.00    +0.145 HD
ATOM      3  H   UNL     1       5.135  -5.897  27.012  0.00  0.00    +0.145 HD
ATOM      4  C   UNL     1       6.947  -5.299  26.424  0.00  0.00    +0.218 A 
ATOM      5  N   UNL     1       8.199  -5.813  26.301  0.00  0.00    -0.178 NA
ATOM      6  C   UNL     1       9.108  -5.143  25.572  0.00  0.00    +0.247 A 
ATOM      7  C   UNL     1       8.699  -3.954  24.980  0.00  0.00    +0.193 A 
ATOM      8  C   UNL     1       7.356  -3.495  25.137  0.00  0.00    +0.210 A 
ATOM      9  N   UNL     1       7.194  -2.335  24.490  0.00  0.00    -0.127 NA
ATOM     10  N   UNL     1       8.438  -2.115  23.992  0.00  0.00    -0.148 N 
ATOM     11  N   UNL     1       9.372  -3.073  24.232  0.00  0.00    -0.140 NA
ATOM     12  N   UNL     1       6.433  -4.176  25.861  0.00  0.00    -0.191 NA
ENDROOT
BRANCH  10  13
ATOM     13  C   UNL     1       8.806  -0.943  23.278  0.00  0.00    +0.087 A 
ATOM     14  C   UNL     1       9.044  -0.957  21.898  0.00  0.00    +0.029 A 
ATOM     15  C   UNL     1       9.397   0.231  21.247  0.00  0.00    +0.003 A 
ATOM     16  C   UNL     1       9.509   1.432  21.958  0.00  0.00    +0.015 A 
ATOM     17  C   UNL     1       9.262   1.452  23.334  0.00  0.00    +0.061 A 
ATOM     18  C   UNL     1       8.923   0.265  23.988  0.00  0.00    +0.044 A 
BRANCH  17  19
ATOM     19  C   UNL     1       9.384   2.674  24.169  0.00  0.00    +0.337 C 
ATOM     20  O   UNL     1      10.085   3.620  23.851  0.00  0.00    -0.245 OA
BRANCH  19  21
ATOM     21  O   UNL     1       8.699   2.619  25.328  0.00  0.00    -0.477 OA
ATOM     22  H   UNL     1       7.816   3.026  25.307  0.00  0.00    +0.295 HD
ENDBRANCH  19  21
ENDBRANCH  17  19
ENDBRANCH  10  13
BRANCH   6  23
ATOM     23  O   UNL     1      10.381  -5.644  25.472  0.00  0.00    -0.491 OA
ATOM     24  H   UNL     1      10.902  -5.139  26.122  0.00  0.00    +0.294 HD
ENDBRANCH   6  23
TORSDOF 4
ENDMDL
MODEL 6
REMARK VINA RESULT:      -6.9      4.323      8.321
REMARK  Name = 
REMARK  4 active torsions:
REMARK  status: ('A' for Active; 'I' for Inactive)
REMARK    1  A    between atoms: N_6  and  C_12
REMARK    2  A    between atoms: C_9  and  O_10
REMARK    3  A    between atoms: C_14  and  C_18
REMARK    4  A    between atoms: C_18  and  O_19
REMARK                            x       y       z     vdW  Elec       q    Type
REMARK                         _______ _______ _______ _____ _____    ______ ____
ROOT
ATOM      1  N   UNL     1      10.193   2.233  21.485  0.00  0.00    -0.327 N 
ATOM      2  H   UNL     1       9.782   3.057  21.060  0.00  0.00    +0.145 HD
ATOM      3  H   UNL     1      10.921   1.752  20.982  0.00  0.00    +0.145 HD
ATOM      4  C   UNL     1       9.205   1.380  21.934  0.00  0.00    +0.218 A 
ATOM      5  N   UNL     1       7.995   1.970  22.120  0.00  0.00    -0.178 NA
ATOM      6  C   UNL     1       6.982   1.234  22.607  0.00  0.00    +0.247 A 
ATOM      7  C   UNL     1       7.241  -0.102  22.887  0.00  0.00    +0.193 A 
ATOM      8  C   UNL     1       8.535  -0.653  22.638  0.00  0.00    +0.210 A 
ATOM      9  N   UNL     1       8.554  -1.945  22.986  0.00  0.00    -0.127 NA
ATOM     10  N   UNL     1       7.294  -2.126  23.458  0.00  0.00    -0.148 N 
ATOM     11  N   UNL     1       6.455  -1.059  23.393  0.00  0.00    -0.140 NA
ATOM     12  N   UNL     1       9.556   0.085  22.134  0.00  0.00    -0.191 NA
ENDROOT
BRANCH  10  13
ATOM     13  C   UNL     1       6.834  -3.342  24.033  0.00  0.00    +0.087 A 
ATOM     14  C   UNL     1       5.796  -4.088  23.462  0.00  0.00    +0.029 A 
ATOM     15  C   UNL     1       5.390  -5.283  24.069  0.00  0.00    +0.003 A 
ATOM     16  C   UNL     1       6.014  -5.742  25.236  0.00  0.00    +0.015 A 
ATOM     17  C   UNL     1       7.059  -5.004  25.803  0.00  0.00    +0.061 A 
ATOM     18  C   UNL     1       7.455  -3.805  25.207  0.00  0.00    +0.044 A 
BRANCH  17  19
ATOM     19  C   UNL     1       7.756  -5.403  27.052  0.00  0.00    +0.337 C 
ATOM     20  O   UNL     1       7.193  -5.987  27.962  0.00  0.00    -0.245 OA
BRANCH  19  21
ATOM     21  O   UNL     1       9.045  -5.012  27.110  0.00  0.00    -0.477 OA
ATOM     22  H   UNL     1       9.580  -5.232  26.328  0.00  0.00    +0.295 HD
ENDBRANCH  19  21
ENDBRANCH  17  19
ENDBRANCH  10  13
BRANCH   6  23
ATOM     23  O   UNL     1       5.768   1.834  22.826  0.00  0.00    -0.491 OA
ATOM     24  H   UNL     1       5.979   2.765  23.024  0.00  0.00    +0.294 HD
ENDBRANCH   6  23
TORSDOF 4
ENDMDL
MODEL 7
REMARK VINA RESULT:      -6.8      4.354      6.616
REMARK  Name = 
REMARK  4 active torsions:
REMARK  status: ('A' for Active; 'I' for Inactive)
REMARK    1  A    between atoms: N_6  and  C_12
REMARK    2  A    between atoms: C_9  and  O_10
REMARK    3  A    between atoms: C_14  and  C_18
REMARK    4  A    between atoms: C_18  and  O_19
REMARK                            x       y       z     vdW  Elec       q    Type
REMARK                         _______ _______ _______ _____ _____    ______ ____
ROOT
ATOM      1  N   UNL     1       3.655  -7.493  25.866  0.00  0.00    -0.327 N 
ATOM      2  H   UNL     1       3.802  -8.204  26.574  0.00  0.00    +0.145 HD
ATOM      3  H   UNL     1       3.293  -7.780  24.971  0.00  0.00    +0.145 HD
ATOM      4  C   UNL     1       4.771  -6.688  25.754  0.00  0.00    +0.218 A 
ATOM      5  N   UNL     1       5.592  -6.713  26.836  0.00  0.00    -0.178 NA
ATOM      6  C   UNL     1       6.678  -5.921  26.847  0.00  0.00    +0.247 A 
ATOM      7  C   UNL     1       6.894  -5.122  25.730  0.00  0.00    +0.193 A 
ATOM      8  C   UNL     1       5.995  -5.174  24.621  0.00  0.00    +0.210 A 
ATOM      9  N   UNL     1       6.396  -4.321  23.672  0.00  0.00    -0.127 NA
ATOM     10  N   UNL     1       7.495  -3.763  24.241  0.00  0.00    -0.148 N 
ATOM     11  N   UNL     1       7.856  -4.231  25.465  0.00  0.00    -0.140 NA
ATOM     12  N   UNL     1       4.906  -5.982  24.604  0.00  0.00    -0.191 NA
ENDROOT
BRANCH  10  13
ATOM     13  C   UNL     1       8.248  -2.715  23.644  0.00  0.00    +0.087 A 
ATOM     14  C   UNL     1       8.359  -2.579  22.255  0.00  0.00    +0.029 A 
ATOM     15  C   UNL     1       9.108  -1.522  21.724  0.00  0.00    +0.003 A 
ATOM     16  C   UNL     1       9.741  -0.598  22.565  0.00  0.00    +0.015 A 
ATOM     17  C   UNL     1       9.623  -0.725  23.953  0.00  0.00    +0.061 A 
ATOM     18  C   UNL     1       8.888  -1.787  24.485  0.00  0.00    +0.044 A 
BRANCH  17  19
ATOM     19  C   UNL     1      10.282   0.192  24.916  0.00  0.00    +0.337 C 
ATOM     20  O   UNL     1      11.208   0.921  24.603  0.00  0.00    -0.245 OA
BRANCH  19  21
ATOM     21  O   UNL     1       9.804   0.104  26.174  0.00  0.00    -0.477 OA
ATOM     22  H   UNL     1      10.480   0.020  26.869  0.00  0.00    +0.295 HD
ENDBRANCH  19  21
ENDBRANCH  17  19
ENDBRANCH  10  13
BRANCH   6  23
ATOM     23  O   UNL     1       7.491  -5.921  27.950  0.00  0.00    -0.491 OA
ATOM     24  H   UNL     1       7.510  -4.994  28.250  0.00  0.00    +0.294 HD
ENDBRANCH   6  23
TORSDOF 4
ENDMDL
MODEL 8
REMARK VINA RESULT:      -6.7      3.321      7.971
REMARK  Name = 
REMARK  4 active torsions:
REMARK  status: ('A' for Active; 'I' for Inactive)
REMARK    1  A    between atoms: N_6  and  C_12
REMARK    2  A    between atoms: C_9  and  O_10
REMARK    3  A    between atoms: C_14  and  C_18
REMARK    4  A    between atoms: C_18  and  O_19
REMARK                            x       y       z     vdW  Elec       q    Type
REMARK                         _______ _______ _______ _____ _____    ______ ____
ROOT
ATOM      1  N   UNL     1      10.939   3.739  22.916  0.00  0.00    -0.327 N 
ATOM      2  H   UNL     1      10.545   4.592  23.297  0.00  0.00    +0.145 HD
ATOM      3  H   UNL     1      11.165   3.717  21.935  0.00  0.00    +0.145 HD
ATOM      4  C   UNL     1      10.194   2.646  23.314  0.00  0.00    +0.218 A 
ATOM      5  N   UNL     1       9.427   2.860  24.414  0.00  0.00    -0.178 NA
ATOM      6  C   UNL     1       8.706   1.840  24.912  0.00  0.00    +0.247 A 
ATOM      7  C   UNL     1       8.791   0.619  24.254  0.00  0.00    +0.193 A 
ATOM      8  C   UNL     1       9.603   0.484  23.087  0.00  0.00    +0.210 A 
ATOM      9  N   UNL     1       9.537  -0.772  22.631  0.00  0.00    -0.127 NA
ATOM     10  N   UNL     1       8.722  -1.360  23.543  0.00  0.00    -0.148 N 
ATOM     11  N   UNL     1       8.221  -0.560  24.523  0.00  0.00    -0.140 NA
ATOM     12  N   UNL     1      10.321   1.515  22.575  0.00  0.00    -0.191 NA
ENDROOT
BRANCH  10  13
ATOM     13  C   UNL     1       8.402  -2.745  23.540  0.00  0.00    +0.087 A 
ATOM     14  C   UNL     1       8.941  -3.633  24.479  0.00  0.00    +0.029 A 
ATOM     15  C   UNL     1       8.583  -4.987  24.431  0.00  0.00    +0.003 A 
ATOM     16  C   UNL     1       7.691  -5.459  23.461  0.00  0.00    +0.015 A 
ATOM     17  C   UNL     1       7.143  -4.571  22.528  0.00  0.00    +0.061 A 
ATOM     18  C   UNL     1       7.509  -3.224  22.566  0.00  0.00    +0.044 A 
BRANCH  17  19
ATOM     19  C   UNL     1       6.212  -4.991  21.451  0.00  0.00    +0.337 C 
ATOM     20  O   UNL     1       5.734  -4.205  20.651  0.00  0.00    -0.245 OA
BRANCH  19  21
ATOM     21  O   UNL     1       5.902  -6.303  21.473  0.00  0.00    -0.477 OA
ATOM     22  H   UNL     1       5.240  -6.583  20.817  0.00  0.00    +0.295 HD
ENDBRANCH  19  21
ENDBRANCH  17  19
ENDBRANCH  10  13
BRANCH   6  23
ATOM     23  O   UNL     1       7.955   2.045  26.041  0.00  0.00    -0.491 OA
ATOM     24  H   UNL     1       7.211   2.604  25.751  0.00  0.00    +0.294 HD
ENDBRANCH   6  23
TORSDOF 4
ENDMDL
MODEL 9
REMARK VINA RESULT:      -6.6      3.894      8.425
REMARK  Name = 
REMARK  4 active torsions:
REMARK  status: ('A' for Active; 'I' for Inactive)
REMARK    1  A    between atoms: N_6  and  C_12
REMARK    2  A    between atoms: C_9  and  O_10
REMARK    3  A    between atoms: C_14  and  C_18
REMARK    4  A    between atoms: C_18  and  O_19
REMARK                            x       y       z     vdW  Elec       q    Type
REMARK                         _______ _______ _______ _____ _____    ______ ____
ROOT
ATOM      1  N   UNL     1      10.070   2.222  21.479  0.00  0.00    -0.327 N 
ATOM      2  H   UNL     1      10.522   2.988  21.967  0.00  0.00    +0.145 HD
ATOM      3  H   UNL     1       9.376   2.445  20.785  0.00  0.00    +0.145 HD
ATOM      4  C   UNL     1       9.636   1.268  22.378  0.00  0.00    +0.218 A 
ATOM      5  N   UNL     1      10.253   1.315  23.587  0.00  0.00    -0.178 NA
ATOM      6  C   UNL     1       9.938   0.393  24.513  0.00  0.00    +0.247 A 
ATOM      7  C   UNL     1       8.983  -0.557  24.167  0.00  0.00    +0.193 A 
ATOM      8  C   UNL     1       8.363  -0.520  22.881  0.00  0.00    +0.210 A 
ATOM      9  N   UNL     1       7.489  -1.528  22.771  0.00  0.00    -0.127 NA
ATOM     10  N   UNL     1       7.628  -2.153  23.967  0.00  0.00    -0.148 N 
ATOM     11  N   UNL     1       8.492  -1.593  24.855  0.00  0.00    -0.140 NA
ATOM     12  N   UNL     1       8.670   0.417  21.951  0.00  0.00    -0.191 NA
ENDROOT
BRANCH  10  13
ATOM     13  C   UNL     1       6.954  -3.356  24.312  0.00  0.00    +0.087 A 
ATOM     14  C   UNL     1       6.229  -4.097  23.371  0.00  0.00    +0.029 A 
ATOM     15  C   UNL     1       5.591  -5.280  23.767  0.00  0.00    +0.003 A 
ATOM     16  C   UNL     1       5.675  -5.730  25.090  0.00  0.00    +0.015 A 
ATOM     17  C   UNL     1       6.408  -4.998  26.031  0.00  0.00    +0.061 A 
ATOM     18  C   UNL     1       7.032  -3.811  25.640  0.00  0.00    +0.044 A 
BRANCH  17  19
ATOM     19  C   UNL     1       6.526  -5.388  27.458  0.00  0.00    +0.337 C 
ATOM     20  O   UNL     1       5.700  -5.071  28.298  0.00  0.00    -0.245 OA
BRANCH  19  21
ATOM     21  O   UNL     1       7.651  -6.073  27.749  0.00  0.00    -0.477 OA
ATOM     22  H   UNL     1       7.924  -6.041  28.681  0.00  0.00    +0.295 HD
ENDBRANCH  19  21
ENDBRANCH  17  19
ENDBRANCH  10  13
BRANCH   6  23
ATOM     23  O   UNL     1      10.581   0.418  25.724  0.00  0.00    -0.491 OA
ATOM     24  H   UNL     1      11.525   0.524  25.506  0.00  0.00    +0.294 HD
ENDBRANCH   6  23
TORSDOF 4
ENDMDL
