MODEL 1
REMARK VINA RESULT:      -4.6      0.000      0.000
REMARK  Name = 
REMARK  45 active torsions:
REMARK  status: ('A' for Active; 'I' for Inactive)
REMARK    1  A    between atoms: C_1  and  C_2
REMARK    2  A    between atoms: C_2  and  C_3
REMARK    3  A    between atoms: C_3  and  C_4
REMARK    4  A    between atoms: C_4  and  C_5
REMARK    5  A    between atoms: C_5  and  C_6
REMARK    6  A    between atoms: C_6  and  C_7
REMARK    7  A    between atoms: C_7  and  C_8
REMARK    8  A    between atoms: C_8  and  C_9
REMARK    9  A    between atoms: C_9  and  C_10
REMARK   10  A    between atoms: C_10  and  C_11
REMARK   11  A    between atoms: C_11  and  C_12
REMARK   12  A    between atoms: C_12  and  C_13
REMARK   13  A    between atoms: C_13  and  C_14
REMARK   14  A    between atoms: C_14  and  C_15
REMARK   15  A    between atoms: C_15  and  C_16
REMARK   16  A    between atoms: C_16  and  O_18
REMARK   17  A    between atoms: O_18  and  C_19
REMARK   18  A    between atoms: C_19  and  C_20
REMARK   19  A    between atoms: C_20  and  C_22
REMARK   20  A    between atoms: C_20  and  O_34
REMARK   21  A    between atoms: C_22  and  O_23
REMARK   22  A    between atoms: O_23  and  P_24
REMARK   23  A    between atoms: P_24  and  O_25
REMARK   24  A    between atoms: P_24  and  O_27
REMARK   25  A    between atoms: O_27  and  C_28
REMARK   26  A    between atoms: C_28  and  C_29
REMARK   27  A    between atoms: C_29  and  O_31
REMARK   28  A    between atoms: C_29  and  C_32
REMARK   29  A    between atoms: C_32  and  O_33
REMARK   30  A    between atoms: O_34  and  C_35
REMARK   31  A    between atoms: C_35  and  C_37
REMARK   32  A    between atoms: C_37  and  C_38
REMARK   33  A    between atoms: C_38  and  C_39
REMARK   34  A    between atoms: C_39  and  C_40
REMARK   35  A    between atoms: C_40  and  C_41
REMARK   36  A    between atoms: C_41  and  C_42
REMARK   37  A    between atoms: C_42  and  C_43
REMARK   38  A    between atoms: C_43  and  C_44
REMARK   39  A    between atoms: C_44  and  C_45
REMARK   40  A    between atoms: C_45  and  C_46
REMARK   41  A    between atoms: C_46  and  C_47
REMARK   42  A    between atoms: C_47  and  C_48
REMARK   43  A    between atoms: C_48  and  C_49
REMARK   44  A    between atoms: C_49  and  C_50
REMARK   45  A    between atoms: C_50  and  C_51
REMARK                            x       y       z     vdW  Elec       q    Type
REMARK                         _______ _______ _______ _____ _____    ______ ____
ROOT
ATOM      1  C   UNL     1       7.879  -4.095  24.321  0.00  0.00    +0.240 C 
ENDROOT
BRANCH   1   2
ATOM      2  C   UNL     1       7.472  -5.188  25.321  0.00  0.00    +0.220 C 
BRANCH   2   3
ATOM      3  O   UNL     1       7.060  -4.591  26.548  0.00  0.00    -0.283 OA
BRANCH   3   4
ATOM      4  P   UNL     1       5.858  -5.354  27.365  0.00  0.00    +0.475 P 
ATOM      5  O   UNL     1       5.692  -6.730  26.715  0.00  0.00    -0.227 OA
BRANCH   4   6
ATOM      6  O   UNL     1       7.056  -6.067  28.388  0.00  0.00    -0.302 OA
ATOM      7  H   UNL     1       6.988  -7.018  28.164  0.00  0.00    +0.222 HD
ENDBRANCH   4   6
BRANCH   4   8
ATOM      8  O   UNL     1       4.659  -4.639  26.341  0.00  0.00    -0.284 OA
BRANCH   8   9
ATOM      9  C   UNL     1       3.845  -5.602  25.685  0.00  0.00    +0.206 C 
BRANCH   9  10
ATOM     10  C   UNL     1       3.314  -5.057  24.359  0.00  0.00    +0.166 C 
BRANCH  10  11
ATOM     11  O   UNL     1       4.396  -4.963  23.421  0.00  0.00    -0.387 OA
ATOM     12  H   UNL     1       5.211  -5.210  23.896  0.00  0.00    +0.210 HD
ENDBRANCH  10  11
BRANCH  10  13
ATOM     13  C   UNL     1       2.240  -5.965  23.755  0.00  0.00    +0.189 C 
BRANCH  13  14
ATOM     14  O   UNL     1       1.620  -5.317  22.643  0.00  0.00    -0.392 OA
ATOM     15  H   UNL     1       0.715  -5.687  22.611  0.00  0.00    +0.210 HD
ENDBRANCH  13  14
ENDBRANCH  10  13
ENDBRANCH   9  10
ENDBRANCH   8   9
ENDBRANCH   4   8
ENDBRANCH   3   4
ENDBRANCH   2   3
ENDBRANCH   1   2
BRANCH   1  16
ATOM     16  C   UNL     1       9.058  -3.294  24.879  0.00  0.00    +0.279 C 
BRANCH  16  17
ATOM     17  O   UNL     1      10.128  -3.164  23.928  0.00  0.00    -0.461 OA
BRANCH  17  18
ATOM     18  C   UNL     1      10.267  -1.928  23.378  0.00  0.00    +0.307 C 
ATOM     19  O   UNL     1      10.588  -1.715  22.215  0.00  0.00    -0.251 OA
BRANCH  18  20
ATOM     20  C   UNL     1      10.046  -0.865  24.428  0.00  0.00    +0.120 C 
BRANCH  20  21
ATOM     21  C   UNL     1      10.895   0.367  24.136  0.00  0.00    +0.011 C 
BRANCH  21  22
ATOM     22  C   UNL     1      10.071   1.652  24.179  0.00  0.00    +0.001 C 
BRANCH  22  23
ATOM     23  C   UNL     1      10.089   2.336  22.813  0.00  0.00    +0.000 C 
BRANCH  23  24
ATOM     24  C   UNL     1       9.209   1.605  21.801  0.00  0.00    +0.000 C 
BRANCH  24  25
ATOM     25  C   UNL     1       7.786   2.159  21.831  0.00  0.00    +0.000 C 
BRANCH  25  26
ATOM     26  C   UNL     1       7.768   3.615  22.288  0.00  0.00    -0.000 C 
BRANCH  26  27
ATOM     27  C   UNL     1       6.337   4.106  22.492  0.00  0.00    -0.000 C 
BRANCH  27  28
ATOM     28  C   UNL     1       5.386   2.937  22.730  0.00  0.00    -0.000 C 
BRANCH  28  29
ATOM     29  C   UNL     1       4.100   3.400  23.410  0.00  0.00    -0.000 C 
BRANCH  29  30
ATOM     30  C   UNL     1       3.951   2.762  24.790  0.00  0.00    -0.000 C 
BRANCH  30  31
ATOM     31  C   UNL     1       3.546   3.798  25.837  0.00  0.00    -0.000 C 
BRANCH  31  32
ATOM     32  C   UNL     1       3.231   3.130  27.174  0.00  0.00    -0.000 C 
BRANCH  32  34
ATOM     33  C   UNL     1       2.379   0.767  27.306  0.00  0.00    +0.004 C 
ATOM     34  C   UNL     1       3.607   1.650  27.156  0.00  0.00    -0.003 C 
ENDBRANCH  32  34
ENDBRANCH  31  32
ENDBRANCH  30  31
ENDBRANCH  29  30
ENDBRANCH  28  29
ENDBRANCH  27  28
ENDBRANCH  26  27
ENDBRANCH  25  26
ENDBRANCH  24  25
ENDBRANCH  23  24
ENDBRANCH  22  23
ENDBRANCH  21  22
ENDBRANCH  20  21
ENDBRANCH  18  20
ENDBRANCH  17  18
ENDBRANCH  16  17
ENDBRANCH   1  16
BRANCH   1  35
ATOM     35  O   UNL     1       6.721  -3.245  24.170  0.00  0.00    -0.456 OA
BRANCH  35  36
ATOM     36  C   UNL     1       6.643  -2.602  22.975  0.00  0.00    +0.308 C 
ATOM     37  O   UNL     1       6.470  -3.147  21.893  0.00  0.00    -0.251 OA
BRANCH  36  38
ATOM     38  C   UNL     1       6.607  -1.110  23.193  0.00  0.00    +0.120 C 
BRANCH  38  39
ATOM     39  C   UNL     1       6.059  -0.696  24.553  0.00  0.00    +0.011 C 
BRANCH  39  40
ATOM     40  C   UNL     1       6.755   0.553  25.090  0.00  0.00    +0.001 C 
BRANCH  40  41
ATOM     41  C   UNL     1       7.048   0.407  26.580  0.00  0.00    +0.000 C 
BRANCH  41  42
ATOM     42  C   UNL     1       7.067   1.769  27.268  0.00  0.00    +0.000 C 
BRANCH  42  43
ATOM     43  C   UNL     1       7.353   2.878  26.262  0.00  0.00    +0.000 C 
BRANCH  43  44
ATOM     44  C   UNL     1       7.129   4.251  26.888  0.00  0.00    -0.000 C 
BRANCH  44  45
ATOM     45  C   UNL     1       7.087   5.336  25.816  0.00  0.00    -0.000 C 
BRANCH  45  46
ATOM     46  C   UNL     1       7.853   6.576  26.269  0.00  0.00    -0.000 C 
BRANCH  46  47
ATOM     47  C   UNL     1       8.960   6.926  25.277  0.00  0.00    -0.000 C 
BRANCH  47  48
ATOM     48  C   UNL     1       9.595   5.661  24.706  0.00  0.00    -0.000 C 
BRANCH  48  49
ATOM     49  C   UNL     1      10.562   5.995  23.572  0.00  0.00    -0.000 C 
BRANCH  49  50
ATOM     50  C   UNL     1      12.009   5.950  24.059  0.00  0.00    -0.000 C 
BRANCH  50  51
ATOM     51  C   UNL     1      12.847   4.993  23.214  0.00  0.00    -0.003 C 
ATOM     52  C   UNL     1      13.379   5.681  21.967  0.00  0.00    +0.004 C 
ENDBRANCH  50  51
ENDBRANCH  49  50
ENDBRANCH  48  49
ENDBRANCH  47  48
ENDBRANCH  46  47
ENDBRANCH  45  46
ENDBRANCH  44  45
ENDBRANCH  43  44
ENDBRANCH  42  43
ENDBRANCH  41  42
ENDBRANCH  40  41
ENDBRANCH  39  40
ENDBRANCH  38  39
ENDBRANCH  36  38
ENDBRANCH  35  36
ENDBRANCH   1  35
TORSDOF 43
ENDMDL
MODEL 2
REMARK VINA RESULT:      -4.5      3.848      8.741
REMARK  Name = 
REMARK  45 active torsions:
REMARK  status: ('A' for Active; 'I' for Inactive)
REMARK    1  A    between atoms: C_1  and  C_2
REMARK    2  A    between atoms: C_2  and  C_3
REMARK    3  A    between atoms: C_3  and  C_4
REMARK    4  A    between atoms: C_4  and  C_5
REMARK    5  A    between atoms: C_5  and  C_6
REMARK    6  A    between atoms: C_6  and  C_7
REMARK    7  A    between atoms: C_7  and  C_8
REMARK    8  A    between atoms: C_8  and  C_9
REMARK    9  A    between atoms: C_9  and  C_10
REMARK   10  A    between atoms: C_10  and  C_11
REMARK   11  A    between atoms: C_11  and  C_12
REMARK   12  A    between atoms: C_12  and  C_13
REMARK   13  A    between atoms: C_13  and  C_14
REMARK   14  A    between atoms: C_14  and  C_15
REMARK   15  A    between atoms: C_15  and  C_16
REMARK   16  A    between atoms: C_16  and  O_18
REMARK   17  A    between atoms: O_18  and  C_19
REMARK   18  A    between atoms: C_19  and  C_20
REMARK   19  A    between atoms: C_20  and  C_22
REMARK   20  A    between atoms: C_20  and  O_34
REMARK   21  A    between atoms: C_22  and  O_23
REMARK   22  A    between atoms: O_23  and  P_24
REMARK   23  A    between atoms: P_24  and  O_25
REMARK   24  A    between atoms: P_24  and  O_27
REMARK   25  A    between atoms: O_27  and  C_28
REMARK   26  A    between atoms: C_28  and  C_29
REMARK   27  A    between atoms: C_29  and  O_31
REMARK   28  A    between atoms: C_29  and  C_32
REMARK   29  A    between atoms: C_32  and  O_33
REMARK   30  A    between atoms: O_34  and  C_35
REMARK   31  A    between atoms: C_35  and  C_37
REMARK   32  A    between atoms: C_37  and  C_38
REMARK   33  A    between atoms: C_38  and  C_39
REMARK   34  A    between atoms: C_39  and  C_40
REMARK   35  A    between atoms: C_40  and  C_41
REMARK   36  A    between atoms: C_41  and  C_42
REMARK   37  A    between atoms: C_42  and  C_43
REMARK   38  A    between atoms: C_43  and  C_44
REMARK   39  A    between atoms: C_44  and  C_45
REMARK   40  A    between atoms: C_45  and  C_46
REMARK   41  A    between atoms: C_46  and  C_47
REMARK   42  A    between atoms: C_47  and  C_48
REMARK   43  A    between atoms: C_48  and  C_49
REMARK   44  A    between atoms: C_49  and  C_50
REMARK   45  A    between atoms: C_50  and  C_51
REMARK                            x       y       z     vdW  Elec       q    Type
REMARK                         _______ _______ _______ _____ _____    ______ ____
ROOT
ATOM      1  C   UNL     1       8.538   2.468  22.028  0.00  0.00    +0.240 C 
ENDROOT
BRANCH   1   2
ATOM      2  C   UNL     1       7.312   3.370  21.810  0.00  0.00    +0.220 C 
BRANCH   2   3
ATOM      3  O   UNL     1       7.202   4.301  22.884  0.00  0.00    -0.283 OA
BRANCH   3   4
ATOM      4  P   UNL     1       5.680   4.723  23.331  0.00  0.00    +0.475 P 
ATOM      5  O   UNL     1       5.327   5.988  22.543  0.00  0.00    -0.227 OA
BRANCH   4   6
ATOM      6  O   UNL     1       5.074   3.813  21.990  0.00  0.00    -0.302 OA
ATOM      7  H   UNL     1       5.806   3.187  21.811  0.00  0.00    +0.222 HD
ENDBRANCH   4   6
BRANCH   4   8
ATOM      8  O   UNL     1       6.287   5.633  24.672  0.00  0.00    -0.284 OA
BRANCH   8   9
ATOM      9  C   UNL     1       7.338   6.519  24.310  0.00  0.00    +0.206 C 
BRANCH   9  10
ATOM     10  C   UNL     1       8.618   6.192  25.080  0.00  0.00    +0.166 C 
BRANCH  10  11
ATOM     11  O   UNL     1       8.596   4.809  25.463  0.00  0.00    -0.387 OA
ATOM     12  H   UNL     1       8.062   4.744  26.277  0.00  0.00    +0.210 HD
ENDBRANCH  10  11
BRANCH  10  13
ATOM     13  C   UNL     1       9.871   6.429  24.233  0.00  0.00    +0.189 C 
BRANCH  13  14
ATOM     14  O   UNL     1       9.786   5.686  23.015  0.00  0.00    -0.392 OA
ATOM     15  H   UNL     1       8.850   5.766  22.740  0.00  0.00    +0.210 HD
ENDBRANCH  13  14
ENDBRANCH  10  13
ENDBRANCH   9  10
ENDBRANCH   8   9
ENDBRANCH   4   8
ENDBRANCH   3   4
ENDBRANCH   2   3
ENDBRANCH   1   2
BRANCH   1  16
ATOM     16  C   UNL     1       8.181   1.018  21.690  0.00  0.00    +0.279 C 
BRANCH  16  17
ATOM     17  O   UNL     1       9.329   0.255  21.283  0.00  0.00    -0.461 OA
BRANCH  17  18
ATOM     18  C   UNL     1       9.470  -0.951  21.896  0.00  0.00    +0.307 C 
ATOM     19  O   UNL     1      10.532  -1.547  22.024  0.00  0.00    -0.251 OA
BRANCH  18  20
ATOM     20  C   UNL     1       8.120  -1.478  22.322  0.00  0.00    +0.120 C 
BRANCH  20  21
ATOM     21  C   UNL     1       8.230  -2.922  22.796  0.00  0.00    +0.011 C 
BRANCH  21  22
ATOM     22  C   UNL     1       7.133  -3.804  22.204  0.00  0.00    +0.001 C 
BRANCH  22  23
ATOM     23  C   UNL     1       7.483  -5.279  22.391  0.00  0.00    +0.000 C 
BRANCH  23  24
ATOM     24  C   UNL     1       6.246  -6.171  22.309  0.00  0.00    +0.000 C 
BRANCH  24  25
ATOM     25  C   UNL     1       4.975  -5.336  22.447  0.00  0.00    +0.000 C 
BRANCH  25  26
ATOM     26  C   UNL     1       3.960  -6.020  23.358  0.00  0.00    -0.000 C 
BRANCH  26  27
ATOM     27  C   UNL     1       4.660  -6.867  24.419  0.00  0.00    -0.000 C 
BRANCH  27  28
ATOM     28  C   UNL     1       3.732  -7.144  25.597  0.00  0.00    -0.000 C 
BRANCH  28  29
ATOM     29  C   UNL     1       4.425  -6.856  26.927  0.00  0.00    -0.000 C 
BRANCH  29  30
ATOM     30  C   UNL     1       3.477  -6.152  27.895  0.00  0.00    -0.000 C 
BRANCH  30  31
ATOM     31  C   UNL     1       2.062  -6.076  27.326  0.00  0.00    -0.000 C 
BRANCH  31  32
ATOM     32  C   UNL     1       1.430  -4.714  27.611  0.00  0.00    -0.000 C 
BRANCH  32  34
ATOM     33  C   UNL     1       1.955  -3.710  25.366  0.00  0.00    +0.004 C 
ATOM     34  C   UNL     1       2.160  -3.598  26.868  0.00  0.00    -0.003 C 
ENDBRANCH  32  34
ENDBRANCH  31  32
ENDBRANCH  30  31
ENDBRANCH  29  30
ENDBRANCH  28  29
ENDBRANCH  27  28
ENDBRANCH  26  27
ENDBRANCH  25  26
ENDBRANCH  24  25
ENDBRANCH  23  24
ENDBRANCH  22  23
ENDBRANCH  21  22
ENDBRANCH  20  21
ENDBRANCH  18  20
ENDBRANCH  17  18
ENDBRANCH  16  17
ENDBRANCH   1  16
BRANCH   1  35
ATOM     35  O   UNL     1       8.876   2.591  23.426  0.00  0.00    -0.456 OA
BRANCH  35  36
ATOM     36  C   UNL     1      10.187   2.367  23.712  0.00  0.00    +0.308 C 
ATOM     37  O   UNL     1      11.110   3.108  23.405  0.00  0.00    -0.251 OA
BRANCH  36  38
ATOM     38  C   UNL     1      10.318   1.176  24.629  0.00  0.00    +0.120 C 
BRANCH  38  39
ATOM     39  C   UNL     1       8.993   0.673  25.186  0.00  0.00    +0.011 C 
BRANCH  39  40
ATOM     40  C   UNL     1       9.135  -0.698  25.843  0.00  0.00    +0.001 C 
BRANCH  40  41
ATOM     41  C   UNL     1       8.452  -0.715  27.207  0.00  0.00    +0.000 C 
BRANCH  41  42
ATOM     42  C   UNL     1       7.679   0.579  27.445  0.00  0.00    +0.000 C 
BRANCH  42  43
ATOM     43  C   UNL     1       6.361   0.296  28.159  0.00  0.00    +0.000 C 
BRANCH  43  44
ATOM     44  C   UNL     1       5.177   0.776  27.325  0.00  0.00    -0.000 C 
BRANCH  44  45
ATOM     45  C   UNL     1       5.219   0.173  25.924  0.00  0.00    -0.000 C 
BRANCH  45  46
ATOM     46  C   UNL     1       4.733  -1.274  25.941  0.00  0.00    -0.000 C 
BRANCH  46  47
ATOM     47  C   UNL     1       5.629  -2.161  25.080  0.00  0.00    -0.000 C 
BRANCH  47  48
ATOM     48  C   UNL     1       5.675  -3.583  25.632  0.00  0.00    -0.000 C 
BRANCH  48  49
ATOM     49  C   UNL     1       6.503  -3.650  26.913  0.00  0.00    -0.000 C 
BRANCH  49  50
ATOM     50  C   UNL     1       7.486  -4.818  26.868  0.00  0.00    -0.000 C 
BRANCH  50  51
ATOM     51  C   UNL     1       8.880  -4.352  26.455  0.00  0.00    -0.003 C 
ATOM     52  C   UNL     1       9.478  -5.271  25.403  0.00  0.00    +0.004 C 
ENDBRANCH  50  51
ENDBRANCH  49  50
ENDBRANCH  48  49
ENDBRANCH  47  48
ENDBRANCH  46  47
ENDBRANCH  45  46
ENDBRANCH  44  45
ENDBRANCH  43  44
ENDBRANCH  42  43
ENDBRANCH  41  42
ENDBRANCH  40  41
ENDBRANCH  39  40
ENDBRANCH  38  39
ENDBRANCH  36  38
ENDBRANCH  35  36
ENDBRANCH   1  35
TORSDOF 43
ENDMDL
MODEL 3
REMARK VINA RESULT:      -4.4      1.933      4.803
REMARK  Name = 
REMARK  45 active torsions:
REMARK  status: ('A' for Active; 'I' for Inactive)
REMARK    1  A    between atoms: C_1  and  C_2
REMARK    2  A    between atoms: C_2  and  C_3
REMARK    3  A    between atoms: C_3  and  C_4
REMARK    4  A    between atoms: C_4  and  C_5
REMARK    5  A    between atoms: C_5  and  C_6
REMARK    6  A    between atoms: C_6  and  C_7
REMARK    7  A    between atoms: C_7  and  C_8
REMARK    8  A    between atoms: C_8  and  C_9
REMARK    9  A    between atoms: C_9  and  C_10
REMARK   10  A    between atoms: C_10  and  C_11
REMARK   11  A    between atoms: C_11  and  C_12
REMARK   12  A    between atoms: C_12  and  C_13
REMARK   13  A    between atoms: C_13  and  C_14
REMARK   14  A    between atoms: C_14  and  C_15
REMARK   15  A    between atoms: C_15  and  C_16
REMARK   16  A    between atoms: C_16  and  O_18
REMARK   17  A    between atoms: O_18  and  C_19
REMARK   18  A    between atoms: C_19  and  C_20
REMARK   19  A    between atoms: C_20  and  C_22
REMARK   20  A    between atoms: C_20  and  O_34
REMARK   21  A    between atoms: C_22  and  O_23
REMARK   22  A    between atoms: O_23  and  P_24
REMARK   23  A    between atoms: P_24  and  O_25
REMARK   24  A    between atoms: P_24  and  O_27
REMARK   25  A    between atoms: O_27  and  C_28
REMARK   26  A    between atoms: C_28  and  C_29
REMARK   27  A    between atoms: C_29  and  O_31
REMARK   28  A    between atoms: C_29  and  C_32
REMARK   29  A    between atoms: C_32  and  O_33
REMARK   30  A    between atoms: O_34  and  C_35
REMARK   31  A    between atoms: C_35  and  C_37
REMARK   32  A    between atoms: C_37  and  C_38
REMARK   33  A    between atoms: C_38  and  C_39
REMARK   34  A    between atoms: C_39  and  C_40
REMARK   35  A    between atoms: C_40  and  C_41
REMARK   36  A    between atoms: C_41  and  C_42
REMARK   37  A    between atoms: C_42  and  C_43
REMARK   38  A    between atoms: C_43  and  C_44
REMARK   39  A    between atoms: C_44  and  C_45
REMARK   40  A    between atoms: C_45  and  C_46
REMARK   41  A    between atoms: C_46  and  C_47
REMARK   42  A    between atoms: C_47  and  C_48
REMARK   43  A    between atoms: C_48  and  C_49
REMARK   44  A    between atoms: C_49  and  C_50
REMARK   45  A    between atoms: C_50  and  C_51
REMARK                            x       y       z     vdW  Elec       q    Type
REMARK                         _______ _______ _______ _____ _____    ______ ____
ROOT
ATOM      1  C   UNL     1       8.668  -4.064  24.142  0.00  0.00    +0.240 C 
ENDROOT
BRANCH   1   2
ATOM      2  C   UNL     1       7.923  -5.309  23.635  0.00  0.00    +0.220 C 
BRANCH   2   3
ATOM      3  O   UNL     1       6.523  -5.159  23.860  0.00  0.00    -0.283 OA
BRANCH   3   4
ATOM      4  P   UNL     1       5.538  -5.526  22.599  0.00  0.00    +0.475 P 
ATOM      5  O   UNL     1       4.944  -4.204  22.108  0.00  0.00    -0.227 OA
BRANCH   4   6
ATOM      6  O   UNL     1       6.864  -5.238  21.527  0.00  0.00    -0.302 OA
ATOM      7  H   UNL     1       7.492  -4.745  22.094  0.00  0.00    +0.222 HD
ENDBRANCH   4   6
BRANCH   4   8
ATOM      8  O   UNL     1       4.212  -5.814  23.673  0.00  0.00    -0.284 OA
BRANCH   8   9
ATOM      9  C   UNL     1       4.224  -7.123  24.230  0.00  0.00    +0.206 C 
BRANCH   9  10
ATOM     10  C   UNL     1       4.059  -7.072  25.748  0.00  0.00    +0.166 C 
BRANCH  10  11
ATOM     11  O   UNL     1       5.328  -6.782  26.351  0.00  0.00    -0.387 OA
ATOM     12  H   UNL     1       5.243  -6.965  27.306  0.00  0.00    +0.210 HD
ENDBRANCH  10  11
BRANCH  10  13
ATOM     13  C   UNL     1       3.070  -5.986  26.181  0.00  0.00    +0.189 C 
BRANCH  13  14
ATOM     14  O   UNL     1       1.802  -6.203  25.558  0.00  0.00    -0.392 OA
ATOM     15  H   UNL     1       1.218  -5.515  25.936  0.00  0.00    +0.210 HD
ENDBRANCH  13  14
ENDBRANCH  10  13
ENDBRANCH   9  10
ENDBRANCH   8   9
ENDBRANCH   4   8
ENDBRANCH   3   4
ENDBRANCH   2   3
ENDBRANCH   1   2
BRANCH   1  16
ATOM     16  C   UNL     1       9.123  -4.284  25.586  0.00  0.00    +0.279 C 
BRANCH  16  17
ATOM     17  O   UNL     1       8.353  -3.514  26.525  0.00  0.00    -0.461 OA
BRANCH  17  18
ATOM     18  C   UNL     1       7.319  -4.178  27.109  0.00  0.00    +0.307 C 
ATOM     19  O   UNL     1       7.406  -5.281  27.632  0.00  0.00    -0.251 OA
BRANCH  18  20
ATOM     20  C   UNL     1       6.040  -3.391  26.944  0.00  0.00    +0.120 C 
BRANCH  20  21
ATOM     21  C   UNL     1       5.073  -3.690  28.084  0.00  0.00    +0.011 C 
BRANCH  21  22
ATOM     22  C   UNL     1       4.132  -2.518  28.357  0.00  0.00    +0.001 C 
BRANCH  22  23
ATOM     23  C   UNL     1       4.731  -1.223  27.811  0.00  0.00    +0.000 C 
BRANCH  23  24
ATOM     24  C   UNL     1       3.658  -0.301  27.235  0.00  0.00    +0.000 C 
BRANCH  24  25
ATOM     25  C   UNL     1       3.984   1.158  27.545  0.00  0.00    +0.000 C 
BRANCH  25  26
ATOM     26  C   UNL     1       5.306   1.283  28.296  0.00  0.00    -0.000 C 
BRANCH  26  27
ATOM     27  C   UNL     1       5.222   2.357  29.378  0.00  0.00    -0.000 C 
BRANCH  27  28
ATOM     28  C   UNL     1       5.489   3.742  28.795  0.00  0.00    -0.000 C 
BRANCH  28  29
ATOM     29  C   UNL     1       6.822   3.779  28.051  0.00  0.00    -0.000 C 
BRANCH  29  30
ATOM     30  C   UNL     1       6.666   4.446  26.686  0.00  0.00    -0.000 C 
BRANCH  30  31
ATOM     31  C   UNL     1       5.193   4.615  26.318  0.00  0.00    -0.000 C 
BRANCH  31  32
ATOM     32  C   UNL     1       5.000   4.585  24.803  0.00  0.00    -0.000 C 
BRANCH  32  34
ATOM     33  C   UNL     1       3.981   3.206  22.964  0.00  0.00    +0.004 C 
ATOM     34  C   UNL     1       3.852   3.660  24.409  0.00  0.00    -0.003 C 
ENDBRANCH  32  34
ENDBRANCH  31  32
ENDBRANCH  30  31
ENDBRANCH  29  30
ENDBRANCH  28  29
ENDBRANCH  27  28
ENDBRANCH  26  27
ENDBRANCH  25  26
ENDBRANCH  24  25
ENDBRANCH  23  24
ENDBRANCH  22  23
ENDBRANCH  21  22
ENDBRANCH  20  21
ENDBRANCH  18  20
ENDBRANCH  17  18
ENDBRANCH  16  17
ENDBRANCH   1  16
BRANCH   1  35
ATOM     35  O   UNL     1       7.717  -2.979  24.074  0.00  0.00    -0.456 OA
BRANCH  35  36
ATOM     36  C   UNL     1       7.772  -2.249  22.928  0.00  0.00    +0.308 C 
ATOM     37  O   UNL     1       8.433  -2.539  21.941  0.00  0.00    -0.251 OA
BRANCH  36  38
ATOM     38  C   UNL     1       6.754  -1.137  22.976  0.00  0.00    +0.120 C 
BRANCH  38  39
ATOM     39  C   UNL     1       6.246  -0.821  24.377  0.00  0.00    +0.011 C 
BRANCH  39  40
ATOM     40  C   UNL     1       6.218   0.682  24.647  0.00  0.00    +0.001 C 
BRANCH  40  41
ATOM     41  C   UNL     1       7.490   1.124  25.363  0.00  0.00    +0.000 C 
BRANCH  41  42
ATOM     42  C   UNL     1       8.124  -0.041  26.117  0.00  0.00    +0.000 C 
BRANCH  42  43
ATOM     43  C   UNL     1       9.547  -0.289  25.630  0.00  0.00    +0.000 C 
BRANCH  43  44
ATOM     44  C   UNL     1       9.944   0.731  24.568  0.00  0.00    -0.000 C 
BRANCH  44  45
ATOM     45  C   UNL     1      10.564   0.041  23.357  0.00  0.00    -0.000 C 
BRANCH  45  46
ATOM     46  C   UNL     1       9.975   0.588  22.060  0.00  0.00    -0.000 C 
BRANCH  46  47
ATOM     47  C   UNL     1       9.519   2.035  22.235  0.00  0.00    -0.000 C 
BRANCH  47  48
ATOM     48  C   UNL     1       8.068   2.203  21.796  0.00  0.00    -0.000 C 
BRANCH  48  49
ATOM     49  C   UNL     1       7.512   3.555  22.237  0.00  0.00    -0.000 C 
BRANCH  49  50
ATOM     50  C   UNL     1       8.310   4.115  23.413  0.00  0.00    -0.000 C 
BRANCH  50  51
ATOM     51  C   UNL     1       8.627   5.595  23.210  0.00  0.00    -0.003 C 
ATOM     52  C   UNL     1       7.569   6.272  22.355  0.00  0.00    +0.004 C 
ENDBRANCH  50  51
ENDBRANCH  49  50
ENDBRANCH  48  49
ENDBRANCH  47  48
ENDBRANCH  46  47
ENDBRANCH  45  46
ENDBRANCH  44  45
ENDBRANCH  43  44
ENDBRANCH  42  43
ENDBRANCH  41  42
ENDBRANCH  40  41
ENDBRANCH  39  40
ENDBRANCH  38  39
ENDBRANCH  36  38
ENDBRANCH  35  36
ENDBRANCH   1  35
TORSDOF 43
ENDMDL
MODEL 4
REMARK VINA RESULT:      -4.4      3.753      8.878
REMARK  Name = 
REMARK  45 active torsions:
REMARK  status: ('A' for Active; 'I' for Inactive)
REMARK    1  A    between atoms: C_1  and  C_2
REMARK    2  A    between atoms: C_2  and  C_3
REMARK    3  A    between atoms: C_3  and  C_4
REMARK    4  A    between atoms: C_4  and  C_5
REMARK    5  A    between atoms: C_5  and  C_6
REMARK    6  A    between atoms: C_6  and  C_7
REMARK    7  A    between atoms: C_7  and  C_8
REMARK    8  A    between atoms: C_8  and  C_9
REMARK    9  A    between atoms: C_9  and  C_10
REMARK   10  A    between atoms: C_10  and  C_11
REMARK   11  A    between atoms: C_11  and  C_12
REMARK   12  A    between atoms: C_12  and  C_13
REMARK   13  A    between atoms: C_13  and  C_14
REMARK   14  A    between atoms: C_14  and  C_15
REMARK   15  A    between atoms: C_15  and  C_16
REMARK   16  A    between atoms: C_16  and  O_18
REMARK   17  A    between atoms: O_18  and  C_19
REMARK   18  A    between atoms: C_19  and  C_20
REMARK   19  A    between atoms: C_20  and  C_22
REMARK   20  A    between atoms: C_20  and  O_34
REMARK   21  A    between atoms: C_22  and  O_23
REMARK   22  A    between atoms: O_23  and  P_24
REMARK   23  A    between atoms: P_24  and  O_25
REMARK   24  A    between atoms: P_24  and  O_27
REMARK   25  A    between atoms: O_27  and  C_28
REMARK   26  A    between atoms: C_28  and  C_29
REMARK   27  A    between atoms: C_29  and  O_31
REMARK   28  A    between atoms: C_29  and  C_32
REMARK   29  A    between atoms: C_32  and  O_33
REMARK   30  A    between atoms: O_34  and  C_35
REMARK   31  A    between atoms: C_35  and  C_37
REMARK   32  A    between atoms: C_37  and  C_38
REMARK   33  A    between atoms: C_38  and  C_39
REMARK   34  A    between atoms: C_39  and  C_40
REMARK   35  A    between atoms: C_40  and  C_41
REMARK   36  A    between atoms: C_41  and  C_42
REMARK   37  A    between atoms: C_42  and  C_43
REMARK   38  A    between atoms: C_43  and  C_44
REMARK   39  A    between atoms: C_44  and  C_45
REMARK   40  A    between atoms: C_45  and  C_46
REMARK   41  A    between atoms: C_46  and  C_47
REMARK   42  A    between atoms: C_47  and  C_48
REMARK   43  A    between atoms: C_48  and  C_49
REMARK   44  A    between atoms: C_49  and  C_50
REMARK   45  A    between atoms: C_50  and  C_51
REMARK                            x       y       z     vdW  Elec       q    Type
REMARK                         _______ _______ _______ _____ _____    ______ ____
ROOT
ATOM      1  C   UNL     1       9.160   2.289  22.920  0.00  0.00    +0.240 C 
ENDROOT
BRANCH   1   2
ATOM      2  C   UNL     1       8.333   3.565  22.695  0.00  0.00    +0.220 C 
BRANCH   2   3
ATOM      3  O   UNL     1       8.536   4.469  23.778  0.00  0.00    -0.283 OA
BRANCH   3   4
ATOM      4  P   UNL     1       8.137   6.038  23.505  0.00  0.00    +0.475 P 
ATOM      5  O   UNL     1       7.803   6.151  22.015  0.00  0.00    -0.227 OA
BRANCH   4   6
ATOM      6  O   UNL     1       6.478   5.623  23.765  0.00  0.00    -0.302 OA
ATOM      7  H   UNL     1       6.220   5.228  22.906  0.00  0.00    +0.222 HD
ENDBRANCH   4   6
BRANCH   4   8
ATOM      8  O   UNL     1       9.797   6.452  23.244  0.00  0.00    -0.284 OA
BRANCH   8   9
ATOM      9  C   UNL     1      10.647   6.024  24.301  0.00  0.00    +0.206 C 
BRANCH   9  10
ATOM     10  C   UNL     1      12.118   6.196  23.922  0.00  0.00    +0.166 C 
BRANCH  10  11
ATOM     11  O   UNL     1      12.879   6.481  25.105  0.00  0.00    -0.387 OA
ATOM     12  H   UNL     1      12.812   7.441  25.266  0.00  0.00    +0.210 HD
ENDBRANCH  10  11
BRANCH  10  13
ATOM     13  C   UNL     1      12.696   4.932  23.281  0.00  0.00    +0.189 C 
BRANCH  13  14
ATOM     14  O   UNL     1      14.118   5.038  23.186  0.00  0.00    -0.392 OA
ATOM     15  H   UNL     1      14.440   4.116  23.230  0.00  0.00    +0.210 HD
ENDBRANCH  13  14
ENDBRANCH  10  13
ENDBRANCH   9  10
ENDBRANCH   8   9
ENDBRANCH   4   8
ENDBRANCH   3   4
ENDBRANCH   2   3
ENDBRANCH   1   2
BRANCH   1  16
ATOM     16  C   UNL     1       8.598   1.149  22.068  0.00  0.00    +0.279 C 
BRANCH  16  17
ATOM     17  O   UNL     1       9.631   0.297  21.546  0.00  0.00    -0.461 OA
BRANCH  17  18
ATOM     18  C   UNL     1       9.602  -0.989  21.990  0.00  0.00    +0.307 C 
ATOM     19  O   UNL     1      10.589  -1.698  22.136  0.00  0.00    -0.251 OA
BRANCH  18  20
ATOM     20  C   UNL     1       8.172  -1.433  22.197  0.00  0.00    +0.120 C 
BRANCH  20  21
ATOM     21  C   UNL     1       8.116  -2.913  22.558  0.00  0.00    +0.011 C 
BRANCH  21  22
ATOM     22  C   UNL     1       7.715  -3.130  24.016  0.00  0.00    +0.001 C 
BRANCH  22  23
ATOM     23  C   UNL     1       8.936  -3.529  24.844  0.00  0.00    +0.000 C 
BRANCH  23  24
ATOM     24  C   UNL     1       8.559  -3.862  26.286  0.00  0.00    +0.000 C 
BRANCH  24  25
ATOM     25  C   UNL     1       8.141  -5.326  26.405  0.00  0.00    +0.000 C 
BRANCH  25  26
ATOM     26  C   UNL     1       6.990  -5.495  27.392  0.00  0.00    -0.000 C 
BRANCH  26  27
ATOM     27  C   UNL     1       6.147  -4.224  27.471  0.00  0.00    -0.000 C 
BRANCH  27  28
ATOM     28  C   UNL     1       4.706  -4.497  27.049  0.00  0.00    -0.000 C 
BRANCH  28  29
ATOM     29  C   UNL     1       4.511  -4.246  25.555  0.00  0.00    -0.000 C 
BRANCH  29  30
ATOM     30  C   UNL     1       4.255  -5.554  24.811  0.00  0.00    -0.000 C 
BRANCH  30  31
ATOM     31  C   UNL     1       5.385  -5.861  23.829  0.00  0.00    -0.000 C 
BRANCH  31  32
ATOM     32  C   UNL     1       4.997  -5.464  22.406  0.00  0.00    -0.000 C 
BRANCH  32  34
ATOM     33  C   UNL     1       7.341  -6.327  22.121  0.00  0.00    +0.004 C 
ATOM     34  C   UNL     1       6.093  -5.831  21.409  0.00  0.00    -0.003 C 
ENDBRANCH  32  34
ENDBRANCH  31  32
ENDBRANCH  30  31
ENDBRANCH  29  30
ENDBRANCH  28  29
ENDBRANCH  27  28
ENDBRANCH  26  27
ENDBRANCH  25  26
ENDBRANCH  24  25
ENDBRANCH  23  24
ENDBRANCH  22  23
ENDBRANCH  21  22
ENDBRANCH  20  21
ENDBRANCH  18  20
ENDBRANCH  17  18
ENDBRANCH  16  17
ENDBRANCH   1  16
BRANCH   1  35
ATOM     35  O   UNL     1       9.033   1.977  24.324  0.00  0.00    -0.456 OA
BRANCH  35  36
ATOM     36  C   UNL     1       9.855   0.986  24.760  0.00  0.00    +0.308 C 
ATOM     37  O   UNL     1      11.071   0.971  24.626  0.00  0.00    -0.251 OA
BRANCH  36  38
ATOM     38  C   UNL     1       9.078   0.003  25.600  0.00  0.00    +0.120 C 
BRANCH  38  39
ATOM     39  C   UNL     1       7.716   0.515  26.053  0.00  0.00    +0.011 C 
BRANCH  39  40
ATOM     40  C   UNL     1       6.597   0.059  25.119  0.00  0.00    +0.001 C 
BRANCH  40  41
ATOM     41  C   UNL     1       5.524  -0.697  25.895  0.00  0.00    +0.000 C 
BRANCH  41  42
ATOM     42  C   UNL     1       5.764  -0.594  27.399  0.00  0.00    +0.000 C 
BRANCH  42  43
ATOM     43  C   UNL     1       4.491  -0.917  28.172  0.00  0.00    +0.000 C 
BRANCH  43  44
ATOM     44  C   UNL     1       3.304  -1.069  27.227  0.00  0.00    -0.000 C 
BRANCH  44  45
ATOM     45  C   UNL     1       1.990  -0.804  27.957  0.00  0.00    -0.000 C 
BRANCH  45  46
ATOM     46  C   UNL     1       1.314   0.454  27.419  0.00  0.00    -0.000 C 
BRANCH  46  47
ATOM     47  C   UNL     1       1.831   1.700  28.134  0.00  0.00    -0.000 C 
BRANCH  47  48
ATOM     48  C   UNL     1       2.531   2.637  27.154  0.00  0.00    -0.000 C 
BRANCH  48  49
ATOM     49  C   UNL     1       4.035   2.681  27.413  0.00  0.00    -0.000 C 
BRANCH  49  50
ATOM     50  C   UNL     1       4.793   3.109  26.158  0.00  0.00    -0.000 C 
BRANCH  50  51
ATOM     51  C   UNL     1       3.893   3.057  24.925  0.00  0.00    -0.003 C 
ATOM     52  C   UNL     1       4.686   2.691  23.681  0.00  0.00    +0.004 C 
ENDBRANCH  50  51
ENDBRANCH  49  50
ENDBRANCH  48  49
ENDBRANCH  47  48
ENDBRANCH  46  47
ENDBRANCH  45  46
ENDBRANCH  44  45
ENDBRANCH  43  44
ENDBRANCH  42  43
ENDBRANCH  41  42
ENDBRANCH  40  41
ENDBRANCH  39  40
ENDBRANCH  38  39
ENDBRANCH  36  38
ENDBRANCH  35  36
ENDBRANCH   1  35
TORSDOF 43
ENDMDL
MODEL 5
REMARK VINA RESULT:      -4.4      2.195      5.836
REMARK  Name = 
REMARK  45 active torsions:
REMARK  status: ('A' for Active; 'I' for Inactive)
REMARK    1  A    between atoms: C_1  and  C_2
REMARK    2  A    between atoms: C_2  and  C_3
REMARK    3  A    between atoms: C_3  and  C_4
REMARK    4  A    between atoms: C_4  and  C_5
REMARK    5  A    between atoms: C_5  and  C_6
REMARK    6  A    between atoms: C_6  and  C_7
REMARK    7  A    between atoms: C_7  and  C_8
REMARK    8  A    between atoms: C_8  and  C_9
REMARK    9  A    between atoms: C_9  and  C_10
REMARK   10  A    between atoms: C_10  and  C_11
REMARK   11  A    between atoms: C_11  and  C_12
REMARK   12  A    between atoms: C_12  and  C_13
REMARK   13  A    between atoms: C_13  and  C_14
REMARK   14  A    between atoms: C_14  and  C_15
REMARK   15  A    between atoms: C_15  and  C_16
REMARK   16  A    between atoms: C_16  and  O_18
REMARK   17  A    between atoms: O_18  and  C_19
REMARK   18  A    between atoms: C_19  and  C_20
REMARK   19  A    between atoms: C_20  and  C_22
REMARK   20  A    between atoms: C_20  and  O_34
REMARK   21  A    between atoms: C_22  and  O_23
REMARK   22  A    between atoms: O_23  and  P_24
REMARK   23  A    between atoms: P_24  and  O_25
REMARK   24  A    between atoms: P_24  and  O_27
REMARK   25  A    between atoms: O_27  and  C_28
REMARK   26  A    between atoms: C_28  and  C_29
REMARK   27  A    between atoms: C_29  and  O_31
REMARK   28  A    between atoms: C_29  and  C_32
REMARK   29  A    between atoms: C_32  and  O_33
REMARK   30  A    between atoms: O_34  and  C_35
REMARK   31  A    between atoms: C_35  and  C_37
REMARK   32  A    between atoms: C_37  and  C_38
REMARK   33  A    between atoms: C_38  and  C_39
REMARK   34  A    between atoms: C_39  and  C_40
REMARK   35  A    between atoms: C_40  and  C_41
REMARK   36  A    between atoms: C_41  and  C_42
REMARK   37  A    between atoms: C_42  and  C_43
REMARK   38  A    between atoms: C_43  and  C_44
REMARK   39  A    between atoms: C_44  and  C_45
REMARK   40  A    between atoms: C_45  and  C_46
REMARK   41  A    between atoms: C_46  and  C_47
REMARK   42  A    between atoms: C_47  and  C_48
REMARK   43  A    between atoms: C_48  and  C_49
REMARK   44  A    between atoms: C_49  and  C_50
REMARK   45  A    between atoms: C_50  and  C_51
REMARK                            x       y       z     vdW  Elec       q    Type
REMARK                         _______ _______ _______ _____ _____    ______ ____
ROOT
ATOM      1  C   UNL     1       5.302  -3.051  27.018  0.00  0.00    +0.240 C 
ENDROOT
BRANCH   1   2
ATOM      2  C   UNL     1       4.131  -3.961  26.613  0.00  0.00    +0.220 C 
BRANCH   2   3
ATOM      3  O   UNL     1       4.567  -4.900  25.633  0.00  0.00    -0.283 OA
BRANCH   3   4
ATOM      4  P   UNL     1       4.221  -6.478  25.928  0.00  0.00    +0.475 P 
ATOM      5  O   UNL     1       4.761  -7.274  24.737  0.00  0.00    -0.227 OA
BRANCH   4   6
ATOM      6  O   UNL     1       5.784  -6.646  26.649  0.00  0.00    -0.302 OA
ATOM      7  H   UNL     1       6.268  -5.873  26.291  0.00  0.00    +0.222 HD
ENDBRANCH   4   6
BRANCH   4   8
ATOM      8  O   UNL     1       2.657  -6.308  25.207  0.00  0.00    -0.284 OA
BRANCH   8   9
ATOM      9  C   UNL     1       1.732  -7.292  25.651  0.00  0.00    +0.206 C 
BRANCH   9  10
ATOM     10  C   UNL     1       1.343  -8.231  24.509  0.00  0.00    +0.166 C 
BRANCH  10  11
ATOM     11  O   UNL     1       2.415  -8.282  23.556  0.00  0.00    -0.387 OA
ATOM     12  H   UNL     1       2.961  -9.060  23.778  0.00  0.00    +0.210 HD
ENDBRANCH  10  11
BRANCH  10  13
ATOM     13  C   UNL     1       1.081  -9.656  25.004  0.00  0.00    +0.189 C 
BRANCH  13  14
ATOM     14  O   UNL     1       2.309 -10.269  25.400  0.00  0.00    -0.392 OA
ATOM     15  H   UNL     1       2.332 -11.117  24.912  0.00  0.00    +0.210 HD
ENDBRANCH  13  14
ENDBRANCH  10  13
ENDBRANCH   9  10
ENDBRANCH   8   9
ENDBRANCH   4   8
ENDBRANCH   3   4
ENDBRANCH   2   3
ENDBRANCH   1   2
BRANCH   1  16
ATOM     16  C   UNL     1       4.831  -1.596  27.076  0.00  0.00    +0.279 C 
BRANCH  16  17
ATOM     17  O   UNL     1       4.781  -0.986  25.775  0.00  0.00    -0.461 OA
BRANCH  17  18
ATOM     18  C   UNL     1       4.923   0.367  25.763  0.00  0.00    +0.307 C 
ATOM     19  O   UNL     1       4.426   1.127  26.583  0.00  0.00    -0.251 OA
BRANCH  18  20
ATOM     20  C   UNL     1       5.715   0.794  24.548  0.00  0.00    +0.120 C 
BRANCH  20  21
ATOM     21  C   UNL     1       5.365   2.223  24.153  0.00  0.00    +0.011 C 
BRANCH  21  22
ATOM     22  C   UNL     1       5.851   2.562  22.745  0.00  0.00    +0.001 C 
BRANCH  22  23
ATOM     23  C   UNL     1       5.873   4.076  22.544  0.00  0.00    +0.000 C 
BRANCH  23  24
ATOM     24  C   UNL     1       7.291   4.600  22.328  0.00  0.00    +0.000 C 
BRANCH  24  25
ATOM     25  C   UNL     1       7.275   6.110  22.103  0.00  0.00    +0.000 C 
BRANCH  25  26
ATOM     26  C   UNL     1       8.228   6.822  23.059  0.00  0.00    -0.000 C 
BRANCH  26  27
ATOM     27  C   UNL     1       9.465   5.970  23.333  0.00  0.00    -0.000 C 
BRANCH  27  28
ATOM     28  C   UNL     1       9.645   5.735  24.830  0.00  0.00    -0.000 C 
BRANCH  28  29
ATOM     29  C   UNL     1       8.677   6.590  25.644  0.00  0.00    -0.000 C 
BRANCH  29  30
ATOM     30  C   UNL     1       7.761   5.716  26.497  0.00  0.00    -0.000 C 
BRANCH  30  31
ATOM     31  C   UNL     1       7.797   4.261  26.034  0.00  0.00    -0.000 C 
BRANCH  31  32
ATOM     32  C   UNL     1       7.146   3.342  27.066  0.00  0.00    -0.000 C 
BRANCH  32  34
ATOM     33  C   UNL     1       5.641   3.391  29.080  0.00  0.00    +0.004 C 
ATOM     34  C   UNL     1       5.945   4.014  27.728  0.00  0.00    -0.003 C 
ENDBRANCH  32  34
ENDBRANCH  31  32
ENDBRANCH  30  31
ENDBRANCH  29  30
ENDBRANCH  28  29
ENDBRANCH  27  28
ENDBRANCH  26  27
ENDBRANCH  25  26
ENDBRANCH  24  25
ENDBRANCH  23  24
ENDBRANCH  22  23
ENDBRANCH  21  22
ENDBRANCH  20  21
ENDBRANCH  18  20
ENDBRANCH  17  18
ENDBRANCH  16  17
ENDBRANCH   1  16
BRANCH   1  35
ATOM     35  O   UNL     1       6.304  -3.215  25.991  0.00  0.00    -0.456 OA
BRANCH  35  36
ATOM     36  C   UNL     1       7.544  -3.523  26.456  0.00  0.00    +0.308 C 
ATOM     37  O   UNL     1       7.807  -4.468  27.186  0.00  0.00    -0.251 OA
BRANCH  36  38
ATOM     38  C   UNL     1       8.577  -2.649  25.789  0.00  0.00    +0.120 C 
BRANCH  38  39
ATOM     39  C   UNL     1       8.386  -1.159  26.044  0.00  0.00    +0.011 C 
BRANCH  39  40
ATOM     40  C   UNL     1       9.608  -0.347  25.619  0.00  0.00    +0.001 C 
BRANCH  40  41
ATOM     41  C   UNL     1       9.184   0.974  24.987  0.00  0.00    +0.000 C 
BRANCH  41  42
ATOM     42  C   UNL     1      10.352   1.626  24.251  0.00  0.00    +0.000 C 
BRANCH  42  43
ATOM     43  C   UNL     1       9.911   2.141  22.886  0.00  0.00    +0.000 C 
BRANCH  43  44
ATOM     44  C   UNL     1       9.046   1.109  22.169  0.00  0.00    -0.000 C 
BRANCH  44  45
ATOM     45  C   UNL     1       9.904  -0.010  21.587  0.00  0.00    -0.000 C 
BRANCH  45  46
ATOM     46  C   UNL     1       9.464  -1.368  22.126  0.00  0.00    -0.000 C 
BRANCH  46  47
ATOM     47  C   UNL     1       7.949  -1.415  22.313  0.00  0.00    -0.000 C 
BRANCH  47  48
ATOM     48  C   UNL     1       7.452  -2.858  22.354  0.00  0.00    -0.000 C 
BRANCH  48  49
ATOM     49  C   UNL     1       5.986  -2.923  22.773  0.00  0.00    -0.000 C 
BRANCH  49  50
ATOM     50  C   UNL     1       5.350  -4.239  22.330  0.00  0.00    -0.000 C 
BRANCH  50  51
ATOM     51  C   UNL     1       6.268  -5.004  21.380  0.00  0.00    -0.003 C 
ATOM     52  C   UNL     1       6.738  -6.309  22.000  0.00  0.00    +0.004 C 
ENDBRANCH  50  51
ENDBRANCH  49  50
ENDBRANCH  48  49
ENDBRANCH  47  48
ENDBRANCH  46  47
ENDBRANCH  45  46
ENDBRANCH  44  45
ENDBRANCH  43  44
ENDBRANCH  42  43
ENDBRANCH  41  42
ENDBRANCH  40  41
ENDBRANCH  39  40
ENDBRANCH  38  39
ENDBRANCH  36  38
ENDBRANCH  35  36
ENDBRANCH   1  35
TORSDOF 43
ENDMDL
MODEL 6
REMARK VINA RESULT:      -4.3      1.925      5.050
REMARK  Name = 
REMARK  45 active torsions:
REMARK  status: ('A' for Active; 'I' for Inactive)
REMARK    1  A    between atoms: C_1  and  C_2
REMARK    2  A    between atoms: C_2  and  C_3
REMARK    3  A    between atoms: C_3  and  C_4
REMARK    4  A    between atoms: C_4  and  C_5
REMARK    5  A    between atoms: C_5  and  C_6
REMARK    6  A    between atoms: C_6  and  C_7
REMARK    7  A    between atoms: C_7  and  C_8
REMARK    8  A    between atoms: C_8  and  C_9
REMARK    9  A    between atoms: C_9  and  C_10
REMARK   10  A    between atoms: C_10  and  C_11
REMARK   11  A    between atoms: C_11  and  C_12
REMARK   12  A    between atoms: C_12  and  C_13
REMARK   13  A    between atoms: C_13  and  C_14
REMARK   14  A    between atoms: C_14  and  C_15
REMARK   15  A    between atoms: C_15  and  C_16
REMARK   16  A    between atoms: C_16  and  O_18
REMARK   17  A    between atoms: O_18  and  C_19
REMARK   18  A    between atoms: C_19  and  C_20
REMARK   19  A    between atoms: C_20  and  C_22
REMARK   20  A    between atoms: C_20  and  O_34
REMARK   21  A    between atoms: C_22  and  O_23
REMARK   22  A    between atoms: O_23  and  P_24
REMARK   23  A    between atoms: P_24  and  O_25
REMARK   24  A    between atoms: P_24  and  O_27
REMARK   25  A    between atoms: O_27  and  C_28
REMARK   26  A    between atoms: C_28  and  C_29
REMARK   27  A    between atoms: C_29  and  O_31
REMARK   28  A    between atoms: C_29  and  C_32
REMARK   29  A    between atoms: C_32  and  O_33
REMARK   30  A    between atoms: O_34  and  C_35
REMARK   31  A    between atoms: C_35  and  C_37
REMARK   32  A    between atoms: C_37  and  C_38
REMARK   33  A    between atoms: C_38  and  C_39
REMARK   34  A    between atoms: C_39  and  C_40
REMARK   35  A    between atoms: C_40  and  C_41
REMARK   36  A    between atoms: C_41  and  C_42
REMARK   37  A    between atoms: C_42  and  C_43
REMARK   38  A    between atoms: C_43  and  C_44
REMARK   39  A    between atoms: C_44  and  C_45
REMARK   40  A    between atoms: C_45  and  C_46
REMARK   41  A    between atoms: C_46  and  C_47
REMARK   42  A    between atoms: C_47  and  C_48
REMARK   43  A    between atoms: C_48  and  C_49
REMARK   44  A    between atoms: C_49  and  C_50
REMARK   45  A    between atoms: C_50  and  C_51
REMARK                            x       y       z     vdW  Elec       q    Type
REMARK                         _______ _______ _______ _____ _____    ______ ____
ROOT
ATOM      1  C   UNL     1       5.818  -2.980  25.492  0.00  0.00    +0.240 C 
ENDROOT
BRANCH   1   2
ATOM      2  C   UNL     1       4.700  -3.914  25.982  0.00  0.00    +0.220 C 
BRANCH   2   3
ATOM      3  O   UNL     1       4.265  -4.748  24.911  0.00  0.00    -0.283 OA
BRANCH   3   4
ATOM      4  P   UNL     1       4.315  -6.367  25.180  0.00  0.00    +0.475 P 
ATOM      5  O   UNL     1       5.529  -6.625  26.075  0.00  0.00    -0.227 OA
BRANCH   4   6
ATOM      6  O   UNL     1       3.400  -6.117  26.626  0.00  0.00    -0.302 OA
ATOM      7  H   UNL     1       3.712  -6.844  27.203  0.00  0.00    +0.222 HD
ENDBRANCH   4   6
BRANCH   4   8
ATOM      8  O   UNL     1       5.230  -6.616  23.732  0.00  0.00    -0.284 OA
BRANCH   8   9
ATOM      9  C   UNL     1       4.887  -5.704  22.696  0.00  0.00    +0.206 C 
BRANCH   9  10
ATOM     10  C   UNL     1       5.904  -5.765  21.557  0.00  0.00    +0.166 C 
BRANCH  10  11
ATOM     11  O   UNL     1       5.896  -4.515  20.851  0.00  0.00    -0.387 OA
ATOM     12  H   UNL     1       5.944  -3.806  21.519  0.00  0.00    +0.210 HD
ENDBRANCH  10  11
BRANCH  10  13
ATOM     13  C   UNL     1       7.326  -6.009  22.070  0.00  0.00    +0.189 C 
BRANCH  13  14
ATOM     14  O   UNL     1       7.548  -5.260  23.267  0.00  0.00    -0.392 OA
ATOM     15  H   UNL     1       8.504  -5.052  23.256  0.00  0.00    +0.210 HD
ENDBRANCH  13  14
ENDBRANCH  10  13
ENDBRANCH   9  10
ENDBRANCH   8   9
ENDBRANCH   4   8
ENDBRANCH   3   4
ENDBRANCH   2   3
ENDBRANCH   1   2
BRANCH   1  16
ATOM     16  C   UNL     1       5.494  -2.479  24.083  0.00  0.00    +0.279 C 
BRANCH  16  17
ATOM     17  O   UNL     1       6.596  -2.652  23.176  0.00  0.00    -0.461 OA
BRANCH  17  18
ATOM     18  C   UNL     1       7.232  -1.506  22.810  0.00  0.00    +0.307 C 
ATOM     19  O   UNL     1       6.705  -0.402  22.763  0.00  0.00    -0.251 OA
BRANCH  18  20
ATOM     20  C   UNL     1       8.653  -1.811  22.398  0.00  0.00    +0.120 C 
BRANCH  20  21
ATOM     21  C   UNL     1       9.259  -0.634  21.643  0.00  0.00    +0.011 C 
BRANCH  21  22
ATOM     22  C   UNL     1      10.195   0.190  22.524  0.00  0.00    +0.001 C 
BRANCH  22  23
ATOM     23  C   UNL     1      10.091   1.671  22.164  0.00  0.00    +0.000 C 
BRANCH  23  24
ATOM     24  C   UNL     1       8.917   2.346  22.868  0.00  0.00    +0.000 C 
BRANCH  24  25
ATOM     25  C   UNL     1       7.890   2.833  21.849  0.00  0.00    +0.000 C 
BRANCH  25  26
ATOM     26  C   UNL     1       6.541   3.107  22.508  0.00  0.00    -0.000 C 
BRANCH  26  27
ATOM     27  C   UNL     1       6.441   4.560  22.965  0.00  0.00    -0.000 C 
BRANCH  27  28
ATOM     28  C   UNL     1       7.241   5.479  22.047  0.00  0.00    -0.000 C 
BRANCH  28  29
ATOM     29  C   UNL     1       8.064   6.482  22.851  0.00  0.00    -0.000 C 
BRANCH  29  30
ATOM     30  C   UNL     1       8.125   6.083  24.324  0.00  0.00    -0.000 C 
BRANCH  30  31
ATOM     31  C   UNL     1       9.568   5.877  24.781  0.00  0.00    -0.000 C 
BRANCH  31  32
ATOM     32  C   UNL     1      10.534   5.960  23.599  0.00  0.00    -0.000 C 
BRANCH  32  34
ATOM     33  C   UNL     1      12.841   5.084  23.118  0.00  0.00    +0.004 C 
ATOM     34  C   UNL     1      11.986   5.910  24.065  0.00  0.00    -0.003 C 
ENDBRANCH  32  34
ENDBRANCH  31  32
ENDBRANCH  30  31
ENDBRANCH  29  30
ENDBRANCH  28  29
ENDBRANCH  27  28
ENDBRANCH  26  27
ENDBRANCH  25  26
ENDBRANCH  24  25
ENDBRANCH  23  24
ENDBRANCH  22  23
ENDBRANCH  21  22
ENDBRANCH  20  21
ENDBRANCH  18  20
ENDBRANCH  17  18
ENDBRANCH  16  17
ENDBRANCH   1  16
BRANCH   1  35
ATOM     35  O   UNL     1       7.022  -3.776  25.479  0.00  0.00    -0.456 OA
BRANCH  35  36
ATOM     36  C   UNL     1       8.006  -3.328  26.303  0.00  0.00    +0.308 C 
ATOM     37  O   UNL     1       9.025  -3.944  26.582  0.00  0.00    -0.251 OA
BRANCH  36  38
ATOM     38  C   UNL     1       7.755  -1.886  26.670  0.00  0.00    +0.120 C 
BRANCH  38  39
ATOM     39  C   UNL     1       8.754  -0.909  26.064  0.00  0.00    +0.011 C 
BRANCH  39  40
ATOM     40  C   UNL     1       8.132   0.465  25.823  0.00  0.00    +0.001 C 
BRANCH  40  41
ATOM     41  C   UNL     1       6.745   0.545  26.452  0.00  0.00    +0.000 C 
BRANCH  41  42
ATOM     42  C   UNL     1       6.127   1.924  26.236  0.00  0.00    +0.000 C 
BRANCH  42  43
ATOM     43  C   UNL     1       4.866   1.824  25.386  0.00  0.00    +0.000 C 
BRANCH  43  44
ATOM     44  C   UNL     1       3.859   2.901  25.776  0.00  0.00    -0.000 C 
BRANCH  44  45
ATOM     45  C   UNL     1       4.519   4.277  25.804  0.00  0.00    -0.000 C 
BRANCH  45  46
ATOM     46  C   UNL     1       3.491   5.377  25.552  0.00  0.00    -0.000 C 
BRANCH  46  47
ATOM     47  C   UNL     1       4.156   6.622  24.970  0.00  0.00    -0.000 C 
BRANCH  47  48
ATOM     48  C   UNL     1       3.608   6.929  23.579  0.00  0.00    -0.000 C 
BRANCH  48  49
ATOM     49  C   UNL     1       2.551   5.907  23.167  0.00  0.00    -0.000 C 
BRANCH  49  50
ATOM     50  C   UNL     1       2.965   5.180  21.889  0.00  0.00    -0.000 C 
BRANCH  50  51
ATOM     51  C   UNL     1       2.885   3.665  22.066  0.00  0.00    -0.003 C 
ATOM     52  C   UNL     1       1.671   3.271  22.889  0.00  0.00    +0.004 C 
ENDBRANCH  50  51
ENDBRANCH  49  50
ENDBRANCH  48  49
ENDBRANCH  47  48
ENDBRANCH  46  47
ENDBRANCH  45  46
ENDBRANCH  44  45
ENDBRANCH  43  44
ENDBRANCH  42  43
ENDBRANCH  41  42
ENDBRANCH  40  41
ENDBRANCH  39  40
ENDBRANCH  38  39
ENDBRANCH  36  38
ENDBRANCH  35  36
ENDBRANCH   1  35
TORSDOF 43
ENDMDL
MODEL 7
REMARK VINA RESULT:      -4.3      1.969      5.953
REMARK  Name = 
REMARK  45 active torsions:
REMARK  status: ('A' for Active; 'I' for Inactive)
REMARK    1  A    between atoms: C_1  and  C_2
REMARK    2  A    between atoms: C_2  and  C_3
REMARK    3  A    between atoms: C_3  and  C_4
REMARK    4  A    between atoms: C_4  and  C_5
REMARK    5  A    between atoms: C_5  and  C_6
REMARK    6  A    between atoms: C_6  and  C_7
REMARK    7  A    between atoms: C_7  and  C_8
REMARK    8  A    between atoms: C_8  and  C_9
REMARK    9  A    between atoms: C_9  and  C_10
REMARK   10  A    between atoms: C_10  and  C_11
REMARK   11  A    between atoms: C_11  and  C_12
REMARK   12  A    between atoms: C_12  and  C_13
REMARK   13  A    between atoms: C_13  and  C_14
REMARK   14  A    between atoms: C_14  and  C_15
REMARK   15  A    between atoms: C_15  and  C_16
REMARK   16  A    between atoms: C_16  and  O_18
REMARK   17  A    between atoms: O_18  and  C_19
REMARK   18  A    between atoms: C_19  and  C_20
REMARK   19  A    between atoms: C_20  and  C_22
REMARK   20  A    between atoms: C_20  and  O_34
REMARK   21  A    between atoms: C_22  and  O_23
REMARK   22  A    between atoms: O_23  and  P_24
REMARK   23  A    between atoms: P_24  and  O_25
REMARK   24  A    between atoms: P_24  and  O_27
REMARK   25  A    between atoms: O_27  and  C_28
REMARK   26  A    between atoms: C_28  and  C_29
REMARK   27  A    between atoms: C_29  and  O_31
REMARK   28  A    between atoms: C_29  and  C_32
REMARK   29  A    between atoms: C_32  and  O_33
REMARK   30  A    between atoms: O_34  and  C_35
REMARK   31  A    between atoms: C_35  and  C_37
REMARK   32  A    between atoms: C_37  and  C_38
REMARK   33  A    between atoms: C_38  and  C_39
REMARK   34  A    between atoms: C_39  and  C_40
REMARK   35  A    between atoms: C_40  and  C_41
REMARK   36  A    between atoms: C_41  and  C_42
REMARK   37  A    between atoms: C_42  and  C_43
REMARK   38  A    between atoms: C_43  and  C_44
REMARK   39  A    between atoms: C_44  and  C_45
REMARK   40  A    between atoms: C_45  and  C_46
REMARK   41  A    between atoms: C_46  and  C_47
REMARK   42  A    between atoms: C_47  and  C_48
REMARK   43  A    between atoms: C_48  and  C_49
REMARK   44  A    between atoms: C_49  and  C_50
REMARK   45  A    between atoms: C_50  and  C_51
REMARK                            x       y       z     vdW  Elec       q    Type
REMARK                         _______ _______ _______ _____ _____    ______ ____
ROOT
ATOM      1  C   UNL     1       5.245  -1.936  27.122  0.00  0.00    +0.240 C 
ENDROOT
BRANCH   1   2
ATOM      2  C   UNL     1       4.949  -3.444  27.144  0.00  0.00    +0.220 C 
BRANCH   2   3
ATOM      3  O   UNL     1       6.065  -4.147  27.685  0.00  0.00    -0.283 OA
BRANCH   3   4
ATOM      4  P   UNL     1       5.825  -5.729  28.050  0.00  0.00    +0.475 P 
ATOM      5  O   UNL     1       7.205  -6.328  28.331  0.00  0.00    -0.227 OA
BRANCH   4   6
ATOM      6  O   UNL     1       5.760  -5.294  29.723  0.00  0.00    -0.302 OA
ATOM      7  H   UNL     1       6.548  -5.745  30.091  0.00  0.00    +0.222 HD
ENDBRANCH   4   6
BRANCH   4   8
ATOM      8  O   UNL     1       5.889  -6.163  26.376  0.00  0.00    -0.284 OA
BRANCH   8   9
ATOM      9  C   UNL     1       4.752  -6.905  25.952  0.00  0.00    +0.206 C 
BRANCH   9  10
ATOM     10  C   UNL     1       4.589  -6.833  24.434  0.00  0.00    +0.166 C 
BRANCH  10  11
ATOM     11  O   UNL     1       3.576  -7.764  24.025  0.00  0.00    -0.387 OA
ATOM     12  H   UNL     1       2.778  -7.244  23.811  0.00  0.00    +0.210 HD
ENDBRANCH  10  11
BRANCH  10  13
ATOM     13  C   UNL     1       4.166  -5.438  23.968  0.00  0.00    +0.189 C 
BRANCH  13  14
ATOM     14  O   UNL     1       4.349  -5.318  22.556  0.00  0.00    -0.392 OA
ATOM     15  H   UNL     1       5.190  -4.827  22.455  0.00  0.00    +0.210 HD
ENDBRANCH  13  14
ENDBRANCH  10  13
ENDBRANCH   9  10
ENDBRANCH   8   9
ENDBRANCH   4   8
ENDBRANCH   3   4
ENDBRANCH   2   3
ENDBRANCH   1   2
BRANCH   1  16
ATOM     16  C   UNL     1       4.059  -1.166  27.709  0.00  0.00    +0.279 C 
BRANCH  16  17
ATOM     17  O   UNL     1       4.379  -0.546  28.965  0.00  0.00    -0.461 OA
BRANCH  17  18
ATOM     18  C   UNL     1       5.098   0.606  28.877  0.00  0.00    +0.307 C 
ATOM     19  O   UNL     1       6.256   0.735  29.251  0.00  0.00    -0.251 OA
BRANCH  18  20
ATOM     20  C   UNL     1       4.232   1.715  28.325  0.00  0.00    +0.120 C 
BRANCH  20  21
ATOM     21  C   UNL     1       4.863   2.320  27.076  0.00  0.00    +0.011 C 
BRANCH  21  22
ATOM     22  C   UNL     1       5.695   3.559  27.399  0.00  0.00    +0.001 C 
BRANCH  22  23
ATOM     23  C   UNL     1       7.161   3.318  27.042  0.00  0.00    +0.000 C 
BRANCH  23  24
ATOM     24  C   UNL     1       7.633   4.246  25.925  0.00  0.00    +0.000 C 
BRANCH  24  25
ATOM     25  C   UNL     1       7.865   5.656  26.463  0.00  0.00    +0.000 C 
BRANCH  25  26
ATOM     26  C   UNL     1       9.075   6.309  25.803  0.00  0.00    -0.000 C 
BRANCH  26  27
ATOM     27  C   UNL     1       9.595   5.455  24.649  0.00  0.00    -0.000 C 
BRANCH  27  28
ATOM     28  C   UNL     1       9.595   6.244  23.342  0.00  0.00    -0.000 C 
BRANCH  28  29
ATOM     29  C   UNL     1       8.232   6.882  23.084  0.00  0.00    -0.000 C 
BRANCH  29  30
ATOM     30  C   UNL     1       7.376   5.996  22.182  0.00  0.00    -0.000 C 
BRANCH  30  31
ATOM     31  C   UNL     1       5.909   6.028  22.608  0.00  0.00    -0.000 C 
BRANCH  31  32
ATOM     32  C   UNL     1       5.376   4.615  22.841  0.00  0.00    -0.000 C 
BRANCH  32  34
ATOM     33  C   UNL     1       4.459   5.889  24.806  0.00  0.00    +0.004 C 
ATOM     34  C   UNL     1       4.471   4.560  24.069  0.00  0.00    -0.003 C 
ENDBRANCH  32  34
ENDBRANCH  31  32
ENDBRANCH  30  31
ENDBRANCH  29  30
ENDBRANCH  28  29
ENDBRANCH  27  28
ENDBRANCH  26  27
ENDBRANCH  25  26
ENDBRANCH  24  25
ENDBRANCH  23  24
ENDBRANCH  22  23
ENDBRANCH  21  22
ENDBRANCH  20  21
ENDBRANCH  18  20
ENDBRANCH  17  18
ENDBRANCH  16  17
ENDBRANCH   1  16
BRANCH   1  35
ATOM     35  O   UNL     1       5.432  -1.589  25.733  0.00  0.00    -0.456 OA
BRANCH  35  36
ATOM     36  C   UNL     1       6.354  -0.614  25.514  0.00  0.00    +0.308 C 
ATOM     37  O   UNL     1       7.309  -0.373  26.239  0.00  0.00    -0.251 OA
BRANCH  36  38
ATOM     38  C   UNL     1       6.144  -0.002  24.151  0.00  0.00    +0.120 C 
BRANCH  38  39
ATOM     39  C   UNL     1       6.842   1.338  23.959  0.00  0.00    +0.011 C 
BRANCH  39  40
ATOM     40  C   UNL     1       7.384   1.499  22.540  0.00  0.00    +0.001 C 
BRANCH  40  41
ATOM     41  C   UNL     1       8.468   2.571  22.496  0.00  0.00    +0.000 C 
BRANCH  41  42
ATOM     42  C   UNL     1       9.858   1.941  22.535  0.00  0.00    +0.000 C 
BRANCH  42  43
ATOM     43  C   UNL     1      10.381   1.874  23.965  0.00  0.00    +0.000 C 
BRANCH  43  44
ATOM     44  C   UNL     1      10.450   0.431  24.452  0.00  0.00    -0.000 C 
BRANCH  44  45
ATOM     45  C   UNL     1      10.420  -0.542  23.277  0.00  0.00    -0.000 C 
BRANCH  45  46
ATOM     46  C   UNL     1       9.480  -1.710  23.562  0.00  0.00    -0.000 C 
BRANCH  46  47
ATOM     47  C   UNL     1       8.606  -2.015  22.348  0.00  0.00    -0.000 C 
BRANCH  47  48
ATOM     48  C   UNL     1       7.634  -3.152  22.652  0.00  0.00    -0.000 C 
BRANCH  48  49
ATOM     49  C   UNL     1       7.824  -3.672  24.075  0.00  0.00    -0.000 C 
BRANCH  49  50
ATOM     50  C   UNL     1       8.276  -5.131  24.067  0.00  0.00    -0.000 C 
BRANCH  50  51
ATOM     51  C   UNL     1       9.063  -5.472  25.329  0.00  0.00    -0.003 C 
ATOM     52  C   UNL     1       9.182  -4.266  26.247  0.00  0.00    +0.004 C 
ENDBRANCH  50  51
ENDBRANCH  49  50
ENDBRANCH  48  49
ENDBRANCH  47  48
ENDBRANCH  46  47
ENDBRANCH  45  46
ENDBRANCH  44  45
ENDBRANCH  43  44
ENDBRANCH  42  43
ENDBRANCH  41  42
ENDBRANCH  40  41
ENDBRANCH  39  40
ENDBRANCH  38  39
ENDBRANCH  36  38
ENDBRANCH  35  36
ENDBRANCH   1  35
TORSDOF 43
ENDMDL
MODEL 8
REMARK VINA RESULT:      -4.3      1.813      4.804
REMARK  Name = 
REMARK  45 active torsions:
REMARK  status: ('A' for Active; 'I' for Inactive)
REMARK    1  A    between atoms: C_1  and  C_2
REMARK    2  A    between atoms: C_2  and  C_3
REMARK    3  A    between atoms: C_3  and  C_4
REMARK    4  A    between atoms: C_4  and  C_5
REMARK    5  A    between atoms: C_5  and  C_6
REMARK    6  A    between atoms: C_6  and  C_7
REMARK    7  A    between atoms: C_7  and  C_8
REMARK    8  A    between atoms: C_8  and  C_9
REMARK    9  A    between atoms: C_9  and  C_10
REMARK   10  A    between atoms: C_10  and  C_11
REMARK   11  A    between atoms: C_11  and  C_12
REMARK   12  A    between atoms: C_12  and  C_13
REMARK   13  A    between atoms: C_13  and  C_14
REMARK   14  A    between atoms: C_14  and  C_15
REMARK   15  A    between atoms: C_15  and  C_16
REMARK   16  A    between atoms: C_16  and  O_18
REMARK   17  A    between atoms: O_18  and  C_19
REMARK   18  A    between atoms: C_19  and  C_20
REMARK   19  A    between atoms: C_20  and  C_22
REMARK   20  A    between atoms: C_20  and  O_34
REMARK   21  A    between atoms: C_22  and  O_23
REMARK   22  A    between atoms: O_23  and  P_24
REMARK   23  A    between atoms: P_24  and  O_25
REMARK   24  A    between atoms: P_24  and  O_27
REMARK   25  A    between atoms: O_27  and  C_28
REMARK   26  A    between atoms: C_28  and  C_29
REMARK   27  A    between atoms: C_29  and  O_31
REMARK   28  A    between atoms: C_29  and  C_32
REMARK   29  A    between atoms: C_32  and  O_33
REMARK   30  A    between atoms: O_34  and  C_35
REMARK   31  A    between atoms: C_35  and  C_37
REMARK   32  A    between atoms: C_37  and  C_38
REMARK   33  A    between atoms: C_38  and  C_39
REMARK   34  A    between atoms: C_39  and  C_40
REMARK   35  A    between atoms: C_40  and  C_41
REMARK   36  A    between atoms: C_41  and  C_42
REMARK   37  A    between atoms: C_42  and  C_43
REMARK   38  A    between atoms: C_43  and  C_44
REMARK   39  A    between atoms: C_44  and  C_45
REMARK   40  A    between atoms: C_45  and  C_46
REMARK   41  A    between atoms: C_46  and  C_47
REMARK   42  A    between atoms: C_47  and  C_48
REMARK   43  A    between atoms: C_48  and  C_49
REMARK   44  A    between atoms: C_49  and  C_50
REMARK   45  A    between atoms: C_50  and  C_51
REMARK                            x       y       z     vdW  Elec       q    Type
REMARK                         _______ _______ _______ _____ _____    ______ ____
ROOT
ATOM      1  C   UNL     1       8.658  -4.308  24.797  0.00  0.00    +0.240 C 
ENDROOT
BRANCH   1   2
ATOM      2  C   UNL     1       7.701  -5.247  24.045  0.00  0.00    +0.220 C 
BRANCH   2   3
ATOM      3  O   UNL     1       6.464  -4.580  23.803  0.00  0.00    -0.283 OA
BRANCH   3   4
ATOM      4  P   UNL     1       5.639  -5.038  22.460  0.00  0.00    +0.475 P 
ATOM      5  O   UNL     1       5.406  -3.769  21.636  0.00  0.00    -0.227 OA
BRANCH   4   6
ATOM      6  O   UNL     1       7.149  -5.204  21.634  0.00  0.00    -0.302 OA
ATOM      7  H   UNL     1       7.192  -4.381  21.103  0.00  0.00    +0.222 HD
ENDBRANCH   4   6
BRANCH   4   8
ATOM      8  O   UNL     1       4.128  -4.872  23.288  0.00  0.00    -0.284 OA
BRANCH   8   9
ATOM      9  C   UNL     1       4.109  -5.537  24.544  0.00  0.00    +0.206 C 
BRANCH   9  10
ATOM     10  C   UNL     1       3.114  -6.698  24.533  0.00  0.00    +0.166 C 
BRANCH  10  11
ATOM     11  O   UNL     1       3.776  -7.881  24.063  0.00  0.00    -0.387 OA
ATOM     12  H   UNL     1       3.392  -8.637  24.546  0.00  0.00    +0.210 HD
ENDBRANCH  10  11
BRANCH  10  13
ATOM     13  C   UNL     1       2.559  -6.990  25.930  0.00  0.00    +0.189 C 
BRANCH  13  14
ATOM     14  O   UNL     1       3.620  -7.373  26.807  0.00  0.00    -0.392 OA
ATOM     15  H   UNL     1       4.329  -6.720  26.640  0.00  0.00    +0.210 HD
ENDBRANCH  13  14
ENDBRANCH  10  13
ENDBRANCH   9  10
ENDBRANCH   8   9
ENDBRANCH   4   8
ENDBRANCH   3   4
ENDBRANCH   2   3
ENDBRANCH   1   2
BRANCH   1  16
ATOM     16  C   UNL     1       8.402  -4.405  26.303  0.00  0.00    +0.279 C 
BRANCH  16  17
ATOM     17  O   UNL     1       7.812  -5.661  26.677  0.00  0.00    -0.461 OA
BRANCH  17  18
ATOM     18  C   UNL     1       6.941  -5.605  27.721  0.00  0.00    +0.307 C 
ATOM     19  O   UNL     1       6.902  -6.413  28.639  0.00  0.00    -0.251 OA
BRANCH  18  20
ATOM     20  C   UNL     1       5.985  -4.450  27.535  0.00  0.00    +0.120 C 
BRANCH  20  21
ATOM     21  C   UNL     1       4.885  -4.487  28.590  0.00  0.00    +0.011 C 
BRANCH  21  22
ATOM     22  C   UNL     1       4.231  -3.120  28.781  0.00  0.00    +0.001 C 
BRANCH  22  23
ATOM     23  C   UNL     1       4.643  -2.175  27.654  0.00  0.00    +0.000 C 
BRANCH  23  24
ATOM     24  C   UNL     1       3.448  -1.745  26.807  0.00  0.00    +0.000 C 
BRANCH  24  25
ATOM     25  C   UNL     1       2.651  -0.656  27.522  0.00  0.00    +0.000 C 
BRANCH  25  26
ATOM     26  C   UNL     1       3.525   0.556  27.833  0.00  0.00    -0.000 C 
BRANCH  26  27
ATOM     27  C   UNL     1       3.451   1.587  26.709  0.00  0.00    -0.000 C 
BRANCH  27  28
ATOM     28  C   UNL     1       4.625   2.558  26.781  0.00  0.00    -0.000 C 
BRANCH  28  29
ATOM     29  C   UNL     1       5.553   2.218  27.946  0.00  0.00    -0.000 C 
BRANCH  29  30
ATOM     30  C   UNL     1       6.947   1.852  27.443  0.00  0.00    -0.000 C 
BRANCH  30  31
ATOM     31  C   UNL     1       7.310   0.416  27.819  0.00  0.00    -0.000 C 
BRANCH  31  32
ATOM     32  C   UNL     1       7.556  -0.431  26.572  0.00  0.00    -0.000 C 
BRANCH  32  34
ATOM     33  C   UNL     1       6.094  -0.227  24.536  0.00  0.00    +0.004 C 
ATOM     34  C   UNL     1       7.269   0.362  25.299  0.00  0.00    -0.003 C 
ENDBRANCH  32  34
ENDBRANCH  31  32
ENDBRANCH  30  31
ENDBRANCH  29  30
ENDBRANCH  28  29
ENDBRANCH  27  28
ENDBRANCH  26  27
ENDBRANCH  25  26
ENDBRANCH  24  25
ENDBRANCH  23  24
ENDBRANCH  22  23
ENDBRANCH  21  22
ENDBRANCH  20  21
ENDBRANCH  18  20
ENDBRANCH  17  18
ENDBRANCH  16  17
ENDBRANCH   1  16
BRANCH   1  35
ATOM     35  O   UNL     1       8.363  -2.977  24.322  0.00  0.00    -0.456 OA
BRANCH  35  36
ATOM     36  C   UNL     1       9.274  -2.474  23.446  0.00  0.00    +0.308 C 
ATOM     37  O   UNL     1      10.481  -2.664  23.502  0.00  0.00    -0.251 OA
BRANCH  36  38
ATOM     38  C   UNL     1       8.568  -1.812  22.290  0.00  0.00    +0.120 C 
BRANCH  38  39
ATOM     39  C   UNL     1       9.408  -0.767  21.566  0.00  0.00    +0.011 C 
BRANCH  39  40
ATOM     40  C   UNL     1       9.525   0.526  22.371  0.00  0.00    +0.001 C 
BRANCH  40  41
ATOM     41  C   UNL     1       8.906   1.692  21.608  0.00  0.00    +0.000 C 
BRANCH  41  42
ATOM     42  C   UNL     1       8.499   2.813  22.561  0.00  0.00    +0.000 C 
BRANCH  42  43
ATOM     43  C   UNL     1       6.982   2.948  22.620  0.00  0.00    +0.000 C 
BRANCH  43  44
ATOM     44  C   UNL     1       6.554   3.748  23.846  0.00  0.00    -0.000 C 
BRANCH  44  45
ATOM     45  C   UNL     1       7.756   4.078  24.726  0.00  0.00    -0.000 C 
BRANCH  45  46
ATOM     46  C   UNL     1       7.405   5.165  25.739  0.00  0.00    -0.000 C 
BRANCH  46  47
ATOM     47  C   UNL     1       8.640   5.979  26.116  0.00  0.00    -0.000 C 
BRANCH  47  48
ATOM     48  C   UNL     1       9.174   6.744  24.908  0.00  0.00    -0.000 C 
BRANCH  48  49
ATOM     49  C   UNL     1      10.654   6.443  24.676  0.00  0.00    -0.000 C 
BRANCH  49  50
ATOM     50  C   UNL     1      10.853   5.645  23.389  0.00  0.00    -0.000 C 
BRANCH  50  51
ATOM     51  C   UNL     1      12.189   4.906  23.399  0.00  0.00    -0.003 C 
ATOM     52  C   UNL     1      13.168   5.526  22.417  0.00  0.00    +0.004 C 
ENDBRANCH  50  51
ENDBRANCH  49  50
ENDBRANCH  48  49
ENDBRANCH  47  48
ENDBRANCH  46  47
ENDBRANCH  45  46
ENDBRANCH  44  45
ENDBRANCH  43  44
ENDBRANCH  42  43
ENDBRANCH  41  42
ENDBRANCH  40  41
ENDBRANCH  39  40
ENDBRANCH  38  39
ENDBRANCH  36  38
ENDBRANCH  35  36
ENDBRANCH   1  35
TORSDOF 43
ENDMDL
MODEL 9
REMARK VINA RESULT:      -4.2      1.817      5.651
REMARK  Name = 
REMARK  45 active torsions:
REMARK  status: ('A' for Active; 'I' for Inactive)
REMARK    1  A    between atoms: C_1  and  C_2
REMARK    2  A    between atoms: C_2  and  C_3
REMARK    3  A    between atoms: C_3  and  C_4
REMARK    4  A    between atoms: C_4  and  C_5
REMARK    5  A    between atoms: C_5  and  C_6
REMARK    6  A    between atoms: C_6  and  C_7
REMARK    7  A    between atoms: C_7  and  C_8
REMARK    8  A    between atoms: C_8  and  C_9
REMARK    9  A    between atoms: C_9  and  C_10
REMARK   10  A    between atoms: C_10  and  C_11
REMARK   11  A    between atoms: C_11  and  C_12
REMARK   12  A    between atoms: C_12  and  C_13
REMARK   13  A    between atoms: C_13  and  C_14
REMARK   14  A    between atoms: C_14  and  C_15
REMARK   15  A    between atoms: C_15  and  C_16
REMARK   16  A    between atoms: C_16  and  O_18
REMARK   17  A    between atoms: O_18  and  C_19
REMARK   18  A    between atoms: C_19  and  C_20
REMARK   19  A    between atoms: C_20  and  C_22
REMARK   20  A    between atoms: C_20  and  O_34
REMARK   21  A    between atoms: C_22  and  O_23
REMARK   22  A    between atoms: O_23  and  P_24
REMARK   23  A    between atoms: P_24  and  O_25
REMARK   24  A    between atoms: P_24  and  O_27
REMARK   25  A    between atoms: O_27  and  C_28
REMARK   26  A    between atoms: C_28  and  C_29
REMARK   27  A    between atoms: C_29  and  O_31
REMARK   28  A    between atoms: C_29  and  C_32
REMARK   29  A    between atoms: C_32  and  O_33
REMARK   30  A    between atoms: O_34  and  C_35
REMARK   31  A    between atoms: C_35  and  C_37
REMARK   32  A    between atoms: C_37  and  C_38
REMARK   33  A    between atoms: C_38  and  C_39
REMARK   34  A    between atoms: C_39  and  C_40
REMARK   35  A    between atoms: C_40  and  C_41
REMARK   36  A    between atoms: C_41  and  C_42
REMARK   37  A    between atoms: C_42  and  C_43
REMARK   38  A    between atoms: C_43  and  C_44
REMARK   39  A    between atoms: C_44  and  C_45
REMARK   40  A    between atoms: C_45  and  C_46
REMARK   41  A    between atoms: C_46  and  C_47
REMARK   42  A    between atoms: C_47  and  C_48
REMARK   43  A    between atoms: C_48  and  C_49
REMARK   44  A    between atoms: C_49  and  C_50
REMARK   45  A    between atoms: C_50  and  C_51
REMARK                            x       y       z     vdW  Elec       q    Type
REMARK                         _______ _______ _______ _____ _____    ______ ____
ROOT
ATOM      1  C   UNL     1       8.900  -3.834  24.209  0.00  0.00    +0.240 C 
ENDROOT
BRANCH   1   2
ATOM      2  C   UNL     1       8.018  -4.917  23.569  0.00  0.00    +0.220 C 
BRANCH   2   3
ATOM      3  O   UNL     1       6.795  -4.339  23.118  0.00  0.00    -0.283 OA
BRANCH   3   4
ATOM      4  P   UNL     1       5.883  -5.257  22.108  0.00  0.00    +0.475 P 
ATOM      5  O   UNL     1       5.662  -4.426  20.842  0.00  0.00    -0.227 OA
BRANCH   4   6
ATOM      6  O   UNL     1       7.340  -5.838  21.380  0.00  0.00    -0.302 OA
ATOM      7  H   UNL     1       7.066  -5.994  20.452  0.00  0.00    +0.222 HD
ENDBRANCH   4   6
BRANCH   4   8
ATOM      8  O   UNL     1       4.425  -4.676  22.838  0.00  0.00    -0.284 OA
BRANCH   8   9
ATOM      9  C   UNL     1       4.306  -5.044  24.207  0.00  0.00    +0.206 C 
BRANCH   9  10
ATOM     10  C   UNL     1       4.429  -6.558  24.378  0.00  0.00    +0.166 C 
BRANCH  10  11
ATOM     11  O   UNL     1       4.876  -6.847  25.711  0.00  0.00    -0.387 OA
ATOM     12  H   UNL     1       4.189  -6.521  26.322  0.00  0.00    +0.210 HD
ENDBRANCH  10  11
BRANCH  10  13
ATOM     13  C   UNL     1       3.090  -7.268  24.165  0.00  0.00    +0.189 C 
BRANCH  13  14
ATOM     14  O   UNL     1       2.653  -7.093  22.815  0.00  0.00    -0.392 OA
ATOM     15  H   UNL     1       2.198  -7.929  22.590  0.00  0.00    +0.210 HD
ENDBRANCH  13  14
ENDBRANCH  10  13
ENDBRANCH   9  10
ENDBRANCH   8   9
ENDBRANCH   4   8
ENDBRANCH   3   4
ENDBRANCH   2   3
ENDBRANCH   1   2
BRANCH   1  16
ATOM     16  C   UNL     1       8.711  -3.841  25.728  0.00  0.00    +0.279 C 
BRANCH  16  17
ATOM     17  O   UNL     1       8.186  -5.090  26.207  0.00  0.00    -0.461 OA
BRANCH  17  18
ATOM     18  C   UNL     1       7.258  -4.988  27.197  0.00  0.00    +0.307 C 
ATOM     19  O   UNL     1       6.989  -5.877  27.994  0.00  0.00    -0.251 OA
BRANCH  18  20
ATOM     20  C   UNL     1       6.557  -3.652  27.113  0.00  0.00    +0.120 C 
BRANCH  20  21
ATOM     21  C   UNL     1       5.141  -3.751  27.669  0.00  0.00    +0.011 C 
BRANCH  21  22
ATOM     22  C   UNL     1       4.219  -2.687  27.077  0.00  0.00    +0.001 C 
BRANCH  22  23
ATOM     23  C   UNL     1       5.025  -1.704  26.229  0.00  0.00    +0.000 C 
BRANCH  23  24
ATOM     24  C   UNL     1       4.976  -0.288  26.800  0.00  0.00    +0.000 C 
BRANCH  24  25
ATOM     25  C   UNL     1       5.234   0.741  25.702  0.00  0.00    +0.000 C 
BRANCH  25  26
ATOM     26  C   UNL     1       6.632   0.582  25.111  0.00  0.00    -0.000 C 
BRANCH  26  27
ATOM     27  C   UNL     1       7.678   1.263  25.991  0.00  0.00    -0.000 C 
BRANCH  27  28
ATOM     28  C   UNL     1       8.388   2.379  25.230  0.00  0.00    -0.000 C 
BRANCH  28  29
ATOM     29  C   UNL     1       7.680   3.718  25.426  0.00  0.00    -0.000 C 
BRANCH  29  30
ATOM     30  C   UNL     1       8.686   4.865  25.485  0.00  0.00    -0.000 C 
BRANCH  30  31
ATOM     31  C   UNL     1       9.162   5.254  24.086  0.00  0.00    -0.000 C 
BRANCH  31  32
ATOM     32  C   UNL     1      10.441   6.087  24.156  0.00  0.00    -0.000 C 
BRANCH  32  34
ATOM     33  C   UNL     1      11.731   4.063  23.406  0.00  0.00    +0.004 C 
ATOM     34  C   UNL     1      11.504   5.552  23.201  0.00  0.00    -0.003 C 
ENDBRANCH  32  34
ENDBRANCH  31  32
ENDBRANCH  30  31
ENDBRANCH  29  30
ENDBRANCH  28  29
ENDBRANCH  27  28
ENDBRANCH  26  27
ENDBRANCH  25  26
ENDBRANCH  24  25
ENDBRANCH  23  24
ENDBRANCH  22  23
ENDBRANCH  21  22
ENDBRANCH  20  21
ENDBRANCH  18  20
ENDBRANCH  17  18
ENDBRANCH  16  17
ENDBRANCH   1  16
BRANCH   1  35
ATOM     35  O   UNL     1       8.452  -2.579  23.653  0.00  0.00    -0.456 OA
BRANCH  35  36
ATOM     36  C   UNL     1       9.422  -1.860  23.026  0.00  0.00    +0.308 C 
ATOM     37  O   UNL     1      10.546  -2.269  22.770  0.00  0.00    -0.251 OA
BRANCH  36  38
ATOM     38  C   UNL     1       8.853  -0.558  22.520  0.00  0.00    +0.120 C 
BRANCH  38  39
ATOM     39  C   UNL     1       9.906   0.499  22.210  0.00  0.00    +0.011 C 
BRANCH  39  40
ATOM     40  C   UNL     1       9.277   1.799  21.713  0.00  0.00    +0.001 C 
BRANCH  40  41
ATOM     41  C   UNL     1       7.756   1.691  21.700  0.00  0.00    +0.000 C 
BRANCH  41  42
ATOM     42  C   UNL     1       7.110   3.058  21.915  0.00  0.00    +0.000 C 
BRANCH  42  43
ATOM     43  C   UNL     1       5.660   2.906  22.361  0.00  0.00    +0.000 C 
BRANCH  43  44
ATOM     44  C   UNL     1       5.150   4.193  23.000  0.00  0.00    -0.000 C 
BRANCH  44  45
ATOM     45  C   UNL     1       4.210   3.888  24.162  0.00  0.00    -0.000 C 
BRANCH  45  46
ATOM     46  C   UNL     1       4.246   5.007  25.199  0.00  0.00    -0.000 C 
BRANCH  46  47
ATOM     47  C   UNL     1       3.921   4.472  26.591  0.00  0.00    -0.000 C 
BRANCH  47  48
ATOM     48  C   UNL     1       5.114   4.637  27.528  0.00  0.00    -0.000 C 
BRANCH  48  49
ATOM     49  C   UNL     1       5.358   3.365  28.337  0.00  0.00    -0.000 C 
BRANCH  49  50
ATOM     50  C   UNL     1       6.727   3.403  29.014  0.00  0.00    -0.000 C 
BRANCH  50  51
ATOM     51  C   UNL     1       7.142   2.017  29.500  0.00  0.00    -0.003 C 
ATOM     52  C   UNL     1       5.935   1.205  29.943  0.00  0.00    +0.004 C 
ENDBRANCH  50  51
ENDBRANCH  49  50
ENDBRANCH  48  49
ENDBRANCH  47  48
ENDBRANCH  46  47
ENDBRANCH  45  46
ENDBRANCH  44  45
ENDBRANCH  43  44
ENDBRANCH  42  43
ENDBRANCH  41  42
ENDBRANCH  40  41
ENDBRANCH  39  40
ENDBRANCH  38  39
ENDBRANCH  36  38
ENDBRANCH  35  36
ENDBRANCH   1  35
TORSDOF 43
ENDMDL
