MODEL 1
REMARK VINA RESULT:      -3.8      0.000      0.000
REMARK  Name = 
REMARK  2 active torsions:
REMARK  status: ('A' for Active; 'I' for Inactive)
REMARK    1  A    between atoms: O_1  and  C_2
REMARK    2  A    between atoms: C_2  and  CA_4
REMARK                            x       y       z     vdW  Elec       q    Type
REMARK                         _______ _______ _______ _____ _____    ______ ____
ROOT
ATOM      1  CA  PRO A   1       9.039   1.163  23.331  0.00  0.00    +0.163 C 
ATOM      2  N   PRO A   1       8.718  -0.219  23.816  0.00  0.00    -0.304 NA
ATOM      3  H   PRO A   1       7.760  -0.216  24.180  0.00  0.00    +0.123 HD
ATOM      4  CD  PRO A   1       9.628  -0.508  24.938  0.00  0.00    +0.082 C 
ATOM      5  CG  PRO A   1      10.776   0.470  24.811  0.00  0.00    +0.017 C 
ATOM      6  CB  PRO A   1      10.109   1.712  24.260  0.00  0.00    +0.031 C 
ENDROOT
BRANCH   1   7
ATOM      7  C   PRO A   1       9.549   1.066  21.882  0.00  0.00    +0.322 C 
ATOM      8  OXT PRO A   1       9.432   0.090  21.159  0.00  0.00    -0.249 OA
BRANCH   7   9
ATOM      9  O   PRO A   1      10.161   2.216  21.493  0.00  0.00    -0.480 OA
ATOM     10  H   PRO A   1       9.681   2.503  20.676  0.00  0.00    +0.295 HD
ENDBRANCH   7   9
ENDBRANCH   1   7
TORSDOF 2
ENDMDL
MODEL 2
REMARK VINA RESULT:      -3.7      2.004      2.807
REMARK  Name = 
REMARK  2 active torsions:
REMARK  status: ('A' for Active; 'I' for Inactive)
REMARK    1  A    between atoms: O_1  and  C_2
REMARK    2  A    between atoms: C_2  and  CA_4
REMARK                            x       y       z     vdW  Elec       q    Type
REMARK                         _______ _______ _______ _____ _____    ______ ____
ROOT
ATOM      1  CA  PRO A   1       8.854  -0.202  22.747  0.00  0.00    +0.163 C 
ATOM      2  N   PRO A   1       9.168   0.589  23.982  0.00  0.00    -0.304 NA
ATOM      3  H   PRO A   1       8.297   0.735  24.499  0.00  0.00    +0.123 HD
ATOM      4  CD  PRO A   1       9.658   1.907  23.539  0.00  0.00    +0.082 C 
ATOM      5  CG  PRO A   1      10.082   1.735  22.097  0.00  0.00    +0.017 C 
ATOM      6  CB  PRO A   1       9.090   0.722  21.565  0.00  0.00    +0.031 C 
ENDROOT
BRANCH   1   7
ATOM      7  C   PRO A   1       9.787  -1.425  22.701  0.00  0.00    +0.322 C 
ATOM      8  OXT PRO A   1      10.079  -2.125  23.657  0.00  0.00    -0.249 OA
BRANCH   7   9
ATOM      9  O   PRO A   1      10.262  -1.639  21.445  0.00  0.00    -0.480 OA
ATOM     10  H   PRO A   1       9.496  -2.005  20.935  0.00  0.00    +0.295 HD
ENDBRANCH   7   9
ENDBRANCH   1   7
TORSDOF 2
ENDMDL
MODEL 3
REMARK VINA RESULT:      -3.6      1.763      2.346
REMARK  Name = 
REMARK  2 active torsions:
REMARK  status: ('A' for Active; 'I' for Inactive)
REMARK    1  A    between atoms: O_1  and  C_2
REMARK    2  A    between atoms: C_2  and  CA_4
REMARK                            x       y       z     vdW  Elec       q    Type
REMARK                         _______ _______ _______ _____ _____    ______ ____
ROOT
ATOM      1  CA  PRO A   1       9.272   0.624  23.238  0.00  0.00    +0.163 C 
ATOM      2  N   PRO A   1       8.641   0.102  21.981  0.00  0.00    -0.304 NA
ATOM      3  H   PRO A   1       7.630   0.044  22.131  0.00  0.00    +0.123 HD
ATOM      4  CD  PRO A   1       9.149  -1.266  21.776  0.00  0.00    +0.082 C 
ATOM      5  CG  PRO A   1      10.407  -1.376  22.609  0.00  0.00    +0.017 C 
ATOM      6  CB  PRO A   1      10.099  -0.513  23.814  0.00  0.00    +0.031 C 
ENDROOT
BRANCH   1   7
ATOM      7  C   PRO A   1      10.152   1.834  22.877  0.00  0.00    +0.322 C 
ATOM      8  OXT PRO A   1      10.850   2.455  23.661  0.00  0.00    -0.249 OA
BRANCH   7   9
ATOM      9  O   PRO A   1      10.056   2.140  21.556  0.00  0.00    -0.480 OA
ATOM     10  H   PRO A   1      10.930   2.540  21.317  0.00  0.00    +0.295 HD
ENDBRANCH   7   9
ENDBRANCH   1   7
TORSDOF 2
ENDMDL
MODEL 4
REMARK VINA RESULT:      -3.5      2.332      3.130
REMARK  Name = 
REMARK  2 active torsions:
REMARK  status: ('A' for Active; 'I' for Inactive)
REMARK    1  A    between atoms: O_1  and  C_2
REMARK    2  A    between atoms: C_2  and  CA_4
REMARK                            x       y       z     vdW  Elec       q    Type
REMARK                         _______ _______ _______ _____ _____    ______ ____
ROOT
ATOM      1  CA  PRO A   1      10.499   1.163  23.386  0.00  0.00    +0.163 C 
ATOM      2  N   PRO A   1      10.418  -0.328  23.247  0.00  0.00    -0.304 NA
ATOM      3  H   PRO A   1      11.371  -0.702  23.250  0.00  0.00    +0.123 HD
ATOM      4  CD  PRO A   1       9.824  -0.610  21.928  0.00  0.00    +0.082 C 
ATOM      5  CG  PRO A   1       9.127   0.664  21.500  0.00  0.00    +0.017 C 
ATOM      6  CB  PRO A   1      10.015   1.749  22.071  0.00  0.00    +0.031 C 
ENDROOT
BRANCH   1   7
ATOM      7  C   PRO A   1       9.599   1.593  24.559  0.00  0.00    +0.322 C 
ATOM      8  OXT PRO A   1       9.006   2.656  24.638  0.00  0.00    -0.249 OA
BRANCH   7   9
ATOM      9  O   PRO A   1       9.545   0.633  25.520  0.00  0.00    -0.480 OA
ATOM     10  H   PRO A   1       8.789   0.894  26.106  0.00  0.00    +0.295 HD
ENDBRANCH   7   9
ENDBRANCH   1   7
TORSDOF 2
ENDMDL
MODEL 5
REMARK VINA RESULT:      -3.5      2.007      2.746
REMARK  Name = 
REMARK  2 active torsions:
REMARK  status: ('A' for Active; 'I' for Inactive)
REMARK    1  A    between atoms: O_1  and  C_2
REMARK    2  A    between atoms: C_2  and  CA_4
REMARK                            x       y       z     vdW  Elec       q    Type
REMARK                         _______ _______ _______ _____ _____    ______ ____
ROOT
ATOM      1  CA  PRO A   1      10.582  -0.207  23.355  0.00  0.00    +0.163 C 
ATOM      2  N   PRO A   1       9.912   0.798  22.464  0.00  0.00    -0.304 NA
ATOM      3  H   PRO A   1      10.615   1.484  22.172  0.00  0.00    +0.123 HD
ATOM      4  CD  PRO A   1       8.907   1.500  23.281  0.00  0.00    +0.082 C 
ATOM      5  CG  PRO A   1       8.646   0.614  24.480  0.00  0.00    +0.017 C 
ATOM      6  CB  PRO A   1       9.999  -0.014  24.744  0.00  0.00    +0.031 C 
ENDROOT
BRANCH   1   7
ATOM      7  C   PRO A   1      10.284  -1.615  22.810  0.00  0.00    +0.322 C 
ATOM      8  OXT PRO A   1      10.234  -2.633  23.481  0.00  0.00    -0.249 OA
BRANCH   7   9
ATOM      9  O   PRO A   1      10.084  -1.595  21.465  0.00  0.00    -0.480 OA
ATOM     10  H   PRO A   1       9.103  -1.673  21.347  0.00  0.00    +0.295 HD
ENDBRANCH   7   9
ENDBRANCH   1   7
TORSDOF 2
ENDMDL
MODEL 6
REMARK VINA RESULT:      -3.5      5.606      6.631
REMARK  Name = 
REMARK  2 active torsions:
REMARK  status: ('A' for Active; 'I' for Inactive)
REMARK    1  A    between atoms: O_1  and  C_2
REMARK    2  A    between atoms: C_2  and  CA_4
REMARK                            x       y       z     vdW  Elec       q    Type
REMARK                         _______ _______ _______ _____ _____    ______ ____
ROOT
ATOM      1  CA  PRO A   1       7.704  -4.288  24.825  0.00  0.00    +0.163 C 
ATOM      2  N   PRO A   1       8.183  -3.254  23.849  0.00  0.00    -0.304 NA
ATOM      3  H   PRO A   1       7.801  -2.347  24.131  0.00  0.00    +0.123 HD
ATOM      4  CD  PRO A   1       7.610  -3.598  22.536  0.00  0.00    +0.082 C 
ATOM      5  CG  PRO A   1       7.205  -5.054  22.622  0.00  0.00    +0.017 C 
ATOM      6  CB  PRO A   1       6.760  -5.201  24.062  0.00  0.00    +0.031 C 
ENDROOT
BRANCH   1   7
ATOM      7  C   PRO A   1       8.925  -5.059  25.358  0.00  0.00    +0.322 C 
ATOM      8  OXT PRO A   1      10.061  -4.963  24.925  0.00  0.00    -0.249 OA
BRANCH   7   9
ATOM      9  O   PRO A   1       8.583  -5.880  26.385  0.00  0.00    -0.480 OA
ATOM     10  H   PRO A   1       7.617  -5.720  26.537  0.00  0.00    +0.295 HD
ENDBRANCH   7   9
ENDBRANCH   1   7
TORSDOF 2
ENDMDL
MODEL 7
REMARK VINA RESULT:      -3.5      2.728      3.570
REMARK  Name = 
REMARK  2 active torsions:
REMARK  status: ('A' for Active; 'I' for Inactive)
REMARK    1  A    between atoms: O_1  and  C_2
REMARK    2  A    between atoms: C_2  and  CA_4
REMARK                            x       y       z     vdW  Elec       q    Type
REMARK                         _______ _______ _______ _____ _____    ______ ____
ROOT
ATOM      1  CA  PRO A   1      10.209  -1.511  22.543  0.00  0.00    +0.163 C 
ATOM      2  N   PRO A   1       9.671  -0.913  21.277  0.00  0.00    -0.304 NA
ATOM      3  H   PRO A   1      10.381  -1.018  20.546  0.00  0.00    +0.123 HD
ATOM      4  CD  PRO A   1       9.483   0.528  21.523  0.00  0.00    +0.082 C 
ATOM      5  CG  PRO A   1       9.447   0.696  23.027  0.00  0.00    +0.017 C 
ATOM      6  CB  PRO A   1      10.415  -0.361  23.514  0.00  0.00    +0.031 C 
ENDROOT
BRANCH   1   7
ATOM      7  C   PRO A   1       9.182  -2.524  23.079  0.00  0.00    +0.322 C 
ATOM      8  OXT PRO A   1       8.137  -2.826  22.527  0.00  0.00    -0.249 OA
BRANCH   7   9
ATOM      9  O   PRO A   1       9.580  -3.051  24.268  0.00  0.00    -0.480 OA
ATOM     10  H   PRO A   1      10.416  -3.544  24.068  0.00  0.00    +0.295 HD
ENDBRANCH   7   9
ENDBRANCH   1   7
TORSDOF 2
ENDMDL
MODEL 8
REMARK VINA RESULT:      -3.4      2.021      2.451
REMARK  Name = 
REMARK  2 active torsions:
REMARK  status: ('A' for Active; 'I' for Inactive)
REMARK    1  A    between atoms: O_1  and  C_2
REMARK    2  A    between atoms: C_2  and  CA_4
REMARK                            x       y       z     vdW  Elec       q    Type
REMARK                         _______ _______ _______ _____ _____    ______ ____
ROOT
ATOM      1  CA  PRO A   1       9.820   0.969  22.045  0.00  0.00    +0.163 C 
ATOM      2  N   PRO A   1      10.151   2.427  21.921  0.00  0.00    -0.304 NA
ATOM      3  H   PRO A   1      10.810   2.540  21.145  0.00  0.00    +0.123 HD
ATOM      4  CD  PRO A   1      10.839   2.824  23.162  0.00  0.00    +0.082 C 
ATOM      5  CG  PRO A   1      10.497   1.766  24.189  0.00  0.00    +0.017 C 
ATOM      6  CB  PRO A   1      10.413   0.500  23.362  0.00  0.00    +0.031 C 
ENDROOT
BRANCH   1   7
ATOM      7  C   PRO A   1       8.289   0.813  22.030  0.00  0.00    +0.322 C 
ATOM      8  OXT PRO A   1       7.672  -0.128  22.502  0.00  0.00    -0.249 OA
BRANCH   7   9
ATOM      9  O   PRO A   1       7.689   1.866  21.413  0.00  0.00    -0.480 OA
ATOM     10  H   PRO A   1       7.388   2.461  22.146  0.00  0.00    +0.295 HD
ENDBRANCH   7   9
ENDBRANCH   1   7
TORSDOF 2
ENDMDL
MODEL 9
REMARK VINA RESULT:      -3.3      2.937      3.726
REMARK  Name = 
REMARK  2 active torsions:
REMARK  status: ('A' for Active; 'I' for Inactive)
REMARK    1  A    between atoms: O_1  and  C_2
REMARK    2  A    between atoms: C_2  and  CA_4
REMARK                            x       y       z     vdW  Elec       q    Type
REMARK                         _______ _______ _______ _____ _____    ______ ____
ROOT
ATOM      1  CA  PRO A   1       9.900   3.129  23.741  0.00  0.00    +0.163 C 
ATOM      2  N   PRO A   1      11.130   3.841  23.261  0.00  0.00    -0.304 NA
ATOM      3  H   PRO A   1      11.933   3.477  23.781  0.00  0.00    +0.123 HD
ATOM      4  CD  PRO A   1      10.971   5.264  23.610  0.00  0.00    +0.082 C 
ATOM      5  CG  PRO A   1       9.492   5.476  23.849  0.00  0.00    +0.017 C 
ATOM      6  CB  PRO A   1       9.051   4.163  24.461  0.00  0.00    +0.031 C 
ENDROOT
BRANCH   1   7
ATOM      7  C   PRO A   1       9.164   2.549  22.520  0.00  0.00    +0.322 C 
ATOM      8  OXT PRO A   1       7.955   2.425  22.420  0.00  0.00    -0.249 OA
BRANCH   7   9
ATOM      9  O   PRO A   1      10.037   2.179  21.545  0.00  0.00    -0.480 OA
ATOM     10  H   PRO A   1       9.472   1.865  20.794  0.00  0.00    +0.295 HD
ENDBRANCH   7   9
ENDBRANCH   1   7
TORSDOF 2
ENDMDL
