MODEL 1
REMARK VINA RESULT:      -4.4      0.000      0.000
REMARK  Name = 
REMARK  4 active torsions:
REMARK  status: ('A' for Active; 'I' for Inactive)
REMARK    1  A    between atoms: C_2  and  C_3
REMARK    2  A    between atoms: C_3  and  C_4
REMARK    3  A    between atoms: C_4  and  C_5
REMARK    4  A    between atoms: C_5  and  C_6
REMARK                            x       y       z     vdW  Elec       q    Type
REMARK                         _______ _______ _______ _____ _____    ______ ____
ROOT
ATOM      1  C   UNL     1      10.351   2.266  23.487  0.00  0.00    -0.009 C 
ATOM      2  C   UNL     1       9.816   3.693  23.712  0.00  0.00    +0.018 C 
ATOM      3  C   UNL     1       8.336   3.844  23.350  0.00  0.00    +0.081 C 
ATOM      4  N   UNL     1       8.061   3.386  21.991  0.00  0.00    -0.316 NA
ATOM      5  H   UNL     1       7.064   3.482  21.795  0.00  0.00    +0.122 HD
ATOM      6  C   UNL     1       8.459   1.994  21.796  0.00  0.00    +0.081 C 
ATOM      7  C   UNL     1       9.950   1.804  22.076  0.00  0.00    +0.018 C 
ENDROOT
BRANCH   1   8
ATOM      8  C   UNL     1       9.901   1.304  24.609  0.00  0.00    +0.004 C 
BRANCH   8   9
ATOM      9  C   UNL     1      10.595  -0.063  24.524  0.00  0.00    +0.007 C 
BRANCH   9  10
ATOM     10  C   UNL     1       9.600  -1.213  24.410  0.00  0.00    +0.071 C 
BRANCH  10  12
ATOM     11  O   UNL     1      10.667  -1.811  22.333  0.00  0.00    -0.301 OA
ATOM     12  C   UNL     1       9.647  -1.783  23.017  0.00  0.00    +0.223 C 
ENDBRANCH  10  12
ENDBRANCH   9  10
ENDBRANCH   8   9
ENDBRANCH   1   8
TORSDOF 4
ENDMDL
MODEL 2
REMARK VINA RESULT:      -4.3      1.839      2.627
REMARK  Name = 
REMARK  4 active torsions:
REMARK  status: ('A' for Active; 'I' for Inactive)
REMARK    1  A    between atoms: C_2  and  C_3
REMARK    2  A    between atoms: C_3  and  C_4
REMARK    3  A    between atoms: C_4  and  C_5
REMARK    4  A    between atoms: C_5  and  C_6
REMARK                            x       y       z     vdW  Elec       q    Type
REMARK                         _______ _______ _______ _____ _____    ______ ____
ROOT
ATOM      1  C   UNL     1       8.849   1.045  24.208  0.00  0.00    -0.009 C 
ATOM      2  C   UNL     1       8.369   0.693  22.788  0.00  0.00    +0.018 C 
ATOM      3  C   UNL     1       9.449   0.891  21.722  0.00  0.00    +0.081 C 
ATOM      4  N   UNL     1      10.016   2.237  21.768  0.00  0.00    -0.316 NA
ATOM      5  H   UNL     1      10.745   2.322  21.059  0.00  0.00    +0.122 HD
ATOM      6  C   UNL     1      10.580   2.543  23.081  0.00  0.00    +0.081 C 
ATOM      7  C   UNL     1       9.519   2.429  24.175  0.00  0.00    +0.018 C 
ENDROOT
BRANCH   1   8
ATOM      8  C   UNL     1       9.744  -0.066  24.801  0.00  0.00    +0.004 C 
BRANCH   8   9
ATOM      9  C   UNL     1       9.009  -1.407  24.931  0.00  0.00    +0.007 C 
BRANCH   9  10
ATOM     10  C   UNL     1       9.665  -2.510  24.107  0.00  0.00    +0.071 C 
BRANCH  10  12
ATOM     11  O   UNL     1      10.161  -4.769  24.786  0.00  0.00    -0.301 OA
ATOM     12  C   UNL     1       9.349  -3.850  24.717  0.00  0.00    +0.223 C 
ENDBRANCH  10  12
ENDBRANCH   9  10
ENDBRANCH   8   9
ENDBRANCH   1   8
TORSDOF 4
ENDMDL
MODEL 3
REMARK VINA RESULT:      -4.2      2.099      2.634
REMARK  Name = 
REMARK  4 active torsions:
REMARK  status: ('A' for Active; 'I' for Inactive)
REMARK    1  A    between atoms: C_2  and  C_3
REMARK    2  A    between atoms: C_3  and  C_4
REMARK    3  A    between atoms: C_4  and  C_5
REMARK    4  A    between atoms: C_5  and  C_6
REMARK                            x       y       z     vdW  Elec       q    Type
REMARK                         _______ _______ _______ _____ _____    ______ ____
ROOT
ATOM      1  C   UNL     1      10.176  -0.263  23.374  0.00  0.00    -0.009 C 
ATOM      2  C   UNL     1      10.806   1.089  23.760  0.00  0.00    +0.018 C 
ATOM      3  C   UNL     1      10.024   2.291  23.225  0.00  0.00    +0.081 C 
ATOM      4  N   UNL     1       9.813   2.201  21.782  0.00  0.00    -0.316 NA
ATOM      5  H   UNL     1       9.271   3.007  21.468  0.00  0.00    +0.122 HD
ATOM      6  C   UNL     1       9.112   0.973  21.412  0.00  0.00    +0.081 C 
ATOM      7  C   UNL     1       9.891  -0.262  21.863  0.00  0.00    +0.018 C 
ENDROOT
BRANCH   1   8
ATOM      8  C   UNL     1       8.938  -0.586  24.241  0.00  0.00    +0.004 C 
BRANCH   8   9
ATOM      9  C   UNL     1       8.467  -2.038  24.074  0.00  0.00    +0.007 C 
BRANCH   9  10
ATOM     10  C   UNL     1       9.613  -3.037  24.191  0.00  0.00    +0.071 C 
BRANCH  10  12
ATOM     11  O   UNL     1       9.582  -5.387  24.726  0.00  0.00    -0.301 OA
ATOM     12  C   UNL     1       9.143  -4.259  24.935  0.00  0.00    +0.223 C 
ENDBRANCH  10  12
ENDBRANCH   9  10
ENDBRANCH   8   9
ENDBRANCH   1   8
TORSDOF 4
ENDMDL
MODEL 4
REMARK VINA RESULT:      -4.0      4.597      6.934
REMARK  Name = 
REMARK  4 active torsions:
REMARK  status: ('A' for Active; 'I' for Inactive)
REMARK    1  A    between atoms: C_2  and  C_3
REMARK    2  A    between atoms: C_3  and  C_4
REMARK    3  A    between atoms: C_4  and  C_5
REMARK    4  A    between atoms: C_5  and  C_6
REMARK                            x       y       z     vdW  Elec       q    Type
REMARK                         _______ _______ _______ _____ _____    ______ ____
ROOT
ATOM      1  C   UNL     1       7.474  -4.867  23.176  0.00  0.00    -0.009 C 
ATOM      2  C   UNL     1       7.403  -5.856  21.997  0.00  0.00    +0.018 C 
ATOM      3  C   UNL     1       6.098  -5.752  21.204  0.00  0.00    +0.081 C 
ATOM      4  N   UNL     1       4.926  -5.878  22.069  0.00  0.00    -0.316 NA
ATOM      5  H   UNL     1       4.079  -5.782  21.509  0.00  0.00    +0.122 HD
ATOM      6  C   UNL     1       4.923  -4.870  23.127  0.00  0.00    +0.081 C 
ATOM      7  C   UNL     1       6.177  -4.978  23.995  0.00  0.00    +0.018 C 
ENDROOT
BRANCH   1   8
ATOM      8  C   UNL     1       7.789  -3.431  22.700  0.00  0.00    +0.004 C 
BRANCH   8   9
ATOM      9  C   UNL     1       8.322  -2.541  23.832  0.00  0.00    +0.007 C 
BRANCH   9  10
ATOM     10  C   UNL     1       9.826  -2.307  23.726  0.00  0.00    +0.071 C 
BRANCH  10  12
ATOM     11  O   UNL     1      10.022  -0.375  22.299  0.00  0.00    -0.301 OA
ATOM     12  C   UNL     1      10.135  -1.590  22.438  0.00  0.00    +0.223 C 
ENDBRANCH  10  12
ENDBRANCH   9  10
ENDBRANCH   8   9
ENDBRANCH   1   8
TORSDOF 4
ENDMDL
MODEL 5
REMARK VINA RESULT:      -3.9      6.080      7.062
REMARK  Name = 
REMARK  4 active torsions:
REMARK  status: ('A' for Active; 'I' for Inactive)
REMARK    1  A    between atoms: C_2  and  C_3
REMARK    2  A    between atoms: C_3  and  C_4
REMARK    3  A    between atoms: C_4  and  C_5
REMARK    4  A    between atoms: C_5  and  C_6
REMARK                            x       y       z     vdW  Elec       q    Type
REMARK                         _______ _______ _______ _____ _____    ______ ____
ROOT
ATOM      1  C   UNL     1       7.203  -5.007  23.386  0.00  0.00    -0.009 C 
ATOM      2  C   UNL     1       6.903  -3.557  22.963  0.00  0.00    +0.018 C 
ATOM      3  C   UNL     1       5.707  -3.442  22.015  0.00  0.00    +0.081 C 
ATOM      4  N   UNL     1       5.853  -4.310  20.850  0.00  0.00    -0.316 NA
ATOM      5  H   UNL     1       5.029  -4.222  20.255  0.00  0.00    +0.122 HD
ATOM      6  C   UNL     1       6.024  -5.710  21.234  0.00  0.00    +0.081 C 
ATOM      7  C   UNL     1       7.252  -5.889  22.127  0.00  0.00    +0.018 C 
ENDROOT
BRANCH   1   8
ATOM      8  C   UNL     1       6.209  -5.508  24.458  0.00  0.00    +0.004 C 
BRANCH   8   9
ATOM      9  C   UNL     1       6.751  -5.342  25.884  0.00  0.00    +0.007 C 
BRANCH   9  10
ATOM     10  C   UNL     1       8.275  -5.373  25.934  0.00  0.00    +0.071 C 
BRANCH  10  12
ATOM     11  O   UNL     1       8.643  -2.999  26.124  0.00  0.00    -0.301 OA
ATOM     12  C   UNL     1       8.784  -4.122  26.600  0.00  0.00    +0.223 C 
ENDBRANCH  10  12
ENDBRANCH   9  10
ENDBRANCH   8   9
ENDBRANCH   1   8
TORSDOF 4
ENDMDL
MODEL 6
REMARK VINA RESULT:      -3.8      3.079      4.758
REMARK  Name = 
REMARK  4 active torsions:
REMARK  status: ('A' for Active; 'I' for Inactive)
REMARK    1  A    between atoms: C_2  and  C_3
REMARK    2  A    between atoms: C_3  and  C_4
REMARK    3  A    between atoms: C_4  and  C_5
REMARK    4  A    between atoms: C_5  and  C_6
REMARK                            x       y       z     vdW  Elec       q    Type
REMARK                         _______ _______ _______ _____ _____    ______ ____
ROOT
ATOM      1  C   UNL     1      10.353   2.052  23.792  0.00  0.00    -0.009 C 
ATOM      2  C   UNL     1      10.196   1.967  22.262  0.00  0.00    +0.018 C 
ATOM      3  C   UNL     1       9.477   0.698  21.801  0.00  0.00    +0.081 C 
ATOM      4  N   UNL     1      10.107  -0.508  22.334  0.00  0.00    -0.316 NA
ATOM      5  H   UNL     1       9.588  -1.329  22.024  0.00  0.00    +0.122 HD
ATOM      6  C   UNL     1      10.159  -0.492  23.795  0.00  0.00    +0.081 C 
ATOM      7  C   UNL     1      10.933   0.723  24.305  0.00  0.00    +0.018 C 
ENDROOT
BRANCH   1   8
ATOM      8  C   UNL     1       9.031   2.461  24.480  0.00  0.00    +0.004 C 
BRANCH   8   9
ATOM      9  C   UNL     1       8.517   3.827  24.002  0.00  0.00    +0.007 C 
BRANCH   9  10
ATOM     10  C   UNL     1       8.850   4.947  24.982  0.00  0.00    +0.071 C 
BRANCH  10  12
ATOM     11  O   UNL     1       9.735   6.418  23.290  0.00  0.00    -0.301 OA
ATOM     12  C   UNL     1       9.883   5.859  24.373  0.00  0.00    +0.223 C 
ENDBRANCH  10  12
ENDBRANCH   9  10
ENDBRANCH   8   9
ENDBRANCH   1   8
TORSDOF 4
ENDMDL
MODEL 7
REMARK VINA RESULT:      -3.8      1.553      2.439
REMARK  Name = 
REMARK  4 active torsions:
REMARK  status: ('A' for Active; 'I' for Inactive)
REMARK    1  A    between atoms: C_2  and  C_3
REMARK    2  A    between atoms: C_3  and  C_4
REMARK    3  A    between atoms: C_4  and  C_5
REMARK    4  A    between atoms: C_5  and  C_6
REMARK                            x       y       z     vdW  Elec       q    Type
REMARK                         _______ _______ _______ _____ _____    ______ ____
ROOT
ATOM      1  C   UNL     1       8.850   1.205  21.571  0.00  0.00    -0.009 C 
ATOM      2  C   UNL     1      10.180   1.782  22.088  0.00  0.00    +0.018 C 
ATOM      3  C   UNL     1      10.088   2.314  23.520  0.00  0.00    +0.081 C 
ATOM      4  N   UNL     1       9.001   3.279  23.672  0.00  0.00    -0.316 NA
ATOM      5  H   UNL     1       8.958   3.593  24.642  0.00  0.00    +0.122 HD
ATOM      6  C   UNL     1       7.711   2.706  23.292  0.00  0.00    +0.081 C 
ATOM      7  C   UNL     1       7.729   2.223  21.842  0.00  0.00    +0.018 C 
ENDROOT
BRANCH   1   8
ATOM      8  C   UNL     1       8.569  -0.198  22.154  0.00  0.00    +0.004 C 
BRANCH   8   9
ATOM      9  C   UNL     1       9.791  -1.125  22.069  0.00  0.00    +0.007 C 
BRANCH   9  10
ATOM     10  C   UNL     1      10.108  -1.791  23.404  0.00  0.00    +0.071 C 
BRANCH  10  12
ATOM     11  O   UNL     1       9.598  -0.614  25.444  0.00  0.00    -0.301 OA
ATOM     12  C   UNL     1       9.195  -1.243  24.470  0.00  0.00    +0.223 C 
ENDBRANCH  10  12
ENDBRANCH   9  10
ENDBRANCH   8   9
ENDBRANCH   1   8
TORSDOF 4
ENDMDL
MODEL 8
REMARK VINA RESULT:      -3.7      4.542      6.856
REMARK  Name = 
REMARK  4 active torsions:
REMARK  status: ('A' for Active; 'I' for Inactive)
REMARK    1  A    between atoms: C_2  and  C_3
REMARK    2  A    between atoms: C_3  and  C_4
REMARK    3  A    between atoms: C_4  and  C_5
REMARK    4  A    between atoms: C_5  and  C_6
REMARK                            x       y       z     vdW  Elec       q    Type
REMARK                         _______ _______ _______ _____ _____    ______ ____
ROOT
ATOM      1  C   UNL     1       8.410  -4.450  24.165  0.00  0.00    -0.009 C 
ATOM      2  C   UNL     1       7.112  -5.167  24.580  0.00  0.00    +0.018 C 
ATOM      3  C   UNL     1       6.844  -5.103  26.086  0.00  0.00    +0.081 C 
ATOM      4  N   UNL     1       7.984  -5.588  26.861  0.00  0.00    -0.316 NA
ATOM      5  H   UNL     1       7.776  -5.509  27.856  0.00  0.00    +0.122 HD
ATOM      6  C   UNL     1       9.202  -4.838  26.560  0.00  0.00    +0.081 C 
ATOM      7  C   UNL     1       9.553  -4.931  25.075  0.00  0.00    +0.018 C 
ENDROOT
BRANCH   1   8
ATOM      8  C   UNL     1       8.235  -2.915  24.145  0.00  0.00    +0.004 C 
BRANCH   8   9
ATOM      9  C   UNL     1       9.574  -2.172  24.035  0.00  0.00    +0.007 C 
BRANCH   9  10
ATOM     10  C   UNL     1       9.531  -0.799  24.697  0.00  0.00    +0.071 C 
BRANCH  10  12
ATOM     11  O   UNL     1       8.998  -0.969  27.041  0.00  0.00    -0.301 OA
ATOM     12  C   UNL     1       8.606  -0.840  25.884  0.00  0.00    +0.223 C 
ENDBRANCH  10  12
ENDBRANCH   9  10
ENDBRANCH   8   9
ENDBRANCH   1   8
TORSDOF 4
ENDMDL
MODEL 9
REMARK VINA RESULT:      -3.7      1.987      2.205
REMARK  Name = 
REMARK  4 active torsions:
REMARK  status: ('A' for Active; 'I' for Inactive)
REMARK    1  A    between atoms: C_2  and  C_3
REMARK    2  A    between atoms: C_3  and  C_4
REMARK    3  A    between atoms: C_4  and  C_5
REMARK    4  A    between atoms: C_5  and  C_6
REMARK                            x       y       z     vdW  Elec       q    Type
REMARK                         _______ _______ _______ _____ _____    ______ ____
ROOT
ATOM      1  C   UNL     1      10.487   0.840  23.529  0.00  0.00    -0.009 C 
ATOM      2  C   UNL     1      10.480   2.377  23.621  0.00  0.00    +0.018 C 
ATOM      3  C   UNL     1       9.172   3.003  23.132  0.00  0.00    +0.081 C 
ATOM      4  N   UNL     1       8.827   2.555  21.785  0.00  0.00    -0.316 NA
ATOM      5  H   UNL     1       7.942   2.976  21.503  0.00  0.00    +0.122 HD
ATOM      6  C   UNL     1       8.718   1.100  21.708  0.00  0.00    +0.081 C 
ATOM      7  C   UNL     1      10.027   0.427  22.120  0.00  0.00    +0.018 C 
ENDROOT
BRANCH   1   8
ATOM      8  C   UNL     1       9.665   0.194  24.666  0.00  0.00    +0.004 C 
BRANCH   8   9
ATOM      9  C   UNL     1       9.487  -1.319  24.477  0.00  0.00    +0.007 C 
BRANCH   9  10
ATOM     10  C   UNL     1       8.030  -1.752  24.605  0.00  0.00    +0.071 C 
BRANCH  10  12
ATOM     11  O   UNL     1       6.125  -0.355  24.129  0.00  0.00    -0.301 OA
ATOM     12  C   UNL     1       7.156  -0.537  24.771  0.00  0.00    +0.223 C 
ENDBRANCH  10  12
ENDBRANCH   9  10
ENDBRANCH   8   9
ENDBRANCH   1   8
TORSDOF 4
ENDMDL
