MODEL 1
REMARK VINA RESULT:      -6.9      0.000      0.000
REMARK  Name = 
REMARK  5 active torsions:
REMARK  status: ('A' for Active; 'I' for Inactive)
REMARK    1  A    between atoms: O_1  and  C_2
REMARK    2  A    between atoms: C_2  and  CA_4
REMARK    3  A    between atoms: CA_4  and  N_5
REMARK    4  A    between atoms: C_6  and  CA_8
REMARK    5  A    between atoms: C_9  and  O_10
REMARK                            x       y       z     vdW  Elec       q    Type
REMARK                         _______ _______ _______ _____ _____    ______ ____
ROOT
ATOM      1  CA  UNL     1       9.670   2.659  23.751  0.00  0.00    +0.169 A 
ATOM      2  N   UNL     1       9.009   2.318  24.885  0.00  0.00    -0.226 NA
ATOM      3  C   UNL     1       8.514   1.059  24.914  0.00  0.00    +0.138 A 
ATOM      4 CL   UNL     1       7.694   0.735  26.397  0.00  0.00    -0.061 Cl
ATOM      5  C   UNL     1       8.619   0.108  23.878  0.00  0.00    +0.022 A 
ATOM      6  C   UNL     1       9.327   0.511  22.721  0.00  0.00    +0.029 A 
ATOM      7  C   UNL     1       9.459  -0.398  21.651  0.00  0.00    +0.012 A 
ATOM      8  C   UNL     1       8.902  -1.674  21.707  0.00  0.00    +0.001 A 
ATOM      9  C   UNL     1       8.201  -2.072  22.837  0.00  0.00    +0.001 A 
ATOM     10  C   UNL     1       8.063  -1.195  23.914  0.00  0.00    +0.011 A 
ATOM     11  C   UNL     1       9.861   1.809  22.662  0.00  0.00    +0.155 A 
ENDROOT
BRANCH   1  14
ATOM     12  N   UNL     1      11.413   4.269  23.228  0.00  0.00    -0.299 N 
ATOM     13  H   UNL     1      11.889   3.464  22.822  0.00  0.00    +0.150 HD
ATOM     14  C   UNL     1      10.127   4.080  23.689  0.00  0.00    +0.267 C 
ATOM     15  O   UNL     1       9.404   4.989  24.083  0.00  0.00    -0.268 OA
BRANCH  12  16
ATOM     16  CA  UNL     1      12.008   5.600  23.131  0.00  0.00    +0.225 C 
BRANCH  16  17
ATOM     17  C   UNL     1      13.429   5.555  22.573  0.00  0.00    +0.322 C 
ATOM     18  OXT UNL     1      13.757   6.031  21.496  0.00  0.00    -0.249 OA
BRANCH  17  19
ATOM     19  O   UNL     1      14.305   4.891  23.369  0.00  0.00    -0.480 OA
ATOM     20  H   UNL     1      15.220   5.087  23.081  0.00  0.00    +0.295 HD
ENDBRANCH  17  19
ENDBRANCH  16  17
ENDBRANCH  12  16
ENDBRANCH   1  14
BRANCH  11  21
ATOM     21  O   UNL     1      10.527   2.196  21.524  0.00  0.00    -0.504 OA
ATOM     22  H   UNL     1      10.897   1.402  21.073  0.00  0.00    +0.292 HD
ENDBRANCH  11  21
TORSDOF 5
ENDMDL
MODEL 2
REMARK VINA RESULT:      -6.6      4.370      7.613
REMARK  Name = 
REMARK  5 active torsions:
REMARK  status: ('A' for Active; 'I' for Inactive)
REMARK    1  A    between atoms: O_1  and  C_2
REMARK    2  A    between atoms: C_2  and  CA_4
REMARK    3  A    between atoms: CA_4  and  N_5
REMARK    4  A    between atoms: C_6  and  CA_8
REMARK    5  A    between atoms: C_9  and  O_10
REMARK                            x       y       z     vdW  Elec       q    Type
REMARK                         _______ _______ _______ _____ _____    ______ ____
ROOT
ATOM      1  CA  UNL     1       8.579  -2.238  23.740  0.00  0.00    +0.169 A 
ATOM      2  N   UNL     1       8.200  -1.794  24.964  0.00  0.00    -0.226 NA
ATOM      3  C   UNL     1       8.413  -0.478  25.196  0.00  0.00    +0.138 A 
ATOM      4 CL   UNL     1       7.896  -0.024  26.778  0.00  0.00    -0.061 Cl
ATOM      5  C   UNL     1       8.996   0.435  24.294  0.00  0.00    +0.022 A 
ATOM      6  C   UNL     1       9.365  -0.078  23.027  0.00  0.00    +0.029 A 
ATOM      7  C   UNL     1       9.957   0.789  22.085  0.00  0.00    +0.012 A 
ATOM      8  C   UNL     1      10.193   2.130  22.380  0.00  0.00    +0.001 A 
ATOM      9  C   UNL     1       9.839   2.638  23.622  0.00  0.00    +0.001 A 
ATOM     10  C   UNL     1       9.243   1.803  24.569  0.00  0.00    +0.011 A 
ATOM     11  C   UNL     1       9.149  -1.438  22.749  0.00  0.00    +0.155 A 
ENDROOT
BRANCH   1  14
ATOM     12  N   UNL     1       7.509  -4.081  22.572  0.00  0.00    -0.299 N 
ATOM     13  H   UNL     1       7.124  -3.344  21.981  0.00  0.00    +0.150 HD
ATOM     14  C   UNL     1       8.431  -3.710  23.528  0.00  0.00    +0.267 C 
ATOM     15  O   UNL     1       9.058  -4.509  24.216  0.00  0.00    -0.268 OA
BRANCH  12  16
ATOM     16  CA  UNL     1       7.237  -5.484  22.268  0.00  0.00    +0.225 C 
BRANCH  16  17
ATOM     17  C   UNL     1       6.007  -5.651  21.377  0.00  0.00    +0.322 C 
ATOM     18  OXT UNL     1       6.002  -5.447  20.172  0.00  0.00    -0.249 OA
BRANCH  17  19
ATOM     19  O   UNL     1       4.889  -6.011  22.057  0.00  0.00    -0.480 OA
ATOM     20  H   UNL     1       4.098  -5.772  21.532  0.00  0.00    +0.295 HD
ENDBRANCH  17  19
ENDBRANCH  16  17
ENDBRANCH  12  16
ENDBRANCH   1  14
BRANCH  11  21
ATOM     21  O   UNL     1       9.532  -1.930  21.525  0.00  0.00    -0.504 OA
ATOM     22  H   UNL     1       9.484  -2.913  21.536  0.00  0.00    +0.292 HD
ENDBRANCH  11  21
TORSDOF 5
ENDMDL
MODEL 3
REMARK VINA RESULT:      -6.5      4.632      6.733
REMARK  Name = 
REMARK  5 active torsions:
REMARK  status: ('A' for Active; 'I' for Inactive)
REMARK    1  A    between atoms: O_1  and  C_2
REMARK    2  A    between atoms: C_2  and  CA_4
REMARK    3  A    between atoms: CA_4  and  N_5
REMARK    4  A    between atoms: C_6  and  CA_8
REMARK    5  A    between atoms: C_9  and  O_10
REMARK                            x       y       z     vdW  Elec       q    Type
REMARK                         _______ _______ _______ _____ _____    ______ ____
ROOT
ATOM      1  CA  UNL     1       7.933  -3.337  23.275  0.00  0.00    +0.169 A 
ATOM      2  N   UNL     1       7.497  -3.954  22.150  0.00  0.00    -0.226 NA
ATOM      3  C   UNL     1       6.582  -4.933  22.340  0.00  0.00    +0.138 A 
ATOM      4 CL   UNL     1       6.100  -5.648  20.846  0.00  0.00    -0.061 Cl
ATOM      5  C   UNL     1       6.075  -5.356  23.586  0.00  0.00    +0.022 A 
ATOM      6  C   UNL     1       6.555  -4.672  24.728  0.00  0.00    +0.029 A 
ATOM      7  C   UNL     1       6.085  -5.056  26.001  0.00  0.00    +0.012 A 
ATOM      8  C   UNL     1       5.170  -6.096  26.156  0.00  0.00    +0.001 A 
ATOM      9  C   UNL     1       4.700  -6.774  25.040  0.00  0.00    +0.001 A 
ATOM     10  C   UNL     1       5.142  -6.408  23.767  0.00  0.00    +0.011 A 
ATOM     11  C   UNL     1       7.499  -3.645  24.565  0.00  0.00    +0.155 A 
ENDROOT
BRANCH   1  14
ATOM     12  N   UNL     1       8.765  -1.388  22.085  0.00  0.00    -0.299 N 
ATOM     13  H   UNL     1       7.821  -1.352  21.699  0.00  0.00    +0.150 HD
ATOM     14  C   UNL     1       9.013  -2.327  23.065  0.00  0.00    +0.267 C 
ATOM     15  O   UNL     1      10.064  -2.391  23.694  0.00  0.00    -0.268 OA
BRANCH  12  16
ATOM     16  CA  UNL     1       9.736  -0.349  21.749  0.00  0.00    +0.225 C 
BRANCH  16  17
ATOM     17  C   UNL     1       9.103   1.041  21.718  0.00  0.00    +0.322 C 
ATOM     18  OXT UNL     1       7.905   1.250  21.839  0.00  0.00    -0.249 OA
BRANCH  17  19
ATOM     19  O   UNL     1       9.995   2.039  21.498  0.00  0.00    -0.480 OA
ATOM     20  H   UNL     1      10.434   2.276  22.340  0.00  0.00    +0.295 HD
ENDBRANCH  17  19
ENDBRANCH  16  17
ENDBRANCH  12  16
ENDBRANCH   1  14
BRANCH  11  21
ATOM     21  O   UNL     1       7.975  -3.004  25.683  0.00  0.00    -0.504 OA
ATOM     22  H   UNL     1       8.186  -3.669  26.378  0.00  0.00    +0.292 HD
ENDBRANCH  11  21
TORSDOF 5
ENDMDL
MODEL 4
REMARK VINA RESULT:      -6.4      4.263      6.274
REMARK  Name = 
REMARK  5 active torsions:
REMARK  status: ('A' for Active; 'I' for Inactive)
REMARK    1  A    between atoms: O_1  and  C_2
REMARK    2  A    between atoms: C_2  and  CA_4
REMARK    3  A    between atoms: CA_4  and  N_5
REMARK    4  A    between atoms: C_6  and  CA_8
REMARK    5  A    between atoms: C_9  and  O_10
REMARK                            x       y       z     vdW  Elec       q    Type
REMARK                         _______ _______ _______ _____ _____    ______ ____
ROOT
ATOM      1  CA  UNL     1       8.549  -2.955  23.940  0.00  0.00    +0.169 A 
ATOM      2  N   UNL     1       8.088  -3.814  22.997  0.00  0.00    -0.226 NA
ATOM      3  C   UNL     1       7.209  -4.744  23.438  0.00  0.00    +0.138 A 
ATOM      4 CL   UNL     1       6.691  -5.781  22.160  0.00  0.00    -0.061 Cl
ATOM      5  C   UNL     1       6.762  -4.891  24.767  0.00  0.00    +0.022 A 
ATOM      6  C   UNL     1       7.266  -3.963  25.709  0.00  0.00    +0.029 A 
ATOM      7  C   UNL     1       6.857  -4.065  27.055  0.00  0.00    +0.012 A 
ATOM      8  C   UNL     1       5.978  -5.062  27.474  0.00  0.00    +0.001 A 
ATOM      9  C   UNL     1       5.485  -5.979  26.556  0.00  0.00    +0.001 A 
ATOM     10  C   UNL     1       5.867  -5.895  25.216  0.00  0.00    +0.011 A 
ATOM     11  C   UNL     1       8.173  -2.979  25.283  0.00  0.00    +0.155 A 
ENDROOT
BRANCH   1  14
ATOM     12  N   UNL     1       9.300  -0.661  23.655  0.00  0.00    -0.299 N 
ATOM     13  H   UNL     1       8.492  -0.436  24.236  0.00  0.00    +0.150 HD
ATOM     14  C   UNL     1       9.591  -1.996  23.465  0.00  0.00    +0.267 C 
ATOM     15  O   UNL     1      10.600  -2.397  22.894  0.00  0.00    -0.268 OA
BRANCH  12  16
ATOM     16  CA  UNL     1      10.211   0.396  23.223  0.00  0.00    +0.225 C 
BRANCH  16  17
ATOM     17  C   UNL     1       9.794   1.004  21.885  0.00  0.00    +0.322 C 
ATOM     18  OXT UNL     1       9.128   0.417  21.045  0.00  0.00    -0.249 OA
BRANCH  17  19
ATOM     19  O   UNL     1      10.271   2.259  21.686  0.00  0.00    -0.480 OA
ATOM     20  H   UNL     1      11.218   2.212  21.446  0.00  0.00    +0.295 HD
ENDBRANCH  17  19
ENDBRANCH  16  17
ENDBRANCH  12  16
ENDBRANCH   1  14
BRANCH  11  21
ATOM     21  O   UNL     1       8.674  -2.098  26.211  0.00  0.00    -0.504 OA
ATOM     22  H   UNL     1       9.001  -1.289  25.753  0.00  0.00    +0.292 HD
ENDBRANCH  11  21
TORSDOF 5
ENDMDL
MODEL 5
REMARK VINA RESULT:      -6.3      4.002      6.079
REMARK  Name = 
REMARK  5 active torsions:
REMARK  status: ('A' for Active; 'I' for Inactive)
REMARK    1  A    between atoms: O_1  and  C_2
REMARK    2  A    between atoms: C_2  and  CA_4
REMARK    3  A    between atoms: CA_4  and  N_5
REMARK    4  A    between atoms: C_6  and  CA_8
REMARK    5  A    between atoms: C_9  and  O_10
REMARK                            x       y       z     vdW  Elec       q    Type
REMARK                         _______ _______ _______ _____ _____    ______ ____
ROOT
ATOM      1  CA  UNL     1       8.474  -3.214  23.898  0.00  0.00    +0.169 A 
ATOM      2  N   UNL     1       8.654  -3.807  25.104  0.00  0.00    -0.226 NA
ATOM      3  C   UNL     1       7.676  -4.662  25.483  0.00  0.00    +0.138 A 
ATOM      4 CL   UNL     1       8.005  -5.355  27.028  0.00  0.00    -0.061 Cl
ATOM      5  C   UNL     1       6.513  -4.963  24.745  0.00  0.00    +0.022 A 
ATOM      6  C   UNL     1       6.379  -4.326  23.489  0.00  0.00    +0.029 A 
ATOM      7  C   UNL     1       5.233  -4.585  22.710  0.00  0.00    +0.012 A 
ATOM      8  C   UNL     1       4.231  -5.445  23.155  0.00  0.00    +0.001 A 
ATOM      9  C   UNL     1       4.353  -6.069  24.389  0.00  0.00    +0.001 A 
ATOM     10  C   UNL     1       5.482  -5.837  25.176  0.00  0.00    +0.011 A 
ATOM     11  C   UNL     1       7.381  -3.438  23.061  0.00  0.00    +0.155 A 
ENDROOT
BRANCH   1  14
ATOM     12  N   UNL     1       9.097  -0.884  23.599  0.00  0.00    -0.299 N 
ATOM     13  H   UNL     1       8.194  -0.697  24.036  0.00  0.00    +0.150 HD
ATOM     14  C   UNL     1       9.508  -2.199  23.533  0.00  0.00    +0.267 C 
ATOM     15  O   UNL     1      10.619  -2.546  23.146  0.00  0.00    -0.268 OA
BRANCH  12  16
ATOM     16  CA  UNL     1       9.988   0.220  23.250  0.00  0.00    +0.225 C 
BRANCH  16  17
ATOM     17  C   UNL     1       9.722   0.751  21.843  0.00  0.00    +0.322 C 
ATOM     18  OXT UNL     1       9.234   0.086  20.941  0.00  0.00    -0.249 OA
BRANCH  17  19
ATOM     19  O   UNL     1      10.121   2.035  21.662  0.00  0.00    -0.480 OA
ATOM     20  H   UNL     1      11.050   2.132  21.954  0.00  0.00    +0.295 HD
ENDBRANCH  17  19
ENDBRANCH  16  17
ENDBRANCH  12  16
ENDBRANCH   1  14
BRANCH  11  21
ATOM     21  O   UNL     1       7.229  -2.808  21.850  0.00  0.00    -0.504 OA
ATOM     22  H   UNL     1       6.979  -1.866  21.999  0.00  0.00    +0.292 HD
ENDBRANCH  11  21
TORSDOF 5
ENDMDL
MODEL 6
REMARK VINA RESULT:      -6.2      3.173      4.631
REMARK  Name = 
REMARK  5 active torsions:
REMARK  status: ('A' for Active; 'I' for Inactive)
REMARK    1  A    between atoms: O_1  and  C_2
REMARK    2  A    between atoms: C_2  and  CA_4
REMARK    3  A    between atoms: CA_4  and  N_5
REMARK    4  A    between atoms: C_6  and  CA_8
REMARK    5  A    between atoms: C_9  and  O_10
REMARK                            x       y       z     vdW  Elec       q    Type
REMARK                         _______ _______ _______ _____ _____    ______ ____
ROOT
ATOM      1  CA  UNL     1       8.556  -1.635  24.236  0.00  0.00    +0.169 A 
ATOM      2  N   UNL     1       9.240  -2.616  24.875  0.00  0.00    -0.226 NA
ATOM      3  C   UNL     1       8.945  -3.878  24.486  0.00  0.00    +0.138 A 
ATOM      4 CL   UNL     1       9.868  -5.042  25.364  0.00  0.00    -0.061 Cl
ATOM      5  C   UNL     1       7.998  -4.239  23.506  0.00  0.00    +0.022 A 
ATOM      6  C   UNL     1       7.320  -3.177  22.862  0.00  0.00    +0.029 A 
ATOM      7  C   UNL     1       6.358  -3.478  21.875  0.00  0.00    +0.012 A 
ATOM      8  C   UNL     1       6.058  -4.795  21.532  0.00  0.00    +0.001 A 
ATOM      9  C   UNL     1       6.716  -5.841  22.164  0.00  0.00    +0.001 A 
ATOM     10  C   UNL     1       7.678  -5.570  23.137  0.00  0.00    +0.011 A 
ATOM     11  C   UNL     1       7.609  -1.853  23.235  0.00  0.00    +0.155 A 
ENDROOT
BRANCH   1  14
ATOM     12  N   UNL     1       9.275   0.645  23.797  0.00  0.00    -0.299 N 
ATOM     13  H   UNL     1       9.250   0.353  22.820  0.00  0.00    +0.150 HD
ATOM     14  C   UNL     1       8.816  -0.252  24.739  0.00  0.00    +0.267 C 
ATOM     15  O   UNL     1       8.677   0.019  25.927  0.00  0.00    -0.268 OA
BRANCH  12  16
ATOM     16  CA  UNL     1       9.594   2.028  24.143  0.00  0.00    +0.225 C 
BRANCH  16  17
ATOM     17  C   UNL     1      10.478   2.694  23.090  0.00  0.00    +0.322 C 
ATOM     18  OXT UNL     1      11.306   3.558  23.338  0.00  0.00    -0.249 OA
BRANCH  17  19
ATOM     19  O   UNL     1      10.231   2.269  21.825  0.00  0.00    -0.480 OA
ATOM     20  H   UNL     1       9.390   2.656  21.510  0.00  0.00    +0.295 HD
ENDBRANCH  17  19
ENDBRANCH  16  17
ENDBRANCH  12  16
ENDBRANCH   1  14
BRANCH  11  21
ATOM     21  O   UNL     1       6.928  -0.831  22.619  0.00  0.00    -0.504 OA
ATOM     22  H   UNL     1       6.286  -1.207  21.973  0.00  0.00    +0.292 HD
ENDBRANCH  11  21
TORSDOF 5
ENDMDL
MODEL 7
REMARK VINA RESULT:      -6.0      3.619      5.385
REMARK  Name = 
REMARK  5 active torsions:
REMARK  status: ('A' for Active; 'I' for Inactive)
REMARK    1  A    between atoms: O_1  and  C_2
REMARK    2  A    between atoms: C_2  and  CA_4
REMARK    3  A    between atoms: CA_4  and  N_5
REMARK    4  A    between atoms: C_6  and  CA_8
REMARK    5  A    between atoms: C_9  and  O_10
REMARK                            x       y       z     vdW  Elec       q    Type
REMARK                         _______ _______ _______ _____ _____    ______ ____
ROOT
ATOM      1  CA  UNL     1       8.968  -2.468  23.436  0.00  0.00    +0.169 A 
ATOM      2  N   UNL     1       9.698  -3.335  24.180  0.00  0.00    -0.226 NA
ATOM      3  C   UNL     1       8.983  -4.246  24.880  0.00  0.00    +0.138 A 
ATOM      4 CL   UNL     1      10.010  -5.294  25.789  0.00  0.00    -0.061 Cl
ATOM      5  C   UNL     1       7.577  -4.349  24.904  0.00  0.00    +0.022 A 
ATOM      6  C   UNL     1       6.863  -3.427  24.102  0.00  0.00    +0.029 A 
ATOM      7  C   UNL     1       5.454  -3.480  24.091  0.00  0.00    +0.012 A 
ATOM      8  C   UNL     1       4.755  -4.412  24.856  0.00  0.00    +0.001 A 
ATOM      9  C   UNL     1       5.450  -5.315  25.649  0.00  0.00    +0.001 A 
ATOM     10  C   UNL     1       6.845  -5.290  25.672  0.00  0.00    +0.011 A 
ATOM     11  C   UNL     1       7.575  -2.473  23.356  0.00  0.00    +0.155 A 
ENDROOT
BRANCH   1  14
ATOM     12  N   UNL     1       9.261  -0.124  22.864  0.00  0.00    -0.299 N 
ATOM     13  H   UNL     1       8.502   0.024  23.529  0.00  0.00    +0.150 HD
ATOM     14  C   UNL     1       9.759  -1.406  22.746  0.00  0.00    +0.267 C 
ATOM     15  O   UNL     1      10.746  -1.693  22.078  0.00  0.00    -0.268 OA
BRANCH  12  16
ATOM     16  CA  UNL     1       9.912   1.017  22.225  0.00  0.00    +0.225 C 
BRANCH  16  17
ATOM     17  C   UNL     1      10.186   2.149  23.214  0.00  0.00    +0.322 C 
ATOM     18  OXT UNL     1       9.887   2.111  24.398  0.00  0.00    -0.249 OA
BRANCH  17  19
ATOM     19  O   UNL     1      10.760   3.239  22.646  0.00  0.00    -0.480 OA
ATOM     20  H   UNL     1      11.696   3.043  22.438  0.00  0.00    +0.295 HD
ENDBRANCH  17  19
ENDBRANCH  16  17
ENDBRANCH  12  16
ENDBRANCH   1  14
BRANCH  11  21
ATOM     21  O   UNL     1       6.870  -1.569  22.600  0.00  0.00    -0.504 OA
ATOM     22  H   UNL     1       6.078  -2.010  22.214  0.00  0.00    +0.292 HD
ENDBRANCH  11  21
TORSDOF 5
ENDMDL
MODEL 8
REMARK VINA RESULT:      -5.9      4.519      7.443
REMARK  Name = 
REMARK  5 active torsions:
REMARK  status: ('A' for Active; 'I' for Inactive)
REMARK    1  A    between atoms: O_1  and  C_2
REMARK    2  A    between atoms: C_2  and  CA_4
REMARK    3  A    between atoms: CA_4  and  N_5
REMARK    4  A    between atoms: C_6  and  CA_8
REMARK    5  A    between atoms: C_9  and  O_10
REMARK                            x       y       z     vdW  Elec       q    Type
REMARK                         _______ _______ _______ _____ _____    ______ ____
ROOT
ATOM      1  CA  UNL     1       8.500  -1.753  24.291  0.00  0.00    +0.169 A 
ATOM      2  N   UNL     1       7.969  -1.069  25.333  0.00  0.00    -0.226 NA
ATOM      3  C   UNL     1       8.153   0.272  25.303  0.00  0.00    +0.138 A 
ATOM      4 CL   UNL     1       7.439   1.039  26.674  0.00  0.00    -0.061 Cl
ATOM      5  C   UNL     1       8.847   0.986  24.306  0.00  0.00    +0.022 A 
ATOM      6  C   UNL     1       9.374   0.226  23.235  0.00  0.00    +0.029 A 
ATOM      7  C   UNL     1      10.082   0.887  22.211  0.00  0.00    +0.012 A 
ATOM      8  C   UNL     1      10.281   2.266  22.238  0.00  0.00    +0.001 A 
ATOM      9  C   UNL     1       9.772   3.017  23.289  0.00  0.00    +0.001 A 
ATOM     10  C   UNL     1       9.059   2.388  24.310  0.00  0.00    +0.011 A 
ATOM     11  C   UNL     1       9.193  -1.168  23.231  0.00  0.00    +0.155 A 
ENDROOT
BRANCH   1  14
ATOM     12  N   UNL     1       8.733  -3.790  25.595  0.00  0.00    -0.299 N 
ATOM     13  H   UNL     1       8.894  -3.149  26.372  0.00  0.00    +0.150 HD
ATOM     14  C   UNL     1       8.378  -3.239  24.382  0.00  0.00    +0.267 C 
ATOM     15  O   UNL     1       8.039  -3.902  23.407  0.00  0.00    -0.268 OA
BRANCH  12  16
ATOM     16  CA  UNL     1       8.687  -5.231  25.830  0.00  0.00    +0.225 C 
BRANCH  16  17
ATOM     17  C   UNL     1       7.402  -5.658  26.537  0.00  0.00    +0.322 C 
ATOM     18  OXT UNL     1       6.298  -5.652  26.013  0.00  0.00    -0.249 OA
BRANCH  17  19
ATOM     19  O   UNL     1       7.587  -6.009  27.835  0.00  0.00    -0.480 OA
ATOM     20  H   UNL     1       8.356  -6.611  27.903  0.00  0.00    +0.295 HD
ENDBRANCH  17  19
ENDBRANCH  16  17
ENDBRANCH  12  16
ENDBRANCH   1  14
BRANCH  11  21
ATOM     21  O   UNL     1       9.728  -1.898  22.197  0.00  0.00    -0.504 OA
ATOM     22  H   UNL     1       9.016  -2.418  21.759  0.00  0.00    +0.292 HD
ENDBRANCH  11  21
TORSDOF 5
ENDMDL
MODEL 9
REMARK VINA RESULT:      -5.8      5.623      7.886
REMARK  Name = 
REMARK  5 active torsions:
REMARK  status: ('A' for Active; 'I' for Inactive)
REMARK    1  A    between atoms: O_1  and  C_2
REMARK    2  A    between atoms: C_2  and  CA_4
REMARK    3  A    between atoms: CA_4  and  N_5
REMARK    4  A    between atoms: C_6  and  CA_8
REMARK    5  A    between atoms: C_9  and  O_10
REMARK                            x       y       z     vdW  Elec       q    Type
REMARK                         _______ _______ _______ _____ _____    ______ ____
ROOT
ATOM      1  CA  UNL     1       7.411  -5.001  24.738  0.00  0.00    +0.169 A 
ATOM      2  N   UNL     1       7.143  -5.369  26.015  0.00  0.00    -0.226 NA
ATOM      3  C   UNL     1       5.904  -5.872  26.227  0.00  0.00    +0.138 A 
ATOM      4 CL   UNL     1       5.672  -6.304  27.881  0.00  0.00    -0.061 Cl
ATOM      5  C   UNL     1       4.897  -6.023  25.252  0.00  0.00    +0.022 A 
ATOM      6  C   UNL     1       5.232  -5.632  23.933  0.00  0.00    +0.029 A 
ATOM      7  C   UNL     1       4.262  -5.757  22.917  0.00  0.00    +0.012 A 
ATOM      8  C   UNL     1       2.985  -6.245  23.187  0.00  0.00    +0.001 A 
ATOM      9  C   UNL     1       2.649  -6.623  24.480  0.00  0.00    +0.001 A 
ATOM     10  C   UNL     1       3.593  -6.519  25.502  0.00  0.00    +0.011 A 
ATOM     11  C   UNL     1       6.512  -5.115  23.676  0.00  0.00    +0.155 A 
ENDROOT
BRANCH   1  14
ATOM     12  N   UNL     1       8.710  -3.062  24.058  0.00  0.00    -0.299 N 
ATOM     13  H   UNL     1       7.803  -2.594  24.037  0.00  0.00    +0.150 HD
ATOM     14  C   UNL     1       8.743  -4.357  24.532  0.00  0.00    +0.267 C 
ATOM     15  O   UNL     1       9.779  -4.985  24.723  0.00  0.00    -0.268 OA
BRANCH  12  16
ATOM     16  CA  UNL     1       9.932  -2.310  23.787  0.00  0.00    +0.225 C 
BRANCH  16  17
ATOM     17  C   UNL     1       9.743  -1.292  22.663  0.00  0.00    +0.322 C 
ATOM     18  OXT UNL     1       9.057  -0.285  22.759  0.00  0.00    -0.249 OA
BRANCH  17  19
ATOM     19  O   UNL     1      10.378  -1.629  21.512  0.00  0.00    -0.480 OA
ATOM     20  H   UNL     1      11.341  -1.498  21.621  0.00  0.00    +0.295 HD
ENDBRANCH  17  19
ENDBRANCH  16  17
ENDBRANCH  12  16
ENDBRANCH   1  14
BRANCH  11  21
ATOM     21  O   UNL     1       6.818  -4.718  22.397  0.00  0.00    -0.504 OA
ATOM     22  H   UNL     1       7.011  -5.511  21.845  0.00  0.00    +0.292 HD
ENDBRANCH  11  21
TORSDOF 5
ENDMDL
