MODEL 1
REMARK VINA RESULT:      -7.1      0.000      0.000
REMARK  Name = 
REMARK  9 active torsions:
REMARK  status: ('A' for Active; 'I' for Inactive)
REMARK    1  A    between atoms: C_4  and  C_5
REMARK    2  A    between atoms: C_4  and  C_6
REMARK    3  A    between atoms: CA_7  and  C_27
REMARK    4  A    between atoms: CA_12  and  N_14
REMARK    5  A    between atoms: C_15  and  C_17
REMARK    6  A    between atoms: C_17  and  C_19
REMARK    7  A    between atoms: C_17  and  C_22
REMARK    8  A    between atoms: C_19  and  O_20
REMARK    9  A    between atoms: C_27  and  O_28
REMARK                            x       y       z     vdW  Elec       q    Type
REMARK                         _______ _______ _______ _____ _____    ______ ____
ROOT
ATOM      1  C   UNL     1       7.514  -1.296  22.756  0.00  0.00    +0.165 C 
ATOM      2  CA  UNL     1       7.955  -2.738  23.128  0.00  0.00    +0.190 C 
ATOM      3  C   UNL     1       9.390  -2.189  22.921  0.00  0.00    +0.240 C 
ATOM      4  O   UNL     1      10.505  -2.524  23.240  0.00  0.00    -0.273 OA
ATOM      5  N   UNL     1       8.924  -1.004  22.414  0.00  0.00    -0.271 N 
ATOM      6  CA  UNL     1       9.472   0.270  22.915  0.00  0.00    +0.201 C 
ATOM      7  C   UNL     1       8.799   0.550  24.283  0.00  0.00    +0.042 C 
ATOM      8  C   UNL     1       9.502  -0.199  25.435  0.00  0.00    +0.025 C 
ATOM      9  C   UNL     1       8.718   2.023  24.700  0.00  0.00    +0.025 C 
ATOM     10  S   UNL     1       7.092  -0.154  24.137  0.00  0.00    -0.127 S 
ENDROOT
BRANCH   2  11
ATOM     11  N   UNL     1       7.592  -3.202  24.497  0.00  0.00    -0.301 N 
ATOM     12  H   UNL     1       7.794  -2.616  25.303  0.00  0.00    +0.150 HD
ATOM     13  C   UNL     1       6.932  -4.400  24.671  0.00  0.00    +0.232 C 
ATOM     14  O   UNL     1       6.771  -5.184  23.736  0.00  0.00    -0.275 OA
BRANCH  13  15
ATOM     15  C   UNL     1       6.458  -4.699  26.087  0.00  0.00    +0.213 C 
BRANCH  15  16
ATOM     16  C   UNL     1       5.075  -5.339  26.094  0.00  0.00    -0.018 A 
ATOM     17  C   UNL     1       4.772  -6.742  25.971  0.00  0.00    +0.012 A 
ATOM     18  C   UNL     1       3.420  -7.004  25.980  0.00  0.00    +0.045 A 
ATOM     19  S   UNL     1       2.494  -5.588  26.185  0.00  0.00    -0.105 S 
ATOM     20  C   UNL     1       3.900  -4.617  26.249  0.00  0.00    +0.050 A 
ENDBRANCH  15  16
BRANCH  15  21
ATOM     21  C   UNL     1       7.516  -5.526  26.781  0.00  0.00    +0.321 C 
ATOM     22  O   UNL     1       7.422  -5.888  27.946  0.00  0.00    -0.250 OA
BRANCH  21  23
ATOM     23  O   UNL     1       8.608  -5.809  26.031  0.00  0.00    -0.480 OA
ATOM     24  H   UNL     1       9.395  -6.091  26.549  0.00  0.00    +0.295 HD
ENDBRANCH  21  23
ENDBRANCH  15  21
ENDBRANCH  13  15
ENDBRANCH   2  11
BRANCH   6  25
ATOM     25  C   UNL     1       9.251   1.340  21.831  0.00  0.00    +0.327 C 
ATOM     26  OXT UNL     1       8.195   1.538  21.249  0.00  0.00    -0.249 OA
BRANCH  25  27
ATOM     27  O   UNL     1      10.332   2.136  21.620  0.00  0.00    -0.479 OA
ATOM     28  H   UNL     1      10.094   3.077  21.752  0.00  0.00    +0.295 HD
ENDBRANCH  25  27
ENDBRANCH   6  25
TORSDOF 7
ENDMDL
MODEL 2
REMARK VINA RESULT:      -6.7      2.445      8.022
REMARK  Name = 
REMARK  9 active torsions:
REMARK  status: ('A' for Active; 'I' for Inactive)
REMARK    1  A    between atoms: C_4  and  C_5
REMARK    2  A    between atoms: C_4  and  C_6
REMARK    3  A    between atoms: CA_7  and  C_27
REMARK    4  A    between atoms: CA_12  and  N_14
REMARK    5  A    between atoms: C_15  and  C_17
REMARK    6  A    between atoms: C_17  and  C_19
REMARK    7  A    between atoms: C_17  and  C_22
REMARK    8  A    between atoms: C_19  and  O_20
REMARK    9  A    between atoms: C_27  and  O_28
REMARK                            x       y       z     vdW  Elec       q    Type
REMARK                         _______ _______ _______ _____ _____    ______ ____
ROOT
ATOM      1  C   UNL     1       9.299  -1.606  25.369  0.00  0.00    +0.165 C 
ATOM      2  CA  UNL     1       9.869  -0.507  24.430  0.00  0.00    +0.190 C 
ATOM      3  C   UNL     1      10.070  -1.677  23.434  0.00  0.00    +0.240 C 
ATOM      4  O   UNL     1      10.244  -1.787  22.244  0.00  0.00    -0.273 OA
ATOM      5  N   UNL     1       9.742  -2.614  24.379  0.00  0.00    -0.271 N 
ATOM      6  CA  UNL     1       8.777  -3.678  24.048  0.00  0.00    +0.201 C 
ATOM      7  C   UNL     1       7.362  -3.051  24.125  0.00  0.00    +0.042 C 
ATOM      8  C   UNL     1       6.986  -2.313  22.823  0.00  0.00    +0.025 C 
ATOM      9  C   UNL     1       6.215  -4.024  24.427  0.00  0.00    +0.025 C 
ATOM     10  S   UNL     1       7.468  -1.776  25.463  0.00  0.00    -0.127 S 
ENDROOT
BRANCH   2  11
ATOM     11  N   UNL     1       8.922   0.573  24.034  0.00  0.00    -0.301 N 
ATOM     12  H   UNL     1       7.947   0.351  23.847  0.00  0.00    +0.150 HD
ATOM     13  C   UNL     1       9.348   1.883  23.976  0.00  0.00    +0.232 C 
ATOM     14  O   UNL     1      10.539   2.174  24.085  0.00  0.00    -0.275 OA
BRANCH  13  15
ATOM     15  C   UNL     1       8.266   2.925  23.727  0.00  0.00    +0.213 C 
BRANCH  15  16
ATOM     16  C   UNL     1       8.651   4.283  24.301  0.00  0.00    -0.018 A 
ATOM     17  C   UNL     1       9.415   5.313  23.644  0.00  0.00    +0.012 A 
ATOM     18  C   UNL     1       9.626   6.418  24.439  0.00  0.00    +0.045 A 
ATOM     19  S   UNL     1       8.874   6.264  25.961  0.00  0.00    -0.105 S 
ATOM     20  C   UNL     1       8.275   4.713  25.566  0.00  0.00    +0.050 A 
ENDBRANCH  15  16
BRANCH  15  21
ATOM     21  C   UNL     1       7.958   2.953  22.248  0.00  0.00    +0.321 C 
ATOM     22  O   UNL     1       6.920   3.412  21.791  0.00  0.00    -0.250 OA
BRANCH  21  23
ATOM     23  O   UNL     1       8.902   2.392  21.453  0.00  0.00    -0.480 OA
ATOM     24  H   UNL     1       8.583   2.142  20.558  0.00  0.00    +0.295 HD
ENDBRANCH  21  23
ENDBRANCH  15  21
ENDBRANCH  13  15
ENDBRANCH   2  11
BRANCH   6  25
ATOM     25  C   UNL     1       9.035  -4.864  24.994  0.00  0.00    +0.327 C 
ATOM     26  OXT UNL     1       8.818  -4.857  26.197  0.00  0.00    -0.249 OA
BRANCH  25  27
ATOM     27  O   UNL     1       9.458  -5.988  24.360  0.00  0.00    -0.479 OA
ATOM     28  H   UNL     1       8.703  -6.442  23.932  0.00  0.00    +0.295 HD
ENDBRANCH  25  27
ENDBRANCH   6  25
TORSDOF 7
ENDMDL
MODEL 3
REMARK VINA RESULT:      -6.6      2.088      7.612
REMARK  Name = 
REMARK  9 active torsions:
REMARK  status: ('A' for Active; 'I' for Inactive)
REMARK    1  A    between atoms: C_4  and  C_5
REMARK    2  A    between atoms: C_4  and  C_6
REMARK    3  A    between atoms: CA_7  and  C_27
REMARK    4  A    between atoms: CA_12  and  N_14
REMARK    5  A    between atoms: C_15  and  C_17
REMARK    6  A    between atoms: C_17  and  C_19
REMARK    7  A    between atoms: C_17  and  C_22
REMARK    8  A    between atoms: C_19  and  O_20
REMARK    9  A    between atoms: C_27  and  O_28
REMARK                            x       y       z     vdW  Elec       q    Type
REMARK                         _______ _______ _______ _____ _____    ______ ____
ROOT
ATOM      1  C   UNL     1       7.297  -3.280  26.671  0.00  0.00    +0.165 C 
ATOM      2  CA  UNL     1       8.690  -3.072  26.016  0.00  0.00    +0.190 C 
ATOM      3  C   UNL     1       8.731  -4.620  25.969  0.00  0.00    +0.240 C 
ATOM      4  O   UNL     1       9.358  -5.457  25.364  0.00  0.00    -0.273 OA
ATOM      5  N   UNL     1       7.593  -4.730  26.725  0.00  0.00    -0.271 N 
ATOM      6  CA  UNL     1       6.514  -5.638  26.293  0.00  0.00    +0.201 C 
ATOM      7  C   UNL     1       5.737  -4.916  25.163  0.00  0.00    +0.042 C 
ATOM      8  C   UNL     1       6.423  -5.088  23.791  0.00  0.00    +0.025 C 
ATOM      9  C   UNL     1       4.275  -5.341  24.980  0.00  0.00    +0.025 C 
ATOM     10  S   UNL     1       5.816  -3.116  25.590  0.00  0.00    -0.127 S 
ENDROOT
BRANCH   2  11
ATOM     11  N   UNL     1       8.699  -2.348  24.713  0.00  0.00    -0.301 N 
ATOM     12  H   UNL     1       8.347  -2.804  23.875  0.00  0.00    +0.150 HD
ATOM     13  C   UNL     1       9.133  -1.041  24.649  0.00  0.00    +0.232 C 
ATOM     14  O   UNL     1       9.668  -0.496  25.613  0.00  0.00    -0.275 OA
BRANCH  13  15
ATOM     15  C   UNL     1       8.944  -0.342  23.309  0.00  0.00    +0.213 C 
BRANCH  15  16
ATOM     16  C   UNL     1       9.281   1.142  23.396  0.00  0.00    -0.018 A 
ATOM     17  C   UNL     1      10.568   1.749  23.175  0.00  0.00    +0.012 A 
ATOM     18  C   UNL     1      10.559   3.114  23.361  0.00  0.00    +0.045 A 
ATOM     19  S   UNL     1       9.006   3.697  23.753  0.00  0.00    -0.105 S 
ATOM     20  C   UNL     1       8.343   2.123  23.688  0.00  0.00    +0.050 A 
ENDBRANCH  15  16
BRANCH  15  21
ATOM     21  C   UNL     1       9.740  -1.088  22.263  0.00  0.00    +0.321 C 
ATOM     22  O   UNL     1      10.616  -1.895  22.542  0.00  0.00    -0.250 OA
BRANCH  21  23
ATOM     23  O   UNL     1       9.443  -0.770  20.979  0.00  0.00    -0.480 OA
ATOM     24  H   UNL     1      10.173  -0.328  20.491  0.00  0.00    +0.295 HD
ENDBRANCH  21  23
ENDBRANCH  15  21
ENDBRANCH  13  15
ENDBRANCH   2  11
BRANCH   6  25
ATOM     25  C   UNL     1       5.688  -6.017  27.535  0.00  0.00    +0.327 C 
ATOM     26  OXT UNL     1       5.314  -5.230  28.392  0.00  0.00    -0.249 OA
BRANCH  25  27
ATOM     27  O   UNL     1       5.318  -7.324  27.567  0.00  0.00    -0.479 OA
ATOM     28  H   UNL     1       5.731  -7.813  26.827  0.00  0.00    +0.295 HD
ENDBRANCH  25  27
ENDBRANCH   6  25
TORSDOF 7
ENDMDL
MODEL 4
REMARK VINA RESULT:      -6.6      2.731      3.568
REMARK  Name = 
REMARK  9 active torsions:
REMARK  status: ('A' for Active; 'I' for Inactive)
REMARK    1  A    between atoms: C_4  and  C_5
REMARK    2  A    between atoms: C_4  and  C_6
REMARK    3  A    between atoms: CA_7  and  C_27
REMARK    4  A    between atoms: CA_12  and  N_14
REMARK    5  A    between atoms: C_15  and  C_17
REMARK    6  A    between atoms: C_17  and  C_19
REMARK    7  A    between atoms: C_17  and  C_22
REMARK    8  A    between atoms: C_19  and  O_20
REMARK    9  A    between atoms: C_27  and  O_28
REMARK                            x       y       z     vdW  Elec       q    Type
REMARK                         _______ _______ _______ _____ _____    ______ ____
ROOT
ATOM      1  C   UNL     1      10.148   0.110  24.660  0.00  0.00    +0.165 C 
ATOM      2  CA  UNL     1       9.334  -0.779  25.640  0.00  0.00    +0.190 C 
ATOM      3  C   UNL     1       8.301   0.375  25.590  0.00  0.00    +0.240 C 
ATOM      4  O   UNL     1       7.132   0.510  25.856  0.00  0.00    -0.273 OA
ATOM      5  N   UNL     1       9.156   1.185  24.887  0.00  0.00    -0.271 N 
ATOM      6  CA  UNL     1       8.670   1.895  23.689  0.00  0.00    +0.201 C 
ATOM      7  C   UNL     1       8.636   0.865  22.531  0.00  0.00    +0.042 C 
ATOM      8  C   UNL     1       7.345   0.020  22.548  0.00  0.00    +0.025 C 
ATOM      9  C   UNL     1       8.766   1.444  21.117  0.00  0.00    +0.025 C 
ATOM     10  S   UNL     1      10.045  -0.289  22.866  0.00  0.00    -0.127 S 
ENDROOT
BRANCH   2  11
ATOM     11  N   UNL     1       8.902  -2.106  25.116  0.00  0.00    -0.301 N 
ATOM     12  H   UNL     1       9.196  -2.407  24.191  0.00  0.00    +0.150 HD
ATOM     13  C   UNL     1       8.152  -2.952  25.905  0.00  0.00    +0.232 C 
ATOM     14  O   UNL     1       7.685  -2.578  26.980  0.00  0.00    -0.275 OA
BRANCH  13  15
ATOM     15  C   UNL     1       7.908  -4.345  25.341  0.00  0.00    +0.213 C 
BRANCH  15  16
ATOM     16  C   UNL     1       7.085  -4.298  24.059  0.00  0.00    -0.018 A 
ATOM     17  C   UNL     1       5.920  -3.486  23.811  0.00  0.00    +0.012 A 
ATOM     18  C   UNL     1       5.377  -3.691  22.562  0.00  0.00    +0.045 A 
ATOM     19  S   UNL     1       6.276  -4.816  21.650  0.00  0.00    -0.105 S 
ATOM     20  C   UNL     1       7.388  -5.043  22.928  0.00  0.00    +0.050 A 
ENDBRANCH  15  16
BRANCH  15  21
ATOM     21  C   UNL     1       9.242  -5.039  25.184  0.00  0.00    +0.321 C 
ATOM     22  O   UNL     1      10.192  -4.534  24.601  0.00  0.00    -0.250 OA
BRANCH  21  23
ATOM     23  O   UNL     1       9.305  -6.289  25.704  0.00  0.00    -0.480 OA
ATOM     24  H   UNL     1       8.454  -6.780  25.685  0.00  0.00    +0.295 HD
ENDBRANCH  21  23
ENDBRANCH  15  21
ENDBRANCH  13  15
ENDBRANCH   2  11
BRANCH   6  25
ATOM     25  C   UNL     1       9.573   3.121  23.466  0.00  0.00    +0.327 C 
ATOM     26  OXT UNL     1      10.793   3.113  23.538  0.00  0.00    -0.249 OA
BRANCH  25  27
ATOM     27  O   UNL     1       8.896   4.236  23.085  0.00  0.00    -0.479 OA
ATOM     28  H   UNL     1       7.958   4.020  22.905  0.00  0.00    +0.295 HD
ENDBRANCH  25  27
ENDBRANCH   6  25
TORSDOF 7
ENDMDL
MODEL 5
REMARK VINA RESULT:      -6.5      2.369      3.014
REMARK  Name = 
REMARK  9 active torsions:
REMARK  status: ('A' for Active; 'I' for Inactive)
REMARK    1  A    between atoms: C_4  and  C_5
REMARK    2  A    between atoms: C_4  and  C_6
REMARK    3  A    between atoms: CA_7  and  C_27
REMARK    4  A    between atoms: CA_12  and  N_14
REMARK    5  A    between atoms: C_15  and  C_17
REMARK    6  A    between atoms: C_17  and  C_19
REMARK    7  A    between atoms: C_17  and  C_22
REMARK    8  A    between atoms: C_19  and  O_20
REMARK    9  A    between atoms: C_27  and  O_28
REMARK                            x       y       z     vdW  Elec       q    Type
REMARK                         _______ _______ _______ _____ _____    ______ ____
ROOT
ATOM      1  C   UNL     1       8.386   0.536  22.628  0.00  0.00    +0.165 C 
ATOM      2  CA  UNL     1       9.238  -0.643  23.174  0.00  0.00    +0.190 C 
ATOM      3  C   UNL     1       9.993   0.462  23.954  0.00  0.00    +0.240 C 
ATOM      4  O   UNL     1      10.724   0.505  24.914  0.00  0.00    -0.273 OA
ATOM      5  N   UNL     1       9.336   1.462  23.286  0.00  0.00    -0.271 N 
ATOM      6  CA  UNL     1       8.744   2.580  24.044  0.00  0.00    +0.201 C 
ATOM      7  C   UNL     1       7.416   2.065  24.655  0.00  0.00    +0.042 C 
ATOM      8  C   UNL     1       7.646   1.299  25.975  0.00  0.00    +0.025 C 
ATOM      9  C   UNL     1       6.355   3.133  24.945  0.00  0.00    +0.025 C 
ATOM     10  S   UNL     1       6.756   0.846  23.426  0.00  0.00    -0.127 S 
ENDROOT
BRANCH   2  11
ATOM     11  N   UNL     1       8.505  -1.667  23.973  0.00  0.00    -0.301 N 
ATOM     12  H   UNL     1       7.566  -1.471  24.310  0.00  0.00    +0.150 HD
ATOM     13  C   UNL     1       9.075  -2.899  24.210  0.00  0.00    +0.232 C 
ATOM     14  O   UNL     1      10.248  -3.130  23.917  0.00  0.00    -0.275 OA
BRANCH  13  15
ATOM     15  C   UNL     1       8.179  -3.927  24.889  0.00  0.00    +0.213 C 
BRANCH  15  16
ATOM     16  C   UNL     1       7.306  -4.665  23.880  0.00  0.00    -0.018 A 
ATOM     17  C   UNL     1       6.108  -5.414  24.161  0.00  0.00    +0.012 A 
ATOM     18  C   UNL     1       5.560  -5.995  23.039  0.00  0.00    +0.045 A 
ATOM     19  S   UNL     1       6.438  -5.614  21.628  0.00  0.00    -0.105 S 
ATOM     20  C   UNL     1       7.561  -4.682  22.517  0.00  0.00    +0.050 A 
ENDBRANCH  15  16
BRANCH  15  21
ATOM     21  C   UNL     1       9.044  -4.837  25.729  0.00  0.00    +0.321 C 
ATOM     22  O   UNL     1       9.016  -4.843  26.952  0.00  0.00    -0.250 OA
BRANCH  21  23
ATOM     23  O   UNL     1       9.894  -5.629  25.030  0.00  0.00    -0.480 OA
ATOM     24  H   UNL     1       9.921  -5.443  24.065  0.00  0.00    +0.295 HD
ENDBRANCH  21  23
ENDBRANCH  15  21
ENDBRANCH  13  15
ENDBRANCH   2  11
BRANCH   6  25
ATOM     25  C   UNL     1       8.620   3.784  23.094  0.00  0.00    +0.327 C 
ATOM     26  OXT UNL     1       7.774   3.899  22.219  0.00  0.00    -0.249 OA
BRANCH  25  27
ATOM     27  O   UNL     1       9.497   4.786  23.363  0.00  0.00    -0.479 OA
ATOM     28  H   UNL     1       9.177   5.630  22.983  0.00  0.00    +0.295 HD
ENDBRANCH  25  27
ENDBRANCH   6  25
TORSDOF 7
ENDMDL
MODEL 6
REMARK VINA RESULT:      -6.5      1.992      2.999
REMARK  Name = 
REMARK  9 active torsions:
REMARK  status: ('A' for Active; 'I' for Inactive)
REMARK    1  A    between atoms: C_4  and  C_5
REMARK    2  A    between atoms: C_4  and  C_6
REMARK    3  A    between atoms: CA_7  and  C_27
REMARK    4  A    between atoms: CA_12  and  N_14
REMARK    5  A    between atoms: C_15  and  C_17
REMARK    6  A    between atoms: C_17  and  C_19
REMARK    7  A    between atoms: C_17  and  C_22
REMARK    8  A    between atoms: C_19  and  O_20
REMARK    9  A    between atoms: C_27  and  O_28
REMARK                            x       y       z     vdW  Elec       q    Type
REMARK                         _______ _______ _______ _____ _____    ______ ____
ROOT
ATOM      1  C   UNL     1      10.138  -0.849  22.973  0.00  0.00    +0.165 C 
ATOM      2  CA  UNL     1       9.968  -1.838  24.158  0.00  0.00    +0.190 C 
ATOM      3  C   UNL     1       9.806  -0.553  25.010  0.00  0.00    +0.240 C 
ATOM      4  O   UNL     1       9.359  -0.279  26.097  0.00  0.00    -0.273 OA
ATOM      5  N   UNL     1      10.160   0.254  23.960  0.00  0.00    -0.271 N 
ATOM      6  CA  UNL     1       9.339   1.438  23.641  0.00  0.00    +0.201 C 
ATOM      7  C   UNL     1       8.088   0.933  22.878  0.00  0.00    +0.042 C 
ATOM      8  C   UNL     1       6.988   0.437  23.841  0.00  0.00    +0.025 C 
ATOM      9  C   UNL     1       7.425   1.945  21.937  0.00  0.00    +0.025 C 
ATOM     10  S   UNL     1       8.667  -0.535  21.910  0.00  0.00    -0.127 S 
ENDROOT
BRANCH   2  11
ATOM     11  N   UNL     1       8.798  -2.758  24.081  0.00  0.00    -0.301 N 
ATOM     12  H   UNL     1       7.888  -2.401  23.801  0.00  0.00    +0.150 HD
ATOM     13  C   UNL     1       8.956  -4.104  24.335  0.00  0.00    +0.232 C 
ATOM     14  O   UNL     1      10.011  -4.552  24.785  0.00  0.00    -0.275 OA
BRANCH  13  15
ATOM     15  C   UNL     1       7.739  -4.980  24.065  0.00  0.00    +0.213 C 
BRANCH  15  16
ATOM     16  C   UNL     1       6.943  -5.244  25.338  0.00  0.00    -0.018 A 
ATOM     17  C   UNL     1       7.260  -4.783  26.665  0.00  0.00    +0.012 A 
ATOM     18  C   UNL     1       6.360  -5.215  27.615  0.00  0.00    +0.045 A 
ATOM     19  S   UNL     1       5.099  -6.134  26.930  0.00  0.00    -0.105 S 
ATOM     20  C   UNL     1       5.759  -5.967  25.362  0.00  0.00    +0.050 A 
ENDBRANCH  15  16
BRANCH  15  21
ATOM     21  C   UNL     1       6.929  -4.346  22.958  0.00  0.00    +0.321 C 
ATOM     22  O   UNL     1       6.227  -3.357  23.127  0.00  0.00    -0.250 OA
BRANCH  21  23
ATOM     23  O   UNL     1       6.999  -4.976  21.761  0.00  0.00    -0.480 OA
ATOM     24  H   UNL     1       7.425  -4.449  21.049  0.00  0.00    +0.295 HD
ENDBRANCH  21  23
ENDBRANCH  15  21
ENDBRANCH  13  15
ENDBRANCH   2  11
BRANCH   6  25
ATOM     25  C   UNL     1      10.226   2.438  22.879  0.00  0.00    +0.327 C 
ATOM     26  OXT UNL     1      10.850   3.353  23.396  0.00  0.00    -0.249 OA
BRANCH  25  27
ATOM     27  O   UNL     1      10.338   2.170  21.552  0.00  0.00    -0.479 OA
ATOM     28  H   UNL     1      11.172   2.543  21.198  0.00  0.00    +0.295 HD
ENDBRANCH  25  27
ENDBRANCH   6  25
TORSDOF 7
ENDMDL
MODEL 7
REMARK VINA RESULT:      -6.4      2.318      6.970
REMARK  Name = 
REMARK  9 active torsions:
REMARK  status: ('A' for Active; 'I' for Inactive)
REMARK    1  A    between atoms: C_4  and  C_5
REMARK    2  A    between atoms: C_4  and  C_6
REMARK    3  A    between atoms: CA_7  and  C_27
REMARK    4  A    between atoms: CA_12  and  N_14
REMARK    5  A    between atoms: C_15  and  C_17
REMARK    6  A    between atoms: C_17  and  C_19
REMARK    7  A    between atoms: C_17  and  C_22
REMARK    8  A    between atoms: C_19  and  O_20
REMARK    9  A    between atoms: C_27  and  O_28
REMARK                            x       y       z     vdW  Elec       q    Type
REMARK                         _______ _______ _______ _____ _____    ______ ____
ROOT
ATOM      1  C   UNL     1       8.780  -3.674  25.054  0.00  0.00    +0.165 C 
ATOM      2  CA  UNL     1       9.139  -2.919  23.745  0.00  0.00    +0.190 C 
ATOM      3  C   UNL     1       7.799  -3.497  23.223  0.00  0.00    +0.240 C 
ATOM      4  O   UNL     1       7.037  -3.250  22.320  0.00  0.00    -0.273 OA
ATOM      5  N   UNL     1       7.645  -4.291  24.330  0.00  0.00    -0.271 N 
ATOM      6  CA  UNL     1       6.350  -4.317  25.035  0.00  0.00    +0.201 C 
ATOM      7  C   UNL     1       6.277  -3.033  25.901  0.00  0.00    +0.042 C 
ATOM      8  C   UNL     1       5.802  -1.813  25.084  0.00  0.00    +0.025 C 
ATOM      9  C   UNL     1       5.377  -3.112  27.139  0.00  0.00    +0.025 C 
ATOM     10  S   UNL     1       8.023  -2.695  26.418  0.00  0.00    -0.127 S 
ENDROOT
BRANCH   2  11
ATOM     11  N   UNL     1       9.249  -1.437  23.852  0.00  0.00    -0.301 N 
ATOM     12  H   UNL     1       9.143  -0.983  24.755  0.00  0.00    +0.150 HD
ATOM     13  C   UNL     1       9.550  -0.682  22.738  0.00  0.00    +0.232 C 
ATOM     14  O   UNL     1       9.574  -1.180  21.613  0.00  0.00    -0.275 OA
BRANCH  13  15
ATOM     15  C   UNL     1       9.805   0.799  22.988  0.00  0.00    +0.213 C 
BRANCH  15  16
ATOM     16  C   UNL     1       8.553   1.634  22.745  0.00  0.00    -0.018 A 
ATOM     17  C   UNL     1       7.196   1.154  22.674  0.00  0.00    +0.012 A 
ATOM     18  C   UNL     1       6.285   2.153  22.410  0.00  0.00    +0.045 A 
ATOM     19  S   UNL     1       7.028   3.682  22.294  0.00  0.00    -0.105 S 
ATOM     20  C   UNL     1       8.573   3.012  22.583  0.00  0.00    +0.050 A 
ENDBRANCH  15  16
BRANCH  15  21
ATOM     21  C   UNL     1      10.386   0.958  24.373  0.00  0.00    +0.321 C 
ATOM     22  O   UNL     1      11.578   0.826  24.617  0.00  0.00    -0.250 OA
BRANCH  21  23
ATOM     23  O   UNL     1       9.483   1.222  25.349  0.00  0.00    -0.480 OA
ATOM     24  H   UNL     1       9.870   1.603  26.168  0.00  0.00    +0.295 HD
ENDBRANCH  21  23
ENDBRANCH  15  21
ENDBRANCH  13  15
ENDBRANCH   2  11
BRANCH   6  25
ATOM     25  C   UNL     1       6.256  -5.647  25.804  0.00  0.00    +0.327 C 
ATOM     26  OXT UNL     1       7.054  -6.024  26.649  0.00  0.00    -0.249 OA
BRANCH  25  27
ATOM     27  O   UNL     1       5.133  -6.360  25.526  0.00  0.00    -0.479 OA
ATOM     28  H   UNL     1       4.875  -6.238  24.589  0.00  0.00    +0.295 HD
ENDBRANCH  25  27
ENDBRANCH   6  25
TORSDOF 7
ENDMDL
MODEL 8
REMARK VINA RESULT:      -6.4      1.825      2.611
REMARK  Name = 
REMARK  9 active torsions:
REMARK  status: ('A' for Active; 'I' for Inactive)
REMARK    1  A    between atoms: C_4  and  C_5
REMARK    2  A    between atoms: C_4  and  C_6
REMARK    3  A    between atoms: CA_7  and  C_27
REMARK    4  A    between atoms: CA_12  and  N_14
REMARK    5  A    between atoms: C_15  and  C_17
REMARK    6  A    between atoms: C_17  and  C_19
REMARK    7  A    between atoms: C_17  and  C_22
REMARK    8  A    between atoms: C_19  and  O_20
REMARK    9  A    between atoms: C_27  and  O_28
REMARK                            x       y       z     vdW  Elec       q    Type
REMARK                         _______ _______ _______ _____ _____    ______ ____
ROOT
ATOM      1  C   UNL     1       7.921  -1.431  22.589  0.00  0.00    +0.165 C 
ATOM      2  CA  UNL     1       8.101  -2.973  22.612  0.00  0.00    +0.190 C 
ATOM      3  C   UNL     1       9.401  -2.658  23.395  0.00  0.00    +0.240 C 
ATOM      4  O   UNL     1      10.154  -3.269  24.114  0.00  0.00    -0.273 OA
ATOM      5  N   UNL     1       9.280  -1.312  23.165  0.00  0.00    -0.271 N 
ATOM      6  CA  UNL     1       9.438  -0.363  24.284  0.00  0.00    +0.201 C 
ATOM      7  C   UNL     1       8.114  -0.382  25.089  0.00  0.00    +0.042 C 
ATOM      8  C   UNL     1       8.067  -1.551  26.095  0.00  0.00    +0.025 C 
ATOM      9  C   UNL     1       7.795   0.892  25.879  0.00  0.00    +0.025 C 
ATOM     10  S   UNL     1       6.787  -0.689  23.835  0.00  0.00    -0.127 S 
ENDROOT
BRANCH   2  11
ATOM     11  N   UNL     1       7.044  -3.746  23.324  0.00  0.00    -0.301 N 
ATOM     12  H   UNL     1       6.305  -3.256  23.823  0.00  0.00    +0.150 HD
ATOM     13  C   UNL     1       7.031  -5.123  23.262  0.00  0.00    +0.232 C 
ATOM     14  O   UNL     1       7.966  -5.751  22.765  0.00  0.00    -0.275 OA
BRANCH  13  15
ATOM     15  C   UNL     1       5.817  -5.805  23.879  0.00  0.00    +0.213 C 
BRANCH  15  16
ATOM     16  C   UNL     1       5.677  -5.471  25.360  0.00  0.00    -0.018 A 
ATOM     17  C   UNL     1       6.740  -5.370  26.327  0.00  0.00    +0.012 A 
ATOM     18  C   UNL     1       6.289  -5.083  27.596  0.00  0.00    +0.045 A 
ATOM     19  S   UNL     1       4.597  -4.880  27.643  0.00  0.00    -0.105 S 
ATOM     20  C   UNL     1       4.462  -5.189  25.967  0.00  0.00    +0.050 A 
ENDBRANCH  15  16
BRANCH  15  21
ATOM     21  C   UNL     1       4.600  -5.455  23.056  0.00  0.00    +0.321 C 
ATOM     22  O   UNL     1       4.373  -4.323  22.649  0.00  0.00    -0.250 OA
BRANCH  21  23
ATOM     23  O   UNL     1       3.744  -6.480  22.829  0.00  0.00    -0.480 OA
ATOM     24  H   UNL     1       2.967  -6.246  22.275  0.00  0.00    +0.295 HD
ENDBRANCH  21  23
ENDBRANCH  15  21
ENDBRANCH  13  15
ENDBRANCH   2  11
BRANCH   6  25
ATOM     25  C   UNL     1       9.843   1.000  23.695  0.00  0.00    +0.327 C 
ATOM     26  OXT UNL     1       9.223   1.598  22.829  0.00  0.00    -0.249 OA
BRANCH  25  27
ATOM     27  O   UNL     1      10.933   1.550  24.291  0.00  0.00    -0.479 OA
ATOM     28  H   UNL     1      11.152   1.068  25.114  0.00  0.00    +0.295 HD
ENDBRANCH  25  27
ENDBRANCH   6  25
TORSDOF 7
ENDMDL
MODEL 9
REMARK VINA RESULT:      -6.4      2.071      2.929
REMARK  Name = 
REMARK  9 active torsions:
REMARK  status: ('A' for Active; 'I' for Inactive)
REMARK    1  A    between atoms: C_4  and  C_5
REMARK    2  A    between atoms: C_4  and  C_6
REMARK    3  A    between atoms: CA_7  and  C_27
REMARK    4  A    between atoms: CA_12  and  N_14
REMARK    5  A    between atoms: C_15  and  C_17
REMARK    6  A    between atoms: C_17  and  C_19
REMARK    7  A    between atoms: C_17  and  C_22
REMARK    8  A    between atoms: C_19  and  O_20
REMARK    9  A    between atoms: C_27  and  O_28
REMARK                            x       y       z     vdW  Elec       q    Type
REMARK                         _______ _______ _______ _____ _____    ______ ____
ROOT
ATOM      1  C   UNL     1       9.515  -0.156  25.431  0.00  0.00    +0.165 C 
ATOM      2  CA  UNL     1       8.498  -1.030  26.214  0.00  0.00    +0.190 C 
ATOM      3  C   UNL     1       7.431  -0.163  25.497  0.00  0.00    +0.240 C 
ATOM      4  O   UNL     1       6.251  -0.253  25.260  0.00  0.00    -0.273 OA
ATOM      5  N   UNL     1       8.380   0.690  24.997  0.00  0.00    -0.271 N 
ATOM      6  CA  UNL     1       8.347   1.063  23.570  0.00  0.00    +0.201 C 
ATOM      7  C   UNL     1       8.944  -0.125  22.774  0.00  0.00    +0.042 C 
ATOM      8  C   UNL     1       7.894  -1.224  22.505  0.00  0.00    +0.025 C 
ATOM      9  C   UNL     1       9.571   0.225  21.420  0.00  0.00    +0.025 C 
ATOM     10  S   UNL     1      10.228  -0.860  23.887  0.00  0.00    -0.127 S 
ENDROOT
BRANCH   2  11
ATOM     11  N   UNL     1       8.512  -2.488  25.906  0.00  0.00    -0.301 N 
ATOM     12  H   UNL     1       9.236  -2.873  25.304  0.00  0.00    +0.150 HD
ATOM     13  C   UNL     1       7.581  -3.328  26.478  0.00  0.00    +0.232 C 
ATOM     14  O   UNL     1       6.627  -2.885  27.118  0.00  0.00    -0.275 OA
BRANCH  13  15
ATOM     15  C   UNL     1       7.787  -4.817  26.233  0.00  0.00    +0.213 C 
BRANCH  15  16
ATOM     16  C   UNL     1       6.506  -5.491  25.755  0.00  0.00    -0.018 A 
ATOM     17  C   UNL     1       5.618  -6.310  26.540  0.00  0.00    +0.012 A 
ATOM     18  C   UNL     1       4.557  -6.804  25.813  0.00  0.00    +0.045 A 
ATOM     19  S   UNL     1       4.578  -6.258  24.199  0.00  0.00    -0.105 S 
ATOM     20  C   UNL     1       6.014  -5.369  24.464  0.00  0.00    +0.050 A 
ENDBRANCH  15  16
BRANCH  15  21
ATOM     21  C   UNL     1       8.956  -4.990  25.290  0.00  0.00    +0.321 C 
ATOM     22  O   UNL     1       8.919  -4.655  24.113  0.00  0.00    -0.250 OA
BRANCH  21  23
ATOM     23  O   UNL     1      10.047  -5.584  25.829  0.00  0.00    -0.480 OA
ATOM     24  H   UNL     1      10.143  -6.537  25.607  0.00  0.00    +0.295 HD
ENDBRANCH  21  23
ENDBRANCH  15  21
ENDBRANCH  13  15
ENDBRANCH   2  11
BRANCH   6  25
ATOM     25  C   UNL     1       9.081   2.407  23.414  0.00  0.00    +0.327 C 
ATOM     26  OXT UNL     1      10.127   2.701  23.975  0.00  0.00    -0.249 OA
BRANCH  25  27
ATOM     27  O   UNL     1       8.506   3.242  22.509  0.00  0.00    -0.479 OA
ATOM     28  H   UNL     1       8.907   4.133  22.566  0.00  0.00    +0.295 HD
ENDBRANCH  25  27
ENDBRANCH   6  25
TORSDOF 7
ENDMDL
