MODEL 1
REMARK VINA RESULT:      -8.7      0.000      0.000
REMARK  Name = 
REMARK  9 active torsions:
REMARK  status: ('A' for Active; 'I' for Inactive)
REMARK    1  A    between atoms: C_1  and  C_2
REMARK    2  A    between atoms: C_2  and  C_3
REMARK    3  A    between atoms: C_2  and  C_4
REMARK    4  A    between atoms: C_2  and  C_21
REMARK    5  A    between atoms: C_4  and  N_5
REMARK    6  A    between atoms: C_6  and  C_8
REMARK    7  A    between atoms: C_11  and  O_12
REMARK    8  A    between atoms: O_12  and  C_13
REMARK    9  A    between atoms: C_28  and  N_29
REMARK                            x       y       z     vdW  Elec       q    Type
REMARK                         _______ _______ _______ _____ _____    ______ ____
ROOT
ATOM      1  C   UNL     1       9.685  -5.037  26.086  0.00  0.00    +0.019 C 
ATOM      2  C   UNL     1       8.818  -3.976  25.369  0.00  0.00    +0.023 C 
ATOM      3  C   UNL     1       8.598  -2.821  26.372  0.00  0.00    +0.019 C 
ENDROOT
BRANCH   2   4
ATOM      4  C   UNL     1       7.512  -4.643  24.910  0.00  0.00    +0.051 A 
ATOM      5  C   UNL     1       7.108  -4.664  23.582  0.00  0.00    +0.025 A 
ATOM      6  C   UNL     1       5.921  -5.303  23.259  0.00  0.00    +0.017 A 
ATOM      7  C   UNL     1       5.146  -5.897  24.271  0.00  0.00    +0.059 A 
ATOM      8  C   UNL     1       5.596  -5.838  25.585  0.00  0.00    +0.167 A 
ATOM      9  N   UNL     1       4.901  -6.367  26.584  0.00  0.00    -0.195 NA
ATOM     10  C   UNL     1       3.743  -6.951  26.294  0.00  0.00    +0.216 A 
ATOM     11  N   UNL     1       3.238  -7.096  25.069  0.00  0.00    -0.199 NA
ATOM     12  N   UNL     1       2.996  -7.460  27.336  0.00  0.00    -0.327 N 
ATOM     13  H   UNL     1       2.367  -8.176  27.002  0.00  0.00    +0.145 HD
ATOM     14  H   UNL     1       3.593  -7.691  28.118  0.00  0.00    +0.145 HD
ATOM     15  C   UNL     1       3.939  -6.559  24.069  0.00  0.00    +0.131 A 
ATOM     16  N   UNL     1       6.754  -5.232  25.884  0.00  0.00    -0.231 NA
BRANCH  15  17
ATOM     17  N   UNL     1       3.396  -6.741  22.793  0.00  0.00    -0.342 N 
ATOM     18  H   UNL     1       2.753  -5.998  22.545  0.00  0.00    +0.144 HD
ATOM     19  H   UNL     1       2.935  -7.648  22.785  0.00  0.00    +0.144 HD
ENDBRANCH  15  17
ENDBRANCH   2   4
BRANCH   2  20
ATOM     20  C   UNL     1       9.573  -3.387  24.138  0.00  0.00    +0.117 C 
BRANCH  20  21
ATOM     21  N   UNL     1       9.519  -1.939  24.071  0.00  0.00    -0.310 N 
ATOM     22  H   UNL     1       9.393  -1.466  24.965  0.00  0.00    +0.149 HD
ATOM     23  C   UNL     1      10.062  -1.207  23.042  0.00  0.00    +0.244 C 
ATOM     24  O   UNL     1      10.654  -1.695  22.088  0.00  0.00    -0.270 OA
BRANCH  23  25
ATOM     25  C   UNL     1       9.880   0.269  23.166  0.00  0.00    +0.037 A 
ATOM     26  C   UNL     1       9.620   0.851  24.414  0.00  0.00    +0.016 A 
ATOM     27  C   UNL     1       9.418   2.226  24.526  0.00  0.00    +0.047 A 
ATOM     28  C   UNL     1       9.411   3.028  23.382  0.00  0.00    +0.128 A 
ATOM     29  C   UNL     1       9.704   2.456  22.140  0.00  0.00    +0.047 A 
ATOM     30  C   UNL     1       9.932   1.079  22.027  0.00  0.00    +0.016 A 
BRANCH  28  31
ATOM     31  O   UNL     1       9.186   4.386  23.384  0.00  0.00    -0.456 OA
BRANCH  31  32
ATOM     32  C   UNL     1      10.062   5.239  24.020  0.00  0.00    +0.128 A 
ATOM     33  C   UNL     1       9.698   6.154  25.013  0.00  0.00    +0.046 A 
ATOM     34  C   UNL     1      10.669   6.957  25.616  0.00  0.00    +0.004 A 
ATOM     35  C   UNL     1      11.995   6.892  25.189  0.00  0.00    +0.000 A 
ATOM     36  C   UNL     1      12.348   6.032  24.149  0.00  0.00    +0.004 A 
ATOM     37  C   UNL     1      11.383   5.208  23.566  0.00  0.00    +0.046 A 
ENDBRANCH  31  32
ENDBRANCH  28  31
ENDBRANCH  23  25
ENDBRANCH  20  21
ENDBRANCH   2  20
TORSDOF 7
ENDMDL
MODEL 2
REMARK VINA RESULT:      -8.7      1.732      2.799
REMARK  Name = 
REMARK  9 active torsions:
REMARK  status: ('A' for Active; 'I' for Inactive)
REMARK    1  A    between atoms: C_1  and  C_2
REMARK    2  A    between atoms: C_2  and  C_3
REMARK    3  A    between atoms: C_2  and  C_4
REMARK    4  A    between atoms: C_2  and  C_21
REMARK    5  A    between atoms: C_4  and  N_5
REMARK    6  A    between atoms: C_6  and  C_8
REMARK    7  A    between atoms: C_11  and  O_12
REMARK    8  A    between atoms: O_12  and  C_13
REMARK    9  A    between atoms: C_28  and  N_29
REMARK                            x       y       z     vdW  Elec       q    Type
REMARK                         _______ _______ _______ _____ _____    ______ ____
ROOT
ATOM      1  C   UNL     1       5.765  -3.192  21.871  0.00  0.00    +0.019 C 
ATOM      2  C   UNL     1       6.263  -4.542  22.437  0.00  0.00    +0.023 C 
ATOM      3  C   UNL     1       6.299  -5.540  21.258  0.00  0.00    +0.019 C 
ENDROOT
BRANCH   2   4
ATOM      4  C   UNL     1       5.319  -4.972  23.571  0.00  0.00    +0.051 A 
ATOM      5  C   UNL     1       3.942  -4.804  23.505  0.00  0.00    +0.025 A 
ATOM      6  C   UNL     1       3.168  -5.236  24.571  0.00  0.00    +0.017 A 
ATOM      7  C   UNL     1       3.783  -5.813  25.696  0.00  0.00    +0.059 A 
ATOM      8  C   UNL     1       5.166  -5.948  25.711  0.00  0.00    +0.167 A 
ATOM      9  N   UNL     1       5.803  -6.471  26.751  0.00  0.00    -0.195 NA
ATOM     10  C   UNL     1       5.077  -6.856  27.795  0.00  0.00    +0.216 A 
ATOM     11  N   UNL     1       3.747  -6.807  27.870  0.00  0.00    -0.199 NA
ATOM     12  N   UNL     1       5.741  -7.357  28.896  0.00  0.00    -0.327 N 
ATOM     13  H   UNL     1       5.126  -7.941  29.443  0.00  0.00    +0.145 HD
ATOM     14  H   UNL     1       6.633  -7.745  28.623  0.00  0.00    +0.145 HD
ATOM     15  C   UNL     1       3.112  -6.276  26.823  0.00  0.00    +0.131 A 
ATOM     16  N   UNL     1       5.904  -5.543  24.667  0.00  0.00    -0.231 NA
BRANCH  15  17
ATOM     17  N   UNL     1       1.717  -6.253  26.920  0.00  0.00    -0.342 N 
ATOM     18  H   UNL     1       1.367  -5.326  27.128  0.00  0.00    +0.144 HD
ATOM     19  H   UNL     1       1.451  -6.921  27.640  0.00  0.00    +0.144 HD
ENDBRANCH  15  17
ENDBRANCH   2   4
BRANCH   2  20
ATOM     20  C   UNL     1       7.718  -4.409  22.981  0.00  0.00    +0.117 C 
BRANCH  20  21
ATOM     21  N   UNL     1       8.221  -3.049  22.946  0.00  0.00    -0.310 N 
ATOM     22  H   UNL     1       7.519  -2.329  22.779  0.00  0.00    +0.149 HD
ATOM     23  C   UNL     1       9.392  -2.658  23.549  0.00  0.00    +0.244 C 
ATOM     24  O   UNL     1      10.123  -3.408  24.185  0.00  0.00    -0.270 OA
BRANCH  23  25
ATOM     25  C   UNL     1       9.730  -1.215  23.377  0.00  0.00    +0.037 A 
ATOM     26  C   UNL     1      10.188  -0.458  24.464  0.00  0.00    +0.016 A 
ATOM     27  C   UNL     1      10.473   0.898  24.312  0.00  0.00    +0.047 A 
ATOM     28  C   UNL     1      10.244   1.529  23.087  0.00  0.00    +0.128 A 
ATOM     29  C   UNL     1       9.820   0.769  21.991  0.00  0.00    +0.047 A 
ATOM     30  C   UNL     1       9.556  -0.598  22.133  0.00  0.00    +0.016 A 
BRANCH  28  31
ATOM     31  O   UNL     1      10.460   2.867  22.846  0.00  0.00    -0.456 OA
BRANCH  31  32
ATOM     32  C   UNL     1       9.948   3.822  23.697  0.00  0.00    +0.128 A 
ATOM     33  C   UNL     1       8.780   3.669  24.451  0.00  0.00    +0.046 A 
ATOM     34  C   UNL     1       8.359   4.690  25.307  0.00  0.00    +0.004 A 
ATOM     35  C   UNL     1       9.069   5.889  25.368  0.00  0.00    +0.000 A 
ATOM     36  C   UNL     1      10.193   6.072  24.563  0.00  0.00    +0.004 A 
ATOM     37  C   UNL     1      10.631   5.041  23.730  0.00  0.00    +0.046 A 
ENDBRANCH  31  32
ENDBRANCH  28  31
ENDBRANCH  23  25
ENDBRANCH  20  21
ENDBRANCH   2  20
TORSDOF 7
ENDMDL
MODEL 3
REMARK VINA RESULT:      -8.6      0.829      1.973
REMARK  Name = 
REMARK  9 active torsions:
REMARK  status: ('A' for Active; 'I' for Inactive)
REMARK    1  A    between atoms: C_1  and  C_2
REMARK    2  A    between atoms: C_2  and  C_3
REMARK    3  A    between atoms: C_2  and  C_4
REMARK    4  A    between atoms: C_2  and  C_21
REMARK    5  A    between atoms: C_4  and  N_5
REMARK    6  A    between atoms: C_6  and  C_8
REMARK    7  A    between atoms: C_11  and  O_12
REMARK    8  A    between atoms: O_12  and  C_13
REMARK    9  A    between atoms: C_28  and  N_29
REMARK                            x       y       z     vdW  Elec       q    Type
REMARK                         _______ _______ _______ _____ _____    ______ ____
ROOT
ATOM      1  C   UNL     1       9.685  -5.176  25.394  0.00  0.00    +0.019 C 
ATOM      2  C   UNL     1       8.493  -4.200  25.255  0.00  0.00    +0.023 C 
ATOM      3  C   UNL     1       8.760  -3.023  26.220  0.00  0.00    +0.019 C 
ENDROOT
BRANCH   2   4
ATOM      4  C   UNL     1       7.199  -4.966  25.570  0.00  0.00    +0.051 A 
ATOM      5  C   UNL     1       6.871  -5.391  26.851  0.00  0.00    +0.025 A 
ATOM      6  C   UNL     1       5.674  -6.062  27.042  0.00  0.00    +0.017 A 
ATOM      7  C   UNL     1       4.828  -6.314  25.947  0.00  0.00    +0.059 A 
ATOM      8  C   UNL     1       5.211  -5.873  24.686  0.00  0.00    +0.167 A 
ATOM      9  N   UNL     1       4.462  -6.094  23.613  0.00  0.00    -0.195 NA
ATOM     10  C   UNL     1       3.328  -6.769  23.776  0.00  0.00    +0.216 A 
ATOM     11  N   UNL     1       2.849  -7.203  24.941  0.00  0.00    -0.199 NA
ATOM     12  N   UNL     1       2.571  -7.041  22.655  0.00  0.00    -0.327 N 
ATOM     13  H   UNL     1       1.607  -7.204  22.912  0.00  0.00    +0.145 HD
ATOM     14  H   UNL     1       2.752  -6.358  21.932  0.00  0.00    +0.145 HD
ATOM     15  C   UNL     1       3.609  -6.981  26.016  0.00  0.00    +0.131 A 
ATOM     16  N   UNL     1       6.364  -5.209  24.515  0.00  0.00    -0.231 NA
BRANCH  15  17
ATOM     17  N   UNL     1       3.075  -7.431  27.228  0.00  0.00    -0.342 N 
ATOM     18  H   UNL     1       3.568  -8.243  27.580  0.00  0.00    +0.144 HD
ATOM     19  H   UNL     1       2.091  -7.634  27.070  0.00  0.00    +0.144 HD
ENDBRANCH  15  17
ENDBRANCH   2   4
BRANCH   2  20
ATOM     20  C   UNL     1       8.425  -3.615  23.812  0.00  0.00    +0.117 C 
BRANCH  20  21
ATOM     21  N   UNL     1       8.562  -2.171  23.771  0.00  0.00    -0.310 N 
ATOM     22  H   UNL     1       8.058  -1.665  24.499  0.00  0.00    +0.149 HD
ATOM     23  C   UNL     1       9.618  -1.527  23.173  0.00  0.00    +0.244 C 
ATOM     24  O   UNL     1      10.553  -2.098  22.625  0.00  0.00    -0.270 OA
BRANCH  23  25
ATOM     25  C   UNL     1       9.554  -0.037  23.234  0.00  0.00    +0.037 A 
ATOM     26  C   UNL     1       9.484   0.620  24.471  0.00  0.00    +0.016 A 
ATOM     27  C   UNL     1       9.392   2.010  24.529  0.00  0.00    +0.047 A 
ATOM     28  C   UNL     1       9.304   2.756  23.351  0.00  0.00    +0.128 A 
ATOM     29  C   UNL     1       9.408   2.107  22.117  0.00  0.00    +0.047 A 
ATOM     30  C   UNL     1       9.526   0.713  22.054  0.00  0.00    +0.016 A 
BRANCH  28  31
ATOM     31  O   UNL     1       9.175   4.126  23.304  0.00  0.00    -0.456 OA
BRANCH  31  32
ATOM     32  C   UNL     1      10.177   4.940  23.784  0.00  0.00    +0.128 A 
ATOM     33  C   UNL     1      11.523   4.843  23.415  0.00  0.00    +0.046 A 
ATOM     34  C   UNL     1      12.460   5.736  23.942  0.00  0.00    +0.004 A 
ATOM     35  C   UNL     1      12.068   6.689  24.881  0.00  0.00    +0.000 A 
ATOM     36  C   UNL     1      10.740   6.741  25.304  0.00  0.00    +0.004 A 
ATOM     37  C   UNL     1       9.798   5.868  24.757  0.00  0.00    +0.046 A 
ENDBRANCH  31  32
ENDBRANCH  28  31
ENDBRANCH  23  25
ENDBRANCH  20  21
ENDBRANCH   2  20
TORSDOF 7
ENDMDL
MODEL 4
REMARK VINA RESULT:      -8.0      3.599     11.073
REMARK  Name = 
REMARK  9 active torsions:
REMARK  status: ('A' for Active; 'I' for Inactive)
REMARK    1  A    between atoms: C_1  and  C_2
REMARK    2  A    between atoms: C_2  and  C_3
REMARK    3  A    between atoms: C_2  and  C_4
REMARK    4  A    between atoms: C_2  and  C_21
REMARK    5  A    between atoms: C_4  and  N_5
REMARK    6  A    between atoms: C_6  and  C_8
REMARK    7  A    between atoms: C_11  and  O_12
REMARK    8  A    between atoms: O_12  and  C_13
REMARK    9  A    between atoms: C_28  and  N_29
REMARK                            x       y       z     vdW  Elec       q    Type
REMARK                         _______ _______ _______ _____ _____    ______ ____
ROOT
ATOM      1  C   UNL     1       9.876  -0.160  22.144  0.00  0.00    +0.019 C 
ATOM      2  C   UNL     1       9.102   0.258  23.416  0.00  0.00    +0.023 C 
ATOM      3  C   UNL     1       7.625  -0.141  23.196  0.00  0.00    +0.019 C 
ENDROOT
BRANCH   2   4
ATOM      4  C   UNL     1       9.300   1.766  23.632  0.00  0.00    +0.051 A 
ATOM      5  C   UNL     1       8.285   2.600  24.083  0.00  0.00    +0.025 A 
ATOM      6  C   UNL     1       8.561   3.946  24.263  0.00  0.00    +0.017 A 
ATOM      7  C   UNL     1       9.844   4.443  23.974  0.00  0.00    +0.059 A 
ATOM      8  C   UNL     1      10.819   3.565  23.517  0.00  0.00    +0.167 A 
ATOM      9  N   UNL     1      12.042   3.979  23.213  0.00  0.00    -0.195 NA
ATOM     10  C   UNL     1      12.311   5.274  23.346  0.00  0.00    +0.216 A 
ATOM     11  N   UNL     1      11.465   6.193  23.810  0.00  0.00    -0.199 NA
ATOM     12  N   UNL     1      13.568   5.715  22.986  0.00  0.00    -0.327 N 
ATOM     13  H   UNL     1      13.785   6.582  23.457  0.00  0.00    +0.145 HD
ATOM     14  H   UNL     1      14.239   4.963  23.059  0.00  0.00    +0.145 HD
ATOM     15  C   UNL     1      10.235   5.772  24.110  0.00  0.00    +0.131 A 
ATOM     16  N   UNL     1      10.546   2.261  23.362  0.00  0.00    -0.231 NA
BRANCH  15  17
ATOM     17  N   UNL     1       9.372   6.753  24.611  0.00  0.00    -0.342 N 
ATOM     18  H   UNL     1       8.624   6.967  23.962  0.00  0.00    +0.144 HD
ATOM     19  H   UNL     1       9.934   7.576  24.814  0.00  0.00    +0.144 HD
ENDBRANCH  15  17
ENDBRANCH   2   4
BRANCH   2  20
ATOM     20  C   UNL     1       9.618  -0.528  24.659  0.00  0.00    +0.117 C 
BRANCH  20  21
ATOM     21  N   UNL     1       8.800  -1.680  24.990  0.00  0.00    -0.310 N 
ATOM     22  H   UNL     1       7.807  -1.487  25.118  0.00  0.00    +0.149 HD
ATOM     23  C   UNL     1       9.157  -2.973  24.691  0.00  0.00    +0.244 C 
ATOM     24  O   UNL     1      10.188  -3.286  24.110  0.00  0.00    -0.270 OA
BRANCH  23  25
ATOM     25  C   UNL     1       8.176  -4.007  25.134  0.00  0.00    +0.037 A 
ATOM     26  C   UNL     1       7.240  -4.531  24.231  0.00  0.00    +0.016 A 
ATOM     27  C   UNL     1       6.303  -5.474  24.651  0.00  0.00    +0.047 A 
ATOM     28  C   UNL     1       6.248  -5.857  25.993  0.00  0.00    +0.128 A 
ATOM     29  C   UNL     1       7.201  -5.362  26.889  0.00  0.00    +0.047 A 
ATOM     30  C   UNL     1       8.161  -4.434  26.466  0.00  0.00    +0.016 A 
BRANCH  28  31
ATOM     31  O   UNL     1       5.338  -6.751  26.513  0.00  0.00    -0.456 OA
BRANCH  31  32
ATOM     32  C   UNL     1       4.008  -6.678  26.163  0.00  0.00    +0.128 A 
ATOM     33  C   UNL     1       3.383  -7.517  25.235  0.00  0.00    +0.046 A 
ATOM     34  C   UNL     1       2.019  -7.376  24.970  0.00  0.00    +0.004 A 
ATOM     35  C   UNL     1       1.287  -6.362  25.585  0.00  0.00    +0.000 A 
ATOM     36  C   UNL     1       1.923  -5.478  26.457  0.00  0.00    +0.004 A 
ATOM     37  C   UNL     1       3.280  -5.636  26.744  0.00  0.00    +0.046 A 
ENDBRANCH  31  32
ENDBRANCH  28  31
ENDBRANCH  23  25
ENDBRANCH  20  21
ENDBRANCH   2  20
TORSDOF 7
ENDMDL
MODEL 5
REMARK VINA RESULT:      -7.9      2.921      4.503
REMARK  Name = 
REMARK  9 active torsions:
REMARK  status: ('A' for Active; 'I' for Inactive)
REMARK    1  A    between atoms: C_1  and  C_2
REMARK    2  A    between atoms: C_2  and  C_3
REMARK    3  A    between atoms: C_2  and  C_4
REMARK    4  A    between atoms: C_2  and  C_21
REMARK    5  A    between atoms: C_4  and  N_5
REMARK    6  A    between atoms: C_6  and  C_8
REMARK    7  A    between atoms: C_11  and  O_12
REMARK    8  A    between atoms: O_12  and  C_13
REMARK    9  A    between atoms: C_28  and  N_29
REMARK                            x       y       z     vdW  Elec       q    Type
REMARK                         _______ _______ _______ _____ _____    ______ ____
ROOT
ATOM      1  C   UNL     1       7.097  -4.751  23.932  0.00  0.00    +0.019 C 
ATOM      2  C   UNL     1       7.928  -3.993  24.993  0.00  0.00    +0.023 C 
ATOM      3  C   UNL     1       8.009  -4.906  26.238  0.00  0.00    +0.019 C 
ENDROOT
BRANCH   2   4
ATOM      4  C   UNL     1       7.248  -2.643  25.269  0.00  0.00    +0.051 A 
ATOM      5  C   UNL     1       6.241  -2.131  24.461  0.00  0.00    +0.025 A 
ATOM      6  C   UNL     1       5.676  -0.911  24.796  0.00  0.00    +0.017 A 
ATOM      7  C   UNL     1       6.135  -0.212  25.926  0.00  0.00    +0.059 A 
ATOM      8  C   UNL     1       7.151  -0.768  26.694  0.00  0.00    +0.167 A 
ATOM      9  N   UNL     1       7.636  -0.148  27.762  0.00  0.00    -0.195 NA
ATOM     10  C   UNL     1       7.128   1.040  28.075  0.00  0.00    +0.216 A 
ATOM     11  N   UNL     1       6.130   1.645  27.432  0.00  0.00    -0.199 NA
ATOM     12  N   UNL     1       7.663   1.707  29.158  0.00  0.00    -0.327 N 
ATOM     13  H   UNL     1       6.998   2.374  29.524  0.00  0.00    +0.145 HD
ATOM     14  H   UNL     1       8.074   1.053  29.808  0.00  0.00    +0.145 HD
ATOM     15  C   UNL     1       5.649   1.019  26.356  0.00  0.00    +0.131 A 
ATOM     16  N   UNL     1       7.680  -1.957  26.370  0.00  0.00    -0.231 NA
BRANCH  15  17
ATOM     17  N   UNL     1       4.591   1.667  25.710  0.00  0.00    -0.342 N 
ATOM     18  H   UNL     1       4.822   2.625  25.475  0.00  0.00    +0.144 HD
ATOM     19  H   UNL     1       3.784   1.621  26.328  0.00  0.00    +0.144 HD
ENDBRANCH  15  17
ENDBRANCH   2   4
BRANCH   2  20
ATOM     20  C   UNL     1       9.384  -3.759  24.490  0.00  0.00    +0.117 C 
BRANCH  20  21
ATOM     21  N   UNL     1       9.699  -2.359  24.277  0.00  0.00    -0.310 N 
ATOM     22  H   UNL     1      10.296  -1.934  24.985  0.00  0.00    +0.149 HD
ATOM     23  C   UNL     1       9.653  -1.751  23.045  0.00  0.00    +0.244 C 
ATOM     24  O   UNL     1       9.355  -2.324  22.005  0.00  0.00    -0.270 OA
BRANCH  23  25
ATOM     25  C   UNL     1      10.001  -0.299  23.054  0.00  0.00    +0.037 A 
ATOM     26  C   UNL     1      10.548   0.292  24.202  0.00  0.00    +0.016 A 
ATOM     27  C   UNL     1      10.844   1.655  24.223  0.00  0.00    +0.047 A 
ATOM     28  C   UNL     1      10.539   2.454  23.119  0.00  0.00    +0.128 A 
ATOM     29  C   UNL     1      10.026   1.861  21.961  0.00  0.00    +0.047 A 
ATOM     30  C   UNL     1       9.750   0.489  21.927  0.00  0.00    +0.016 A 
BRANCH  28  31
ATOM     31  O   UNL     1      10.759   3.812  23.055  0.00  0.00    -0.456 OA
BRANCH  31  32
ATOM     32  C   UNL     1       9.978   4.682  23.783  0.00  0.00    +0.128 A 
ATOM     33  C   UNL     1       8.615   4.501  24.040  0.00  0.00    +0.046 A 
ATOM     34  C   UNL     1       7.918   5.431  24.814  0.00  0.00    +0.004 A 
ATOM     35  C   UNL     1       8.563   6.574  25.284  0.00  0.00    +0.000 A 
ATOM     36  C   UNL     1       9.903   6.794  24.969  0.00  0.00    +0.004 A 
ATOM     37  C   UNL     1      10.608   5.851  24.220  0.00  0.00    +0.046 A 
ENDBRANCH  31  32
ENDBRANCH  28  31
ENDBRANCH  23  25
ENDBRANCH  20  21
ENDBRANCH   2  20
TORSDOF 7
ENDMDL
MODEL 6
REMARK VINA RESULT:      -7.8      1.457      1.860
REMARK  Name = 
REMARK  9 active torsions:
REMARK  status: ('A' for Active; 'I' for Inactive)
REMARK    1  A    between atoms: C_1  and  C_2
REMARK    2  A    between atoms: C_2  and  C_3
REMARK    3  A    between atoms: C_2  and  C_4
REMARK    4  A    between atoms: C_2  and  C_21
REMARK    5  A    between atoms: C_4  and  N_5
REMARK    6  A    between atoms: C_6  and  C_8
REMARK    7  A    between atoms: C_11  and  O_12
REMARK    8  A    between atoms: O_12  and  C_13
REMARK    9  A    between atoms: C_28  and  N_29
REMARK                            x       y       z     vdW  Elec       q    Type
REMARK                         _______ _______ _______ _____ _____    ______ ____
ROOT
ATOM      1  C   UNL     1       8.864  -4.921  24.498  0.00  0.00    +0.019 C 
ATOM      2  C   UNL     1       7.674  -3.993  24.159  0.00  0.00    +0.023 C 
ATOM      3  C   UNL     1       7.605  -2.923  25.272  0.00  0.00    +0.019 C 
ENDROOT
BRANCH   2   4
ATOM      4  C   UNL     1       6.403  -4.850  24.056  0.00  0.00    +0.051 A 
ATOM      5  C   UNL     1       5.840  -5.215  22.840  0.00  0.00    +0.025 A 
ATOM      6  C   UNL     1       4.700  -6.003  22.845  0.00  0.00    +0.017 A 
ATOM      7  C   UNL     1       4.129  -6.402  24.067  0.00  0.00    +0.059 A 
ATOM      8  C   UNL     1       4.730  -6.001  25.254  0.00  0.00    +0.167 A 
ATOM      9  N   UNL     1       4.228  -6.333  26.436  0.00  0.00    -0.195 NA
ATOM     10  C   UNL     1       3.114  -7.059  26.456  0.00  0.00    +0.216 A 
ATOM     11  N   UNL     1       2.479  -7.527  25.382  0.00  0.00    -0.199 NA
ATOM     12  N   UNL     1       2.565  -7.366  27.683  0.00  0.00    -0.327 N 
ATOM     13  H   UNL     1       1.982  -8.188  27.613  0.00  0.00    +0.145 HD
ATOM     14  H   UNL     1       3.276  -7.360  28.401  0.00  0.00    +0.145 HD
ATOM     15  C   UNL     1       2.987  -7.186  24.196  0.00  0.00    +0.131 A 
ATOM     16  N   UNL     1       5.842  -5.252  25.237  0.00  0.00    -0.231 NA
BRANCH  15  17
ATOM     17  N   UNL     1       2.312  -7.705  23.086  0.00  0.00    -0.342 N 
ATOM     18  H   UNL     1       1.306  -7.647  23.193  0.00  0.00    +0.144 HD
ATOM     19  H   UNL     1       2.617  -8.668  22.967  0.00  0.00    +0.144 HD
ENDBRANCH  15  17
ENDBRANCH   2   4
BRANCH   2  20
ATOM     20  C   UNL     1       7.921  -3.249  22.811  0.00  0.00    +0.117 C 
BRANCH  20  21
ATOM     21  N   UNL     1       8.418  -1.897  22.985  0.00  0.00    -0.310 N 
ATOM     22  H   UNL     1       7.934  -1.343  23.691  0.00  0.00    +0.149 HD
ATOM     23  C   UNL     1       9.689  -1.507  22.640  0.00  0.00    +0.244 C 
ATOM     24  O   UNL     1      10.534  -2.255  22.165  0.00  0.00    -0.270 OA
BRANCH  23  25
ATOM     25  C   UNL     1       9.987  -0.066  22.890  0.00  0.00    +0.037 A 
ATOM     26  C   UNL     1      10.564   0.340  24.101  0.00  0.00    +0.016 A 
ATOM     27  C   UNL     1      10.814   1.689  24.349  0.00  0.00    +0.047 A 
ATOM     28  C   UNL     1      10.431   2.655  23.415  0.00  0.00    +0.128 A 
ATOM     29  C   UNL     1       9.887   2.251  22.192  0.00  0.00    +0.047 A 
ATOM     30  C   UNL     1       9.657   0.895  21.929  0.00  0.00    +0.016 A 
BRANCH  28  31
ATOM     31  O   UNL     1      10.601   4.012  23.582  0.00  0.00    -0.456 OA
BRANCH  31  32
ATOM     32  C   UNL     1       9.523   4.822  23.865  0.00  0.00    +0.128 A 
ATOM     33  C   UNL     1       9.216   6.003  23.182  0.00  0.00    +0.046 A 
ATOM     34  C   UNL     1       8.082   6.740  23.531  0.00  0.00    +0.004 A 
ATOM     35  C   UNL     1       7.285   6.334  24.600  0.00  0.00    +0.000 A 
ATOM     36  C   UNL     1       7.628   5.196  25.329  0.00  0.00    +0.004 A 
ATOM     37  C   UNL     1       8.745   4.442  24.963  0.00  0.00    +0.046 A 
ENDBRANCH  31  32
ENDBRANCH  28  31
ENDBRANCH  23  25
ENDBRANCH  20  21
ENDBRANCH   2  20
TORSDOF 7
ENDMDL
MODEL 7
REMARK VINA RESULT:      -7.6      3.050      5.442
REMARK  Name = 
REMARK  9 active torsions:
REMARK  status: ('A' for Active; 'I' for Inactive)
REMARK    1  A    between atoms: C_1  and  C_2
REMARK    2  A    between atoms: C_2  and  C_3
REMARK    3  A    between atoms: C_2  and  C_4
REMARK    4  A    between atoms: C_2  and  C_21
REMARK    5  A    between atoms: C_4  and  N_5
REMARK    6  A    between atoms: C_6  and  C_8
REMARK    7  A    between atoms: C_11  and  O_12
REMARK    8  A    between atoms: O_12  and  C_13
REMARK    9  A    between atoms: C_28  and  N_29
REMARK                            x       y       z     vdW  Elec       q    Type
REMARK                         _______ _______ _______ _____ _____    ______ ____
ROOT
ATOM      1  C   UNL     1       3.923  -6.552  28.532  0.00  0.00    +0.019 C 
ATOM      2  C   UNL     1       3.384  -5.558  27.477  0.00  0.00    +0.023 C 
ATOM      3  C   UNL     1       2.016  -6.101  27.003  0.00  0.00    +0.019 C 
ENDROOT
BRANCH   2   4
ATOM      4  C   UNL     1       4.418  -5.441  26.346  0.00  0.00    +0.051 A 
ATOM      5  C   UNL     1       4.059  -5.291  25.013  0.00  0.00    +0.025 A 
ATOM      6  C   UNL     1       5.061  -5.177  24.063  0.00  0.00    +0.017 A 
ATOM      7  C   UNL     1       6.410  -5.232  24.458  0.00  0.00    +0.059 A 
ATOM      8  C   UNL     1       6.712  -5.393  25.805  0.00  0.00    +0.167 A 
ATOM      9  N   UNL     1       7.965  -5.467  26.234  0.00  0.00    -0.195 NA
ATOM     10  C   UNL     1       8.936  -5.396  25.330  0.00  0.00    +0.216 A 
ATOM     11  N   UNL     1       8.761  -5.206  24.023  0.00  0.00    -0.199 NA
ATOM     12  N   UNL     1      10.239  -5.520  25.769  0.00  0.00    -0.327 N 
ATOM     13  H   UNL     1      10.875  -5.094  25.109  0.00  0.00    +0.145 HD
ATOM     14  H   UNL     1      10.313  -5.240  26.737  0.00  0.00    +0.145 HD
ATOM     15  C   UNL     1       7.499  -5.136  23.596  0.00  0.00    +0.131 A 
ATOM     16  N   UNL     1       5.734  -5.484  26.717  0.00  0.00    -0.231 NA
BRANCH  15  17
ATOM     17  N   UNL     1       7.343  -4.918  22.223  0.00  0.00    -0.342 N 
ATOM     18  H   UNL     1       6.404  -5.135  21.910  0.00  0.00    +0.144 HD
ATOM     19  H   UNL     1       8.035  -5.490  21.744  0.00  0.00    +0.144 HD
ENDBRANCH  15  17
ENDBRANCH   2   4
BRANCH   2  20
ATOM     20  C   UNL     1       3.135  -4.158  28.114  0.00  0.00    +0.117 C 
BRANCH  20  21
ATOM     21  N   UNL     1       4.058  -3.141  27.644  0.00  0.00    -0.310 N 
ATOM     22  H   UNL     1       5.043  -3.400  27.674  0.00  0.00    +0.149 HD
ATOM     23  C   UNL     1       3.698  -2.130  26.785  0.00  0.00    +0.244 C 
ATOM     24  O   UNL     1       2.573  -1.988  26.321  0.00  0.00    -0.270 OA
BRANCH  23  25
ATOM     25  C   UNL     1       4.800  -1.185  26.441  0.00  0.00    +0.037 A 
ATOM     26  C   UNL     1       6.041  -1.670  26.006  0.00  0.00    +0.016 A 
ATOM     27  C   UNL     1       7.082  -0.789  25.715  0.00  0.00    +0.047 A 
ATOM     28  C   UNL     1       6.915   0.584  25.915  0.00  0.00    +0.128 A 
ATOM     29  C   UNL     1       5.667   1.073  26.316  0.00  0.00    +0.047 A 
ATOM     30  C   UNL     1       4.612   0.194  26.586  0.00  0.00    +0.016 A 
BRANCH  28  31
ATOM     31  O   UNL     1       7.891   1.529  25.691  0.00  0.00    -0.456 OA
BRANCH  31  32
ATOM     32  C   UNL     1       8.593   1.542  24.506  0.00  0.00    +0.128 A 
ATOM     33  C   UNL     1       9.949   1.220  24.383  0.00  0.00    +0.046 A 
ATOM     34  C   UNL     1      10.562   1.239  23.127  0.00  0.00    +0.004 A 
ATOM     35  C   UNL     1       9.840   1.634  22.002  0.00  0.00    +0.000 A 
ATOM     36  C   UNL     1       8.508   2.024  22.132  0.00  0.00    +0.004 A 
ATOM     37  C   UNL     1       7.886   1.979  23.382  0.00  0.00    +0.046 A 
ENDBRANCH  31  32
ENDBRANCH  28  31
ENDBRANCH  23  25
ENDBRANCH  20  21
ENDBRANCH   2  20
TORSDOF 7
ENDMDL
MODEL 8
REMARK VINA RESULT:      -7.6      3.237      8.106
REMARK  Name = 
REMARK  9 active torsions:
REMARK  status: ('A' for Active; 'I' for Inactive)
REMARK    1  A    between atoms: C_1  and  C_2
REMARK    2  A    between atoms: C_2  and  C_3
REMARK    3  A    between atoms: C_2  and  C_4
REMARK    4  A    between atoms: C_2  and  C_21
REMARK    5  A    between atoms: C_4  and  N_5
REMARK    6  A    between atoms: C_6  and  C_8
REMARK    7  A    between atoms: C_11  and  O_12
REMARK    8  A    between atoms: O_12  and  C_13
REMARK    9  A    between atoms: C_28  and  N_29
REMARK                            x       y       z     vdW  Elec       q    Type
REMARK                         _______ _______ _______ _____ _____    ______ ____
ROOT
ATOM      1  C   UNL     1       7.035   5.794  23.834  0.00  0.00    +0.019 C 
ATOM      2  C   UNL     1       6.586   4.377  23.407  0.00  0.00    +0.023 C 
ATOM      3  C   UNL     1       5.186   4.521  22.767  0.00  0.00    +0.019 C 
ENDROOT
BRANCH   2   4
ATOM      4  C   UNL     1       6.600   3.468  24.646  0.00  0.00    +0.051 A 
ATOM      5  C   UNL     1       7.339   3.764  25.784  0.00  0.00    +0.025 A 
ATOM      6  C   UNL     1       7.279   2.892  26.860  0.00  0.00    +0.017 A 
ATOM      7  C   UNL     1       6.495   1.728  26.776  0.00  0.00    +0.059 A 
ATOM      8  C   UNL     1       5.783   1.478  25.609  0.00  0.00    +0.167 A 
ATOM      9  N   UNL     1       5.039   0.389  25.466  0.00  0.00    -0.195 NA
ATOM     10  C   UNL     1       5.002  -0.474  26.476  0.00  0.00    +0.216 A 
ATOM     11  N   UNL     1       5.612  -0.315  27.650  0.00  0.00    -0.199 NA
ATOM     12  N   UNL     1       4.266  -1.630  26.312  0.00  0.00    -0.327 N 
ATOM     13  H   UNL     1       4.000  -2.009  27.210  0.00  0.00    +0.145 HD
ATOM     14  H   UNL     1       3.534  -1.489  25.630  0.00  0.00    +0.145 HD
ATOM     15  C   UNL     1       6.362   0.780  27.786  0.00  0.00    +0.131 A 
ATOM     16  N   UNL     1       5.835   2.337  24.580  0.00  0.00    -0.231 NA
BRANCH  15  17
ATOM     17  N   UNL     1       6.978   0.931  29.033  0.00  0.00    -0.342 N 
ATOM     18  H   UNL     1       7.902   0.515  29.052  0.00  0.00    +0.144 HD
ATOM     19  H   UNL     1       6.366   0.508  29.727  0.00  0.00    +0.144 HD
ENDBRANCH  15  17
ENDBRANCH   2   4
BRANCH   2  20
ATOM     20  C   UNL     1       7.541   3.801  22.317  0.00  0.00    +0.117 C 
BRANCH  20  21
ATOM     21  N   UNL     1       8.007   2.460  22.614  0.00  0.00    -0.310 N 
ATOM     22  H   UNL     1       7.462   1.707  22.195  0.00  0.00    +0.149 HD
ATOM     23  C   UNL     1       9.298   2.171  22.986  0.00  0.00    +0.244 C 
ATOM     24  O   UNL     1      10.187   3.007  23.095  0.00  0.00    -0.270 OA
BRANCH  23  25
ATOM     25  C   UNL     1       9.559   0.728  23.259  0.00  0.00    +0.037 A 
ATOM     26  C   UNL     1       9.987  -0.123  22.230  0.00  0.00    +0.016 A 
ATOM     27  C   UNL     1      10.201  -1.479  22.475  0.00  0.00    +0.047 A 
ATOM     28  C   UNL     1       9.929  -2.013  23.737  0.00  0.00    +0.128 A 
ATOM     29  C   UNL     1       9.535  -1.162  24.774  0.00  0.00    +0.047 A 
ATOM     30  C   UNL     1       9.343   0.205  24.538  0.00  0.00    +0.016 A 
BRANCH  28  31
ATOM     31  O   UNL     1      10.073  -3.342  24.069  0.00  0.00    -0.456 OA
BRANCH  31  32
ATOM     32  C   UNL     1       9.068  -4.010  24.733  0.00  0.00    +0.128 A 
ATOM     33  C   UNL     1       9.144  -4.439  26.062  0.00  0.00    +0.046 A 
ATOM     34  C   UNL     1       8.055  -5.087  26.652  0.00  0.00    +0.004 A 
ATOM     35  C   UNL     1       6.913  -5.361  25.901  0.00  0.00    +0.000 A 
ATOM     36  C   UNL     1       6.862  -4.998  24.555  0.00  0.00    +0.004 A 
ATOM     37  C   UNL     1       7.938  -4.325  23.973  0.00  0.00    +0.046 A 
ENDBRANCH  31  32
ENDBRANCH  28  31
ENDBRANCH  23  25
ENDBRANCH  20  21
ENDBRANCH   2  20
TORSDOF 7
ENDMDL
MODEL 9
REMARK VINA RESULT:      -7.6      3.922      9.972
REMARK  Name = 
REMARK  9 active torsions:
REMARK  status: ('A' for Active; 'I' for Inactive)
REMARK    1  A    between atoms: C_1  and  C_2
REMARK    2  A    between atoms: C_2  and  C_3
REMARK    3  A    between atoms: C_2  and  C_4
REMARK    4  A    between atoms: C_2  and  C_21
REMARK    5  A    between atoms: C_4  and  N_5
REMARK    6  A    between atoms: C_6  and  C_8
REMARK    7  A    between atoms: C_11  and  O_12
REMARK    8  A    between atoms: O_12  and  C_13
REMARK    9  A    between atoms: C_28  and  N_29
REMARK                            x       y       z     vdW  Elec       q    Type
REMARK                         _______ _______ _______ _____ _____    ______ ____
ROOT
ATOM      1  C   UNL     1       9.218  -0.311  25.588  0.00  0.00    +0.019 C 
ATOM      2  C   UNL     1       9.996   0.228  24.365  0.00  0.00    +0.023 C 
ATOM      3  C   UNL     1      11.420   0.577  24.855  0.00  0.00    +0.019 C 
ENDROOT
BRANCH   2   4
ATOM      4  C   UNL     1       9.233   1.435  23.797  0.00  0.00    +0.051 A 
ATOM      5  C   UNL     1       9.868   2.605  23.401  0.00  0.00    +0.025 A 
ATOM      6  C   UNL     1       9.100   3.636  22.886  0.00  0.00    +0.017 A 
ATOM      7  C   UNL     1       7.704   3.491  22.789  0.00  0.00    +0.059 A 
ATOM      8  C   UNL     1       7.121   2.301  23.209  0.00  0.00    +0.167 A 
ATOM      9  N   UNL     1       5.809   2.112  23.157  0.00  0.00    -0.195 NA
ATOM     10  C   UNL     1       5.056   3.106  22.699  0.00  0.00    +0.216 A 
ATOM     11  N   UNL     1       5.512   4.270  22.237  0.00  0.00    -0.199 NA
ATOM     12  N   UNL     1       3.688   2.929  22.687  0.00  0.00    -0.327 N 
ATOM     13  H   UNL     1       3.259   3.542  22.009  0.00  0.00    +0.145 HD
ATOM     14  H   UNL     1       3.459   1.946  22.637  0.00  0.00    +0.145 HD
ATOM     15  C   UNL     1       6.833   4.456  22.296  0.00  0.00    +0.131 A 
ATOM     16  N   UNL     1       7.876   1.303  23.690  0.00  0.00    -0.231 NA
BRANCH  15  17
ATOM     17  N   UNL     1       7.287   5.678  21.789  0.00  0.00    -0.342 N 
ATOM     18  H   UNL     1       6.743   6.459  22.138  0.00  0.00    +0.144 HD
ATOM     19  H   UNL     1       7.244   5.621  20.774  0.00  0.00    +0.144 HD
ENDBRANCH  15  17
ENDBRANCH   2   4
BRANCH   2  20
ATOM     20  C   UNL     1      10.135  -0.873  23.271  0.00  0.00    +0.117 C 
BRANCH  20  21
ATOM     21  N   UNL     1       8.949  -1.698  23.133  0.00  0.00    -0.310 N 
ATOM     22  H   UNL     1       8.314  -1.426  22.384  0.00  0.00    +0.149 HD
ATOM     23  C   UNL     1       8.871  -2.993  23.586  0.00  0.00    +0.244 C 
ATOM     24  O   UNL     1       9.789  -3.587  24.137  0.00  0.00    -0.270 OA
BRANCH  23  25
ATOM     25  C   UNL     1       7.553  -3.654  23.354  0.00  0.00    +0.037 A 
ATOM     26  C   UNL     1       7.492  -4.951  22.826  0.00  0.00    +0.016 A 
ATOM     27  C   UNL     1       6.261  -5.558  22.579  0.00  0.00    +0.047 A 
ATOM     28  C   UNL     1       5.076  -4.852  22.799  0.00  0.00    +0.128 A 
ATOM     29  C   UNL     1       5.133  -3.571  23.358  0.00  0.00    +0.047 A 
ATOM     30  C   UNL     1       6.366  -2.968  23.630  0.00  0.00    +0.016 A 
BRANCH  28  31
ATOM     31  O   UNL     1       3.815  -5.349  22.553  0.00  0.00    -0.456 OA
BRANCH  31  32
ATOM     32  C   UNL     1       3.150  -6.074  23.518  0.00  0.00    +0.128 A 
ATOM     33  C   UNL     1       3.776  -6.820  24.522  0.00  0.00    +0.046 A 
ATOM     34  C   UNL     1       3.008  -7.501  25.470  0.00  0.00    +0.004 A 
ATOM     35  C   UNL     1       1.616  -7.487  25.385  0.00  0.00    +0.000 A 
ATOM     36  C   UNL     1       0.991  -6.803  24.342  0.00  0.00    +0.004 A 
ATOM     37  C   UNL     1       1.757  -6.099  23.411  0.00  0.00    +0.046 A 
ENDBRANCH  31  32
ENDBRANCH  28  31
ENDBRANCH  23  25
ENDBRANCH  20  21
ENDBRANCH   2  20
TORSDOF 7
ENDMDL
