MODEL 1
REMARK VINA RESULT:      -7.5      0.000      0.000
REMARK  Name = 
REMARK  7 active torsions:
REMARK  status: ('A' for Active; 'I' for Inactive)
REMARK    1  A    between atoms: C_1  and  C_2
REMARK    2  A    between atoms: C_2  and  C_3
REMARK    3  A    between atoms: C_2  and  C_4
REMARK    4  A    between atoms: C_2  and  N_5
REMARK    5  A    between atoms: N_5  and  S_6
REMARK    6  A    between atoms: S_6  and  C_9
REMARK    7  A    between atoms: C_12  and  C_15
REMARK                            x       y       z     vdW  Elec       q    Type
REMARK                         _______ _______ _______ _____ _____    ______ ____
ROOT
ATOM      1  C   UNL     1       9.009  -3.000  24.773  0.00  0.00    +0.105 A 
ATOM      2  C   UNL     1       9.924  -2.497  23.847  0.00  0.00    +0.029 A 
ATOM      3  C   UNL     1       9.920  -1.134  23.551  0.00  0.00    +0.010 A 
ATOM      4  C   UNL     1       9.030  -0.241  24.184  0.00  0.00    -0.018 A 
ATOM      5  C   UNL     1       8.169  -0.774  25.163  0.00  0.00    +0.010 A 
ATOM      6  C   UNL     1       8.155  -2.141  25.461  0.00  0.00    +0.029 A 
ENDROOT
BRANCH   4   7
ATOM      7  C   UNL     1       8.992   1.195  23.811  0.00  0.00    -0.017 A 
ATOM      8  C   UNL     1      10.080   2.050  24.073  0.00  0.00    +0.010 A 
ATOM      9  C   UNL     1      10.062   3.422  23.768  0.00  0.00    +0.028 A 
ATOM     10  C   UNL     1       8.892   3.929  23.204  0.00  0.00    +0.068 A 
ATOM     11  N   UNL     1       8.533   5.188  22.814  0.00  0.00    -0.275 N 
ATOM     12  H   UNL     1       9.088   6.034  22.865  0.00  0.00    +0.189 HD
ATOM     13  N   UNL     1       7.285   5.281  22.321  0.00  0.00    -0.158 NA
ATOM     14  C   UNL     1       6.832   4.032  22.373  0.00  0.00    +0.146 A 
ATOM     15  N   UNL     1       5.609   3.675  21.959  0.00  0.00    -0.341 N 
ATOM     16  H   UNL     1       5.196   2.790  22.218  0.00  0.00    +0.144 HD
ATOM     17  H   UNL     1       4.948   4.418  21.769  0.00  0.00    +0.144 HD
ATOM     18  C   UNL     1       7.785   3.135  22.922  0.00  0.00    +0.041 A 
ATOM     19  C   UNL     1       7.845   1.758  23.211  0.00  0.00    +0.022 A 
ENDBRANCH   4   7
BRANCH   1  20
ATOM     20  S   UNL     1       8.947  -4.750  25.044  0.00  0.00    +0.059 S 
ATOM     21  O   UNL     1      10.321  -5.189  25.159  0.00  0.00    -0.153 OA
ATOM     22  O   UNL     1       7.975  -5.016  26.079  0.00  0.00    -0.153 OA
BRANCH  20  23
ATOM     23  N   UNL     1       8.382  -5.342  23.566  0.00  0.00    -0.185 NA
ATOM     24  H   UNL     1       9.139  -5.411  22.886  0.00  0.00    +0.149 HD
BRANCH  23  26
ATOM     25  C   UNL     1       6.972  -3.751  22.255  0.00  0.00    +0.029 C 
ATOM     26  C   UNL     1       7.034  -5.081  23.001  0.00  0.00    +0.032 C 
ATOM     27  C   UNL     1       6.748  -6.212  21.991  0.00  0.00    +0.029 C 
ATOM     28  C   UNL     1       5.966  -5.162  24.097  0.00  0.00    +0.029 C 
ENDBRANCH  23  26
ENDBRANCH  20  23
ENDBRANCH   1  20
TORSDOF 4
ENDMDL
MODEL 2
REMARK VINA RESULT:      -7.4      1.507      2.421
REMARK  Name = 
REMARK  7 active torsions:
REMARK  status: ('A' for Active; 'I' for Inactive)
REMARK    1  A    between atoms: C_1  and  C_2
REMARK    2  A    between atoms: C_2  and  C_3
REMARK    3  A    between atoms: C_2  and  C_4
REMARK    4  A    between atoms: C_2  and  N_5
REMARK    5  A    between atoms: N_5  and  S_6
REMARK    6  A    between atoms: S_6  and  C_9
REMARK    7  A    between atoms: C_12  and  C_15
REMARK                            x       y       z     vdW  Elec       q    Type
REMARK                         _______ _______ _______ _____ _____    ______ ____
ROOT
ATOM      1  C   UNL     1       9.171  -2.482  24.736  0.00  0.00    +0.105 A 
ATOM      2  C   UNL     1       9.811  -1.986  23.600  0.00  0.00    +0.029 A 
ATOM      3  C   UNL     1       9.919  -0.606  23.422  0.00  0.00    +0.010 A 
ATOM      4  C   UNL     1       9.421   0.304  24.378  0.00  0.00    -0.018 A 
ATOM      5  C   UNL     1       8.844  -0.235  25.543  0.00  0.00    +0.010 A 
ATOM      6  C   UNL     1       8.718  -1.616  25.728  0.00  0.00    +0.029 A 
ENDROOT
BRANCH   4   7
ATOM      7  C   UNL     1       9.485   1.769  24.144  0.00  0.00    -0.017 A 
ATOM      8  C   UNL     1       8.317   2.551  24.069  0.00  0.00    +0.010 A 
ATOM      9  C   UNL     1       8.339   3.933  23.811  0.00  0.00    +0.028 A 
ATOM     10  C   UNL     1       9.589   4.516  23.601  0.00  0.00    +0.068 A 
ATOM     11  N   UNL     1       9.966   5.797  23.311  0.00  0.00    -0.275 N 
ATOM     12  H   UNL     1       9.368   6.606  23.192  0.00  0.00    +0.189 HD
ATOM     13  N   UNL     1      11.292   5.964  23.163  0.00  0.00    -0.158 NA
ATOM     14  C   UNL     1      11.789   4.751  23.388  0.00  0.00    +0.146 A 
ATOM     15  N   UNL     1      13.100   4.475  23.349  0.00  0.00    -0.341 N 
ATOM     16  H   UNL     1      13.443   3.526  23.286  0.00  0.00    +0.144 HD
ATOM     17  H   UNL     1      13.711   5.180  22.957  0.00  0.00    +0.144 HD
ATOM     18  C   UNL     1      10.778   3.796  23.662  0.00  0.00    +0.041 A 
ATOM     19  C   UNL     1      10.723   2.419  23.954  0.00  0.00    +0.022 A 
ENDBRANCH   4   7
BRANCH   1  20
ATOM     20  S   UNL     1       8.934  -4.233  24.884  0.00  0.00    +0.059 S 
ATOM     21  O   UNL     1      10.255  -4.822  24.851  0.00  0.00    -0.153 OA
ATOM     22  O   UNL     1       8.018  -4.477  25.973  0.00  0.00    -0.153 OA
BRANCH  20  23
ATOM     23  N   UNL     1       8.196  -4.639  23.418  0.00  0.00    -0.185 NA
ATOM     24  H   UNL     1       8.801  -4.413  22.630  0.00  0.00    +0.149 HD
BRANCH  23  26
ATOM     25  C   UNL     1       6.193  -3.153  23.297  0.00  0.00    +0.029 C 
ATOM     26  C   UNL     1       6.738  -4.571  23.149  0.00  0.00    +0.032 C 
ATOM     27  C   UNL     1       6.535  -5.013  21.685  0.00  0.00    +0.029 C 
ATOM     28  C   UNL     1       5.979  -5.562  24.037  0.00  0.00    +0.029 C 
ENDBRANCH  23  26
ENDBRANCH  20  23
ENDBRANCH   1  20
TORSDOF 4
ENDMDL
MODEL 3
REMARK VINA RESULT:      -7.4      3.681      8.698
REMARK  Name = 
REMARK  7 active torsions:
REMARK  status: ('A' for Active; 'I' for Inactive)
REMARK    1  A    between atoms: C_1  and  C_2
REMARK    2  A    between atoms: C_2  and  C_3
REMARK    3  A    between atoms: C_2  and  C_4
REMARK    4  A    between atoms: C_2  and  N_5
REMARK    5  A    between atoms: N_5  and  S_6
REMARK    6  A    between atoms: S_6  and  C_9
REMARK    7  A    between atoms: C_12  and  C_15
REMARK                            x       y       z     vdW  Elec       q    Type
REMARK                         _______ _______ _______ _____ _____    ______ ____
ROOT
ATOM      1  C   UNL     1       8.257  -2.652  22.926  0.00  0.00    +0.105 A 
ATOM      2  C   UNL     1       8.559  -3.357  24.090  0.00  0.00    +0.029 A 
ATOM      3  C   UNL     1       7.649  -4.294  24.580  0.00  0.00    +0.010 A 
ATOM      4  C   UNL     1       6.437  -4.567  23.911  0.00  0.00    -0.018 A 
ATOM      5  C   UNL     1       6.199  -3.886  22.702  0.00  0.00    +0.010 A 
ATOM      6  C   UNL     1       7.098  -2.936  22.207  0.00  0.00    +0.029 A 
ENDROOT
BRANCH   4   7
ATOM      7  C   UNL     1       5.448  -5.518  24.479  0.00  0.00    -0.017 A 
ATOM      8  C   UNL     1       5.533  -5.954  25.815  0.00  0.00    +0.010 A 
ATOM      9  C   UNL     1       4.637  -6.883  26.373  0.00  0.00    +0.028 A 
ATOM     10  C   UNL     1       3.648  -7.391  25.531  0.00  0.00    +0.068 A 
ATOM     11  N   UNL     1       2.652  -8.304  25.733  0.00  0.00    -0.275 N 
ATOM     12  H   UNL     1       2.436  -8.805  26.586  0.00  0.00    +0.189 HD
ATOM     13  N   UNL     1       1.896  -8.548  24.648  0.00  0.00    -0.158 NA
ATOM     14  C   UNL     1       2.410  -7.747  23.720  0.00  0.00    +0.146 A 
ATOM     15  N   UNL     1       1.934  -7.671  22.469  0.00  0.00    -0.341 N 
ATOM     16  H   UNL     1       2.467  -7.249  21.721  0.00  0.00    +0.144 HD
ATOM     17  H   UNL     1       1.275  -8.383  22.179  0.00  0.00    +0.144 HD
ATOM     18  C   UNL     1       3.513  -6.999  24.203  0.00  0.00    +0.041 A 
ATOM     19  C   UNL     1       4.408  -6.043  23.682  0.00  0.00    +0.022 A 
ENDBRANCH   4   7
BRANCH   1  20
ATOM     20  S   UNL     1       9.369  -1.380  22.387  0.00  0.00    +0.059 S 
ATOM     21  O   UNL     1      10.704  -1.887  22.619  0.00  0.00    -0.153 OA
ATOM     22  O   UNL     1       8.943  -0.926  21.084  0.00  0.00    -0.153 OA
BRANCH  20  23
ATOM     23  N   UNL     1       9.121  -0.156  23.526  0.00  0.00    -0.185 NA
ATOM     24  H   UNL     1       8.133  -0.073  23.764  0.00  0.00    +0.149 HD
BRANCH  23  26
ATOM     25  C   UNL     1      10.208   1.690  22.241  0.00  0.00    +0.029 C 
ATOM     26  C   UNL     1       9.910   1.098  23.616  0.00  0.00    +0.032 C 
ATOM     27  C   UNL     1       9.048   2.111  24.399  0.00  0.00    +0.029 C 
ATOM     28  C   UNL     1      11.195   0.870  24.420  0.00  0.00    +0.029 C 
ENDBRANCH  23  26
ENDBRANCH  20  23
ENDBRANCH   1  20
TORSDOF 4
ENDMDL
MODEL 4
REMARK VINA RESULT:      -7.3      3.211      8.188
REMARK  Name = 
REMARK  7 active torsions:
REMARK  status: ('A' for Active; 'I' for Inactive)
REMARK    1  A    between atoms: C_1  and  C_2
REMARK    2  A    between atoms: C_2  and  C_3
REMARK    3  A    between atoms: C_2  and  C_4
REMARK    4  A    between atoms: C_2  and  N_5
REMARK    5  A    between atoms: N_5  and  S_6
REMARK    6  A    between atoms: S_6  and  C_9
REMARK    7  A    between atoms: C_12  and  C_15
REMARK                            x       y       z     vdW  Elec       q    Type
REMARK                         _______ _______ _______ _____ _____    ______ ____
ROOT
ATOM      1  C   UNL     1       9.377  -0.488  23.742  0.00  0.00    +0.105 A 
ATOM      2  C   UNL     1       8.820  -1.010  24.909  0.00  0.00    +0.029 A 
ATOM      3  C   UNL     1       8.011  -2.144  24.835  0.00  0.00    +0.010 A 
ATOM      4  C   UNL     1       7.760  -2.796  23.610  0.00  0.00    -0.018 A 
ATOM      5  C   UNL     1       8.396  -2.281  22.463  0.00  0.00    +0.010 A 
ATOM      6  C   UNL     1       9.200  -1.138  22.522  0.00  0.00    +0.029 A 
ENDROOT
BRANCH   4   7
ATOM      7  C   UNL     1       6.844  -3.962  23.537  0.00  0.00    -0.017 A 
ATOM      8  C   UNL     1       6.248  -4.352  22.323  0.00  0.00    +0.010 A 
ATOM      9  C   UNL     1       5.347  -5.426  22.226  0.00  0.00    +0.028 A 
ATOM     10  C   UNL     1       5.034  -6.097  23.408  0.00  0.00    +0.068 A 
ATOM     11  N   UNL     1       4.199  -7.145  23.673  0.00  0.00    -0.275 N 
ATOM     12  H   UNL     1       3.623  -7.659  23.018  0.00  0.00    +0.189 HD
ATOM     13  N   UNL     1       4.154  -7.503  24.969  0.00  0.00    -0.158 NA
ATOM     14  C   UNL     1       5.008  -6.669  25.556  0.00  0.00    +0.146 A 
ATOM     15  N   UNL     1       5.274  -6.693  26.869  0.00  0.00    -0.341 N 
ATOM     16  H   UNL     1       5.730  -5.920  27.334  0.00  0.00    +0.144 HD
ATOM     17  H   UNL     1       4.664  -7.248  27.456  0.00  0.00    +0.144 HD
ATOM     18  C   UNL     1       5.590  -5.758  24.637  0.00  0.00    +0.041 A 
ATOM     19  C   UNL     1       6.514  -4.697  24.696  0.00  0.00    +0.022 A 
ENDBRANCH   4   7
BRANCH   1  20
ATOM     20  S   UNL     1      10.301   1.022  23.839  0.00  0.00    +0.059 S 
ATOM     21  O   UNL     1      11.535   0.696  24.519  0.00  0.00    -0.153 OA
ATOM     22  O   UNL     1      10.291   1.645  22.536  0.00  0.00    -0.153 OA
BRANCH  20  23
ATOM     23  N   UNL     1       9.394   1.950  24.920  0.00  0.00    -0.185 NA
ATOM     24  H   UNL     1       9.139   1.406  25.744  0.00  0.00    +0.149 HD
BRANCH  23  26
ATOM     25  C   UNL     1       7.442   2.543  23.479  0.00  0.00    +0.029 C 
ATOM     26  C   UNL     1       8.437   3.017  24.535  0.00  0.00    +0.032 C 
ATOM     27  C   UNL     1       7.646   3.387  25.808  0.00  0.00    +0.029 C 
ATOM     28  C   UNL     1       9.186   4.274  24.079  0.00  0.00    +0.029 C 
ENDBRANCH  23  26
ENDBRANCH  20  23
ENDBRANCH   1  20
TORSDOF 4
ENDMDL
MODEL 5
REMARK VINA RESULT:      -7.1      1.647      2.342
REMARK  Name = 
REMARK  7 active torsions:
REMARK  status: ('A' for Active; 'I' for Inactive)
REMARK    1  A    between atoms: C_1  and  C_2
REMARK    2  A    between atoms: C_2  and  C_3
REMARK    3  A    between atoms: C_2  and  C_4
REMARK    4  A    between atoms: C_2  and  N_5
REMARK    5  A    between atoms: N_5  and  S_6
REMARK    6  A    between atoms: S_6  and  C_9
REMARK    7  A    between atoms: C_12  and  C_15
REMARK                            x       y       z     vdW  Elec       q    Type
REMARK                         _______ _______ _______ _____ _____    ______ ____
ROOT
ATOM      1  C   UNL     1       8.321  -3.274  23.551  0.00  0.00    +0.105 A 
ATOM      2  C   UNL     1       7.295  -2.462  23.066  0.00  0.00    +0.029 A 
ATOM      3  C   UNL     1       7.497  -1.085  22.972  0.00  0.00    +0.010 A 
ATOM      4  C   UNL     1       8.725  -0.491  23.331  0.00  0.00    -0.018 A 
ATOM      5  C   UNL     1       9.760  -1.350  23.749  0.00  0.00    +0.010 A 
ATOM      6  C   UNL     1       9.566  -2.731  23.860  0.00  0.00    +0.029 A 
ENDROOT
BRANCH   4   7
ATOM      7  C   UNL     1       8.904   0.982  23.288  0.00  0.00    -0.017 A 
ATOM      8  C   UNL     1      10.079   1.593  23.765  0.00  0.00    +0.010 A 
ATOM      9  C   UNL     1      10.264   2.986  23.775  0.00  0.00    +0.028 A 
ATOM     10  C   UNL     1       9.208   3.768  23.307  0.00  0.00    +0.068 A 
ATOM     11  N   UNL     1       9.046   5.120  23.199  0.00  0.00    -0.275 N 
ATOM     12  H   UNL     1       9.706   5.844  23.453  0.00  0.00    +0.189 HD
ATOM     13  N   UNL     1       7.853   5.497  22.704  0.00  0.00    -0.158 NA
ATOM     14  C   UNL     1       7.234   4.345  22.462  0.00  0.00    +0.146 A 
ATOM     15  N   UNL     1       6.001   4.268  21.945  0.00  0.00    -0.341 N 
ATOM     16  H   UNL     1       5.457   3.416  21.988  0.00  0.00    +0.144 HD
ATOM     17  H   UNL     1       5.458   5.122  21.908  0.00  0.00    +0.144 HD
ATOM     18  C   UNL     1       8.023   3.223  22.823  0.00  0.00    +0.041 A 
ATOM     19  C   UNL     1       7.880   1.822  22.797  0.00  0.00    +0.022 A 
ENDBRANCH   4   7
BRANCH   1  20
ATOM     20  S   UNL     1       8.004  -5.003  23.779  0.00  0.00    +0.059 S 
ATOM     21  O   UNL     1       7.350  -5.455  22.571  0.00  0.00    -0.153 OA
ATOM     22  O   UNL     1       9.212  -5.626  24.269  0.00  0.00    -0.153 OA
BRANCH  20  23
ATOM     23  N   UNL     1       6.826  -5.015  24.990  0.00  0.00    -0.185 NA
ATOM     24  H   UNL     1       5.906  -4.795  24.607  0.00  0.00    +0.149 HD
BRANCH  23  26
ATOM     25  C   UNL     1       6.518  -3.205  26.683  0.00  0.00    +0.029 C 
ATOM     26  C   UNL     1       7.047  -4.608  26.400  0.00  0.00    +0.032 C 
ATOM     27  C   UNL     1       6.261  -5.604  27.279  0.00  0.00    +0.029 C 
ATOM     28  C   UNL     1       8.528  -4.737  26.772  0.00  0.00    +0.029 C 
ENDBRANCH  23  26
ENDBRANCH  20  23
ENDBRANCH   1  20
TORSDOF 4
ENDMDL
MODEL 6
REMARK VINA RESULT:      -7.1      3.235      8.146
REMARK  Name = 
REMARK  7 active torsions:
REMARK  status: ('A' for Active; 'I' for Inactive)
REMARK    1  A    between atoms: C_1  and  C_2
REMARK    2  A    between atoms: C_2  and  C_3
REMARK    3  A    between atoms: C_2  and  C_4
REMARK    4  A    between atoms: C_2  and  N_5
REMARK    5  A    between atoms: N_5  and  S_6
REMARK    6  A    between atoms: S_6  and  C_9
REMARK    7  A    between atoms: C_12  and  C_15
REMARK                            x       y       z     vdW  Elec       q    Type
REMARK                         _______ _______ _______ _____ _____    ______ ____
ROOT
ATOM      1  C   UNL     1       9.417  -0.728  24.519  0.00  0.00    +0.105 A 
ATOM      2  C   UNL     1       8.805  -0.778  25.771  0.00  0.00    +0.029 A 
ATOM      3  C   UNL     1       8.010  -1.876  26.102  0.00  0.00    +0.010 A 
ATOM      4  C   UNL     1       7.828  -2.953  25.210  0.00  0.00    -0.018 A 
ATOM      5  C   UNL     1       8.517  -2.900  23.983  0.00  0.00    +0.010 A 
ATOM      6  C   UNL     1       9.308  -1.800  23.635  0.00  0.00    +0.029 A 
ENDROOT
BRANCH   4   7
ATOM      7  C   UNL     1       6.926  -4.083  25.549  0.00  0.00    -0.017 A 
ATOM      8  C   UNL     1       6.866  -4.607  26.855  0.00  0.00    +0.010 A 
ATOM      9  C   UNL     1       6.053  -5.700  27.201  0.00  0.00    +0.028 A 
ATOM     10  C   UNL     1       5.304  -6.280  26.177  0.00  0.00    +0.068 A 
ATOM     11  N   UNL     1       4.447  -7.344  26.158  0.00  0.00    -0.275 N 
ATOM     12  H   UNL     1       4.181  -7.938  26.933  0.00  0.00    +0.189 HD
ATOM     13  N   UNL     1       3.921  -7.610  24.949  0.00  0.00    -0.158 NA
ATOM     14  C   UNL     1       4.442  -6.669  24.165  0.00  0.00    +0.146 A 
ATOM     15  N   UNL     1       4.165  -6.565  22.859  0.00  0.00    -0.341 N 
ATOM     16  H   UNL     1       4.735  -6.010  22.236  0.00  0.00    +0.144 HD
ATOM     17  H   UNL     1       3.683  -7.341  22.423  0.00  0.00    +0.144 HD
ATOM     18  C   UNL     1       5.321  -5.807  24.869  0.00  0.00    +0.041 A 
ATOM     19  C   UNL     1       6.123  -4.691  24.560  0.00  0.00    +0.022 A 
ENDBRANCH   4   7
BRANCH   1  20
ATOM     20  S   UNL     1      10.323   0.728  24.070  0.00  0.00    +0.059 S 
ATOM     21  O   UNL     1      11.629   0.594  24.679  0.00  0.00    -0.153 OA
ATOM     22  O   UNL     1      10.163   0.944  22.651  0.00  0.00    -0.153 OA
BRANCH  20  23
ATOM     23  N   UNL     1       9.524   1.948  24.925  0.00  0.00    -0.185 NA
ATOM     24  H   UNL     1       9.451   1.712  25.915  0.00  0.00    +0.149 HD
BRANCH  23  26
ATOM     25  C   UNL     1       7.376   1.969  23.652  0.00  0.00    +0.029 C 
ATOM     26  C   UNL     1       8.431   2.793  24.385  0.00  0.00    +0.032 C 
ATOM     27  C   UNL     1       7.755   3.474  25.593  0.00  0.00    +0.029 C 
ATOM     28  C   UNL     1       8.999   3.902  23.492  0.00  0.00    +0.029 C 
ENDBRANCH  23  26
ENDBRANCH  20  23
ENDBRANCH   1  20
TORSDOF 4
ENDMDL
MODEL 7
REMARK VINA RESULT:      -7.1      1.544      1.667
REMARK  Name = 
REMARK  7 active torsions:
REMARK  status: ('A' for Active; 'I' for Inactive)
REMARK    1  A    between atoms: C_1  and  C_2
REMARK    2  A    between atoms: C_2  and  C_3
REMARK    3  A    between atoms: C_2  and  C_4
REMARK    4  A    between atoms: C_2  and  N_5
REMARK    5  A    between atoms: N_5  and  S_6
REMARK    6  A    between atoms: S_6  and  C_9
REMARK    7  A    between atoms: C_12  and  C_15
REMARK                            x       y       z     vdW  Elec       q    Type
REMARK                         _______ _______ _______ _____ _____    ______ ____
ROOT
ATOM      1  C   UNL     1       8.776  -3.147  25.367  0.00  0.00    +0.105 A 
ATOM      2  C   UNL     1       9.518  -2.809  24.235  0.00  0.00    +0.029 A 
ATOM      3  C   UNL     1       9.740  -1.464  23.938  0.00  0.00    +0.010 A 
ATOM      4  C   UNL     1       9.256  -0.432  24.770  0.00  0.00    -0.018 A 
ATOM      5  C   UNL     1       8.572  -0.814  25.940  0.00  0.00    +0.010 A 
ATOM      6  C   UNL     1       8.331  -2.158  26.242  0.00  0.00    +0.029 A 
ENDROOT
BRANCH   4   7
ATOM      7  C   UNL     1       9.444   0.995  24.406  0.00  0.00    -0.017 A 
ATOM      8  C   UNL     1      10.561   1.421  23.662  0.00  0.00    +0.010 A 
ATOM      9  C   UNL     1      10.790   2.768  23.334  0.00  0.00    +0.028 A 
ATOM     10  C   UNL     1       9.863   3.699  23.803  0.00  0.00    +0.068 A 
ATOM     11  N   UNL     1       9.791   5.059  23.690  0.00  0.00    -0.275 N 
ATOM     12  H   UNL     1      10.438   5.675  23.214  0.00  0.00    +0.189 HD
ATOM     13  N   UNL     1       8.730   5.611  24.306  0.00  0.00    -0.158 NA
ATOM     14  C   UNL     1       8.082   4.566  24.814  0.00  0.00    +0.146 A 
ATOM     15  N   UNL     1       6.943   4.675  25.510  0.00  0.00    -0.341 N 
ATOM     16  H   UNL     1       6.594   3.920  26.083  0.00  0.00    +0.144 HD
ATOM     17  H   UNL     1       6.668   5.603  25.809  0.00  0.00    +0.144 HD
ATOM     18  C   UNL     1       8.740   3.339  24.542  0.00  0.00    +0.041 A 
ATOM     19  C   UNL     1       8.523   1.977  24.827  0.00  0.00    +0.022 A 
ENDBRANCH   4   7
BRANCH   1  20
ATOM     20  S   UNL     1       8.399  -4.854  25.661  0.00  0.00    +0.059 S 
ATOM     21  O   UNL     1       9.220  -5.611  24.741  0.00  0.00    -0.153 OA
ATOM     22  O   UNL     1       8.437  -5.089  27.085  0.00  0.00    -0.153 OA
BRANCH  20  23
ATOM     23  N   UNL     1       6.810  -4.991  25.103  0.00  0.00    -0.185 NA
ATOM     24  H   UNL     1       6.274  -5.636  25.683  0.00  0.00    +0.149 HD
BRANCH  23  26
ATOM     25  C   UNL     1       7.459  -5.469  22.739  0.00  0.00    +0.029 C 
ATOM     26  C   UNL     1       6.395  -4.911  23.680  0.00  0.00    +0.032 C 
ATOM     27  C   UNL     1       5.126  -5.777  23.537  0.00  0.00    +0.029 C 
ATOM     28  C   UNL     1       6.014  -3.474  23.310  0.00  0.00    +0.029 C 
ENDBRANCH  23  26
ENDBRANCH  20  23
ENDBRANCH   1  20
TORSDOF 4
ENDMDL
MODEL 8
REMARK VINA RESULT:      -7.0      3.170      8.228
REMARK  Name = 
REMARK  7 active torsions:
REMARK  status: ('A' for Active; 'I' for Inactive)
REMARK    1  A    between atoms: C_1  and  C_2
REMARK    2  A    between atoms: C_2  and  C_3
REMARK    3  A    between atoms: C_2  and  C_4
REMARK    4  A    between atoms: C_2  and  N_5
REMARK    5  A    between atoms: N_5  and  S_6
REMARK    6  A    between atoms: S_6  and  C_9
REMARK    7  A    between atoms: C_12  and  C_15
REMARK                            x       y       z     vdW  Elec       q    Type
REMARK                         _______ _______ _______ _____ _____    ______ ____
ROOT
ATOM      1  C   UNL     1       9.195  -0.175  23.443  0.00  0.00    +0.105 A 
ATOM      2  C   UNL     1       9.810  -1.424  23.358  0.00  0.00    +0.029 A 
ATOM      3  C   UNL     1       9.021  -2.574  23.313  0.00  0.00    +0.010 A 
ATOM      4  C   UNL     1       7.612  -2.506  23.324  0.00  0.00    -0.018 A 
ATOM      5  C   UNL     1       7.028  -1.225  23.340  0.00  0.00    +0.010 A 
ATOM      6  C   UNL     1       7.807  -0.065  23.398  0.00  0.00    +0.029 A 
ENDROOT
BRANCH   4   7
ATOM      7  C   UNL     1       6.787  -3.740  23.342  0.00  0.00    -0.017 A 
ATOM      8  C   UNL     1       6.185  -4.237  22.170  0.00  0.00    +0.010 A 
ATOM      9  C   UNL     1       5.367  -5.380  22.159  0.00  0.00    +0.028 A 
ATOM     10  C   UNL     1       5.145  -6.010  23.383  0.00  0.00    +0.068 A 
ATOM     11  N   UNL     1       4.402  -7.103  23.730  0.00  0.00    -0.275 N 
ATOM     12  H   UNL     1       3.847  -7.692  23.122  0.00  0.00    +0.189 HD
ATOM     13  N   UNL     1       4.426  -7.395  25.043  0.00  0.00    -0.158 NA
ATOM     14  C   UNL     1       5.232  -6.470  25.557  0.00  0.00    +0.146 A 
ATOM     15  N   UNL     1       5.540  -6.404  26.859  0.00  0.00    -0.341 N 
ATOM     16  H   UNL     1       5.950  -5.576  27.269  0.00  0.00    +0.144 HD
ATOM     17  H   UNL     1       4.994  -6.973  27.494  0.00  0.00    +0.144 HD
ATOM     18  C   UNL     1       5.712  -5.567  24.574  0.00  0.00    +0.041 A 
ATOM     19  C   UNL     1       6.552  -4.437  24.547  0.00  0.00    +0.022 A 
ENDBRANCH   4   7
BRANCH   1  20
ATOM     20  S   UNL     1      10.213   1.265  23.623  0.00  0.00    +0.059 S 
ATOM     21  O   UNL     1      11.324   0.871  24.462  0.00  0.00    -0.153 OA
ATOM     22  O   UNL     1      10.416   1.846  22.316  0.00  0.00    -0.153 OA
BRANCH  20  23
ATOM     23  N   UNL     1       9.252   2.293  24.559  0.00  0.00    -0.185 NA
ATOM     24  H   UNL     1       8.493   1.777  25.005  0.00  0.00    +0.149 HD
BRANCH  23  26
ATOM     25  C   UNL     1      10.218   4.474  23.821  0.00  0.00    +0.029 C 
ATOM     26  C   UNL     1       8.964   3.714  24.245  0.00  0.00    +0.032 C 
ATOM     27  C   UNL     1       7.977   3.716  23.058  0.00  0.00    +0.029 C 
ATOM     28  C   UNL     1       8.264   4.396  25.425  0.00  0.00    +0.029 C 
ENDBRANCH  23  26
ENDBRANCH  20  23
ENDBRANCH   1  20
TORSDOF 4
ENDMDL
MODEL 9
REMARK VINA RESULT:      -7.0      2.004      3.037
REMARK  Name = 
REMARK  7 active torsions:
REMARK  status: ('A' for Active; 'I' for Inactive)
REMARK    1  A    between atoms: C_1  and  C_2
REMARK    2  A    between atoms: C_2  and  C_3
REMARK    3  A    between atoms: C_2  and  C_4
REMARK    4  A    between atoms: C_2  and  N_5
REMARK    5  A    between atoms: N_5  and  S_6
REMARK    6  A    between atoms: S_6  and  C_9
REMARK    7  A    between atoms: C_12  and  C_15
REMARK                            x       y       z     vdW  Elec       q    Type
REMARK                         _______ _______ _______ _____ _____    ______ ____
ROOT
ATOM      1  C   UNL     1       9.165  -2.459  24.450  0.00  0.00    +0.105 A 
ATOM      2  C   UNL     1       9.664  -1.922  23.263  0.00  0.00    +0.029 A 
ATOM      3  C   UNL     1       9.797  -0.539  23.140  0.00  0.00    +0.010 A 
ATOM      4  C   UNL     1       9.465   0.334  24.197  0.00  0.00    -0.018 A 
ATOM      5  C   UNL     1       9.030  -0.249  25.403  0.00  0.00    +0.010 A 
ATOM      6  C   UNL     1       8.881  -1.634  25.536  0.00  0.00    +0.029 A 
ENDROOT
BRANCH   4   7
ATOM      7  C   UNL     1       9.549   1.807  24.028  0.00  0.00    -0.017 A 
ATOM      8  C   UNL     1       8.394   2.610  24.011  0.00  0.00    +0.010 A 
ATOM      9  C   UNL     1       8.435   4.001  23.815  0.00  0.00    +0.028 A 
ATOM     10  C   UNL     1       9.690   4.573  23.607  0.00  0.00    +0.068 A 
ATOM     11  N   UNL     1      10.084   5.860  23.367  0.00  0.00    -0.275 N 
ATOM     12  H   UNL     1       9.498   6.683  23.296  0.00  0.00    +0.189 HD
ATOM     13  N   UNL     1      11.410   6.012  23.201  0.00  0.00    -0.158 NA
ATOM     14  C   UNL     1      11.890   4.782  23.362  0.00  0.00    +0.146 A 
ATOM     15  N   UNL     1      13.195   4.487  23.285  0.00  0.00    -0.341 N 
ATOM     16  H   UNL     1      13.520   3.536  23.172  0.00  0.00    +0.144 HD
ATOM     17  H   UNL     1      13.811   5.198  22.913  0.00  0.00    +0.144 HD
ATOM     18  C   UNL     1      10.867   3.832  23.612  0.00  0.00    +0.041 A 
ATOM     19  C   UNL     1      10.795   2.444  23.843  0.00  0.00    +0.022 A 
ENDBRANCH   4   7
BRANCH   1  20
ATOM     20  S   UNL     1       8.887  -4.208  24.544  0.00  0.00    +0.059 S 
ATOM     21  O   UNL     1       8.124  -4.558  23.366  0.00  0.00    -0.153 OA
ATOM     22  O   UNL     1      10.142  -4.851  24.857  0.00  0.00    -0.153 OA
BRANCH  20  23
ATOM     23  N   UNL     1       7.831  -4.352  25.855  0.00  0.00    -0.185 NA
ATOM     24  H   UNL     1       8.254  -4.895  26.607  0.00  0.00    +0.149 HD
BRANCH  23  26
ATOM     25  C   UNL     1       5.890  -5.817  25.285  0.00  0.00    +0.029 C 
ATOM     26  C   UNL     1       6.353  -4.440  25.754  0.00  0.00    +0.032 C 
ATOM     27  C   UNL     1       5.795  -4.203  27.173  0.00  0.00    +0.029 C 
ATOM     28  C   UNL     1       5.806  -3.326  24.854  0.00  0.00    +0.029 C 
ENDBRANCH  23  26
ENDBRANCH  20  23
ENDBRANCH   1  20
TORSDOF 4
ENDMDL
