MODEL 1
REMARK VINA RESULT:      -5.7      0.000      0.000
REMARK  Name = 
REMARK  13 active torsions:
REMARK  status: ('A' for Active; 'I' for Inactive)
REMARK    1  A    between atoms: C_1  and  C_2
REMARK    2  A    between atoms: C_5  and  C_6
REMARK    3  A    between atoms: C_6  and  O_7
REMARK    4  A    between atoms: O_7  and  P_8
REMARK    5  A    between atoms: P_8  and  O_9
REMARK    6  A    between atoms: P_8  and  O_10
REMARK    7  A    between atoms: C_12  and  C_13
REMARK    8  A    between atoms: C_13  and  N_14
REMARK    9  A    between atoms: N_14  and  O_15
REMARK   10  A    between atoms: O_15  and  C_16
REMARK   11  A    between atoms: C_16  and  C_17
REMARK   12  A    between atoms: C_17  and  O_18
REMARK   13  A    between atoms: C_20  and  O_21
REMARK                            x       y       z     vdW  Elec       q    Type
REMARK                         _______ _______ _______ _____ _____    ______ ____
ROOT
ATOM      1  C   UNL     1       6.132  -5.997  21.537  0.00  0.00    +0.069 C 
ATOM      2  C   UNL     1       6.533  -4.661  22.086  0.00  0.00    +0.080 A 
ATOM      3  C   UNL     1       7.614  -4.542  22.961  0.00  0.00    +0.143 A 
ATOM      4  C   UNL     1       7.983  -3.277  23.450  0.00  0.00    +0.019 A 
ATOM      5  C   UNL     1       7.217  -2.169  23.047  0.00  0.00    +0.005 A 
ATOM      6  C   UNL     1       6.154  -2.387  22.171  0.00  0.00    +0.117 A 
ATOM      7  N   UNL     1       5.807  -3.593  21.680  0.00  0.00    -0.256 NA
ENDROOT
BRANCH   3   8
ATOM      8  O   UNL     1       8.286  -5.674  23.341  0.00  0.00    -0.505 OA
ATOM      9  H   UNL     1       8.165  -6.344  22.638  0.00  0.00    +0.292 HD
ENDBRANCH   3   8
BRANCH   4  10
ATOM     10  C   UNL     1       9.095  -3.131  24.456  0.00  0.00    +0.150 C 
BRANCH  10  11
ATOM     11  N   UNL     1       8.800  -3.812  25.727  0.00  0.00    -0.196 NA
ATOM     12  H   UNL     1       9.617  -3.692  26.347  0.00  0.00    +0.154 HD
BRANCH  11  13
ATOM     13  O   UNL     1       7.810  -2.957  26.402  0.00  0.00    -0.288 OA
BRANCH  13  14
ATOM     14  C   UNL     1       6.834  -3.788  27.038  0.00  0.00    +0.305 C 
BRANCH  14  15
ATOM     15  C   UNL     1       7.039  -5.255  26.716  0.00  0.00    +0.333 C 
ATOM     16  O   UNL     1       6.478  -5.817  25.788  0.00  0.00    -0.248 OA
BRANCH  15  17
ATOM     17  O   UNL     1       7.891  -5.894  27.544  0.00  0.00    -0.479 OA
ATOM     18  H   UNL     1       7.603  -6.816  27.727  0.00  0.00    +0.295 HD
ENDBRANCH  15  17
ENDBRANCH  14  15
ENDBRANCH  13  14
ENDBRANCH  11  13
ENDBRANCH  10  11
ENDBRANCH   4  10
BRANCH   5  19
ATOM     19  C   UNL     1       7.471  -0.767  23.530  0.00  0.00    +0.209 C 
BRANCH  19  20
ATOM     20  O   UNL     1       7.860  -0.003  22.410  0.00  0.00    -0.282 OA
BRANCH  20  21
ATOM     21  P   UNL     1       9.422   0.143  22.132  0.00  0.00    +0.473 P 
ATOM     22  O   UNL     1      10.306   0.057  23.321  0.00  0.00    -0.228 OA
BRANCH  21  23
ATOM     23  O   UNL     1       9.488   1.507  21.311  0.00  0.00    -0.303 OA
ATOM     24  H   UNL     1       8.658   2.009  21.392  0.00  0.00    +0.222 HD
ENDBRANCH  21  23
BRANCH  21  25
ATOM     25  O   UNL     1       9.691  -0.967  21.018  0.00  0.00    -0.303 OA
ATOM     26  H   UNL     1       9.466  -0.658  20.123  0.00  0.00    +0.222 HD
ENDBRANCH  21  25
ENDBRANCH  20  21
ENDBRANCH  19  20
ENDBRANCH   5  19
TORSDOF 12
ENDMDL
MODEL 2
REMARK VINA RESULT:      -5.5      1.898      3.968
REMARK  Name = 
REMARK  13 active torsions:
REMARK  status: ('A' for Active; 'I' for Inactive)
REMARK    1  A    between atoms: C_1  and  C_2
REMARK    2  A    between atoms: C_5  and  C_6
REMARK    3  A    between atoms: C_6  and  O_7
REMARK    4  A    between atoms: O_7  and  P_8
REMARK    5  A    between atoms: P_8  and  O_9
REMARK    6  A    between atoms: P_8  and  O_10
REMARK    7  A    between atoms: C_12  and  C_13
REMARK    8  A    between atoms: C_13  and  N_14
REMARK    9  A    between atoms: N_14  and  O_15
REMARK   10  A    between atoms: O_15  and  C_16
REMARK   11  A    between atoms: C_16  and  C_17
REMARK   12  A    between atoms: C_17  and  O_18
REMARK   13  A    between atoms: C_20  and  O_21
REMARK                            x       y       z     vdW  Elec       q    Type
REMARK                         _______ _______ _______ _____ _____    ______ ____
ROOT
ATOM      1  C   UNL     1       9.342  -5.242  25.575  0.00  0.00    +0.069 C 
ATOM      2  C   UNL     1       9.045  -4.090  24.663  0.00  0.00    +0.080 A 
ATOM      3  C   UNL     1       7.737  -3.812  24.264  0.00  0.00    +0.143 A 
ATOM      4  C   UNL     1       7.479  -2.717  23.421  0.00  0.00    +0.019 A 
ATOM      5  C   UNL     1       8.575  -1.949  22.990  0.00  0.00    +0.005 A 
ATOM      6  C   UNL     1       9.846  -2.304  23.441  0.00  0.00    +0.117 A 
ATOM      7  N   UNL     1      10.100  -3.341  24.265  0.00  0.00    -0.256 NA
ENDROOT
BRANCH   3   8
ATOM      8  O   UNL     1       6.725  -4.632  24.692  0.00  0.00    -0.505 OA
ATOM      9  H   UNL     1       6.688  -5.400  24.088  0.00  0.00    +0.292 HD
ENDBRANCH   3   8
BRANCH   4  10
ATOM     10  C   UNL     1       6.088  -2.442  22.913  0.00  0.00    +0.150 C 
BRANCH  10  11
ATOM     11  N   UNL     1       5.649  -3.425  21.908  0.00  0.00    -0.196 NA
ATOM     12  H   UNL     1       6.426  -4.087  21.754  0.00  0.00    +0.154 HD
BRANCH  11  13
ATOM     13  O   UNL     1       4.683  -4.287  22.607  0.00  0.00    -0.288 OA
BRANCH  13  14
ATOM     14  C   UNL     1       4.937  -5.650  22.256  0.00  0.00    +0.305 C 
BRANCH  14  15
ATOM     15  C   UNL     1       6.180  -5.796  21.401  0.00  0.00    +0.333 C 
ATOM     16  O   UNL     1       7.288  -6.012  21.870  0.00  0.00    -0.248 OA
BRANCH  15  17
ATOM     17  O   UNL     1       5.965  -5.665  20.076  0.00  0.00    -0.479 OA
ATOM     18  H   UNL     1       6.804  -5.563  19.576  0.00  0.00    +0.295 HD
ENDBRANCH  15  17
ENDBRANCH  14  15
ENDBRANCH  13  14
ENDBRANCH  11  13
ENDBRANCH  10  11
ENDBRANCH   4  10
BRANCH   5  19
ATOM     19  C   UNL     1       8.450  -0.780  22.052  0.00  0.00    +0.209 C 
BRANCH  19  20
ATOM     20  O   UNL     1       9.322   0.226  22.517  0.00  0.00    -0.282 OA
BRANCH  20  21
ATOM     21  P   UNL     1       8.925   1.737  22.207  0.00  0.00    +0.473 P 
ATOM     22  O   UNL     1       7.693   1.936  21.404  0.00  0.00    -0.228 OA
BRANCH  21  23
ATOM     23  O   UNL     1      10.270   2.312  21.575  0.00  0.00    -0.303 OA
ATOM     24  H   UNL     1      11.054   1.875  21.953  0.00  0.00    +0.222 HD
ENDBRANCH  21  23
BRANCH  21  25
ATOM     25  O   UNL     1       8.891   2.401  23.657  0.00  0.00    -0.303 OA
ATOM     26  H   UNL     1       8.440   1.842  24.313  0.00  0.00    +0.222 HD
ENDBRANCH  21  25
ENDBRANCH  20  21
ENDBRANCH  19  20
ENDBRANCH   5  19
TORSDOF 12
ENDMDL
MODEL 3
REMARK VINA RESULT:      -5.3      2.676      5.374
REMARK  Name = 
REMARK  13 active torsions:
REMARK  status: ('A' for Active; 'I' for Inactive)
REMARK    1  A    between atoms: C_1  and  C_2
REMARK    2  A    between atoms: C_5  and  C_6
REMARK    3  A    between atoms: C_6  and  O_7
REMARK    4  A    between atoms: O_7  and  P_8
REMARK    5  A    between atoms: P_8  and  O_9
REMARK    6  A    between atoms: P_8  and  O_10
REMARK    7  A    between atoms: C_12  and  C_13
REMARK    8  A    between atoms: C_13  and  N_14
REMARK    9  A    between atoms: N_14  and  O_15
REMARK   10  A    between atoms: O_15  and  C_16
REMARK   11  A    between atoms: C_16  and  C_17
REMARK   12  A    between atoms: C_17  and  O_18
REMARK   13  A    between atoms: C_20  and  O_21
REMARK                            x       y       z     vdW  Elec       q    Type
REMARK                         _______ _______ _______ _____ _____    ______ ____
ROOT
ATOM      1  C   UNL     1       9.936   1.140  22.108  0.00  0.00    +0.069 C 
ATOM      2  C   UNL     1       9.578   0.196  23.215  0.00  0.00    +0.080 A 
ATOM      3  C   UNL     1       9.623  -1.185  23.021  0.00  0.00    +0.143 A 
ATOM      4  C   UNL     1       9.299  -2.052  24.079  0.00  0.00    +0.019 A 
ATOM      5  C   UNL     1       8.912  -1.478  25.303  0.00  0.00    +0.005 A 
ATOM      6  C   UNL     1       8.896  -0.087  25.401  0.00  0.00    +0.117 A 
ATOM      7  N   UNL     1       9.225   0.751  24.398  0.00  0.00    -0.256 NA
ENDROOT
BRANCH   3   8
ATOM      8  O   UNL     1       9.969  -1.670  21.787  0.00  0.00    -0.505 OA
ATOM      9  H   UNL     1      10.634  -1.063  21.403  0.00  0.00    +0.292 HD
ENDBRANCH   3   8
BRANCH   4  10
ATOM     10  C   UNL     1       9.265  -3.545  23.873  0.00  0.00    +0.150 C 
BRANCH  10  11
ATOM     11  N   UNL     1       8.034  -3.994  23.200  0.00  0.00    -0.196 NA
ATOM     12  H   UNL     1       8.125  -3.769  22.196  0.00  0.00    +0.154 HD
BRANCH  11  13
ATOM     13  O   UNL     1       8.128  -5.462  23.165  0.00  0.00    -0.288 OA
BRANCH  13  14
ATOM     14  C   UNL     1       7.224  -5.962  22.175  0.00  0.00    +0.305 C 
BRANCH  14  15
ATOM     15  C   UNL     1       6.013  -5.068  22.005  0.00  0.00    +0.333 C 
ATOM     16  O   UNL     1       5.828  -4.380  21.013  0.00  0.00    -0.248 OA
BRANCH  15  17
ATOM     17  O   UNL     1       5.152  -5.091  23.045  0.00  0.00    -0.479 OA
ATOM     18  H   UNL     1       4.301  -4.652  22.826  0.00  0.00    +0.295 HD
ENDBRANCH  15  17
ENDBRANCH  14  15
ENDBRANCH  13  14
ENDBRANCH  11  13
ENDBRANCH  10  11
ENDBRANCH   4  10
BRANCH   5  19
ATOM     19  C   UNL     1       8.495  -2.286  26.501  0.00  0.00    +0.209 C 
BRANCH  19  20
ATOM     20  O   UNL     1       7.342  -3.010  26.137  0.00  0.00    -0.282 OA
BRANCH  20  21
ATOM     21  P   UNL     1       7.128  -4.435  26.817  0.00  0.00    +0.473 P 
ATOM     22  O   UNL     1       6.269  -4.458  28.026  0.00  0.00    -0.228 OA
BRANCH  21  23
ATOM     23  O   UNL     1       8.628  -4.935  27.019  0.00  0.00    -0.303 OA
ATOM     24  H   UNL     1       8.657  -5.786  27.490  0.00  0.00    +0.222 HD
ENDBRANCH  21  23
BRANCH  21  25
ATOM     25  O   UNL     1       6.604  -5.333  25.608  0.00  0.00    -0.303 OA
ATOM     26  H   UNL     1       7.183  -6.094  25.431  0.00  0.00    +0.222 HD
ENDBRANCH  21  25
ENDBRANCH  20  21
ENDBRANCH  19  20
ENDBRANCH   5  19
TORSDOF 12
ENDMDL
MODEL 4
REMARK VINA RESULT:      -5.3      2.560      5.597
REMARK  Name = 
REMARK  13 active torsions:
REMARK  status: ('A' for Active; 'I' for Inactive)
REMARK    1  A    between atoms: C_1  and  C_2
REMARK    2  A    between atoms: C_5  and  C_6
REMARK    3  A    between atoms: C_6  and  O_7
REMARK    4  A    between atoms: O_7  and  P_8
REMARK    5  A    between atoms: P_8  and  O_9
REMARK    6  A    between atoms: P_8  and  O_10
REMARK    7  A    between atoms: C_12  and  C_13
REMARK    8  A    between atoms: C_13  and  N_14
REMARK    9  A    between atoms: N_14  and  O_15
REMARK   10  A    between atoms: O_15  and  C_16
REMARK   11  A    between atoms: C_16  and  C_17
REMARK   12  A    between atoms: C_17  and  O_18
REMARK   13  A    between atoms: C_20  and  O_21
REMARK                            x       y       z     vdW  Elec       q    Type
REMARK                         _______ _______ _______ _____ _____    ______ ____
ROOT
ATOM      1  C   UNL     1      10.559   0.396  23.374  0.00  0.00    +0.069 C 
ATOM      2  C   UNL     1       9.556  -0.462  24.084  0.00  0.00    +0.080 A 
ATOM      3  C   UNL     1       8.594  -1.179  23.372  0.00  0.00    +0.143 A 
ATOM      4  C   UNL     1       7.674  -1.991  24.058  0.00  0.00    +0.019 A 
ATOM      5  C   UNL     1       7.751  -2.027  25.461  0.00  0.00    +0.005 A 
ATOM      6  C   UNL     1       8.746  -1.276  26.086  0.00  0.00    +0.117 A 
ATOM      7  N   UNL     1       9.645  -0.511  25.434  0.00  0.00    -0.256 NA
ENDROOT
BRANCH   3   8
ATOM      8  O   UNL     1       8.556  -1.060  22.007  0.00  0.00    -0.505 OA
ATOM      9  H   UNL     1       7.729  -1.478  21.693  0.00  0.00    +0.292 HD
ENDBRANCH   3   8
BRANCH   4  10
ATOM     10  C   UNL     1       6.578  -2.713  23.318  0.00  0.00    +0.150 C 
BRANCH  10  11
ATOM     11  N   UNL     1       7.099  -3.639  22.298  0.00  0.00    -0.196 NA
ATOM     12  H   UNL     1       7.987  -3.250  21.944  0.00  0.00    +0.154 HD
BRANCH  11  13
ATOM     13  O   UNL     1       7.587  -4.806  23.050  0.00  0.00    -0.288 OA
BRANCH  13  14
ATOM     14  C   UNL     1       7.237  -5.996  22.339  0.00  0.00    +0.305 C 
BRANCH  14  15
ATOM     15  C   UNL     1       5.985  -5.815  21.506  0.00  0.00    +0.333 C 
ATOM     16  O   UNL     1       6.012  -5.574  20.309  0.00  0.00    -0.248 OA
BRANCH  15  17
ATOM     17  O   UNL     1       4.832  -5.939  22.196  0.00  0.00    -0.479 OA
ATOM     18  H   UNL     1       4.374  -5.076  22.303  0.00  0.00    +0.295 HD
ENDBRANCH  15  17
ENDBRANCH  14  15
ENDBRANCH  13  14
ENDBRANCH  11  13
ENDBRANCH  10  11
ENDBRANCH   4  10
BRANCH   5  19
ATOM     19  C   UNL     1       6.802  -2.815  26.322  0.00  0.00    +0.209 C 
BRANCH  19  20
ATOM     20  O   UNL     1       7.579  -3.686  27.113  0.00  0.00    -0.282 OA
BRANCH  20  21
ATOM     21  P   UNL     1       7.458  -5.247  26.816  0.00  0.00    +0.473 P 
ATOM     22  O   UNL     1       7.258  -6.121  27.998  0.00  0.00    -0.228 OA
BRANCH  21  23
ATOM     23  O   UNL     1       8.771  -5.526  25.957  0.00  0.00    -0.303 OA
ATOM     24  H   UNL     1       9.478  -4.892  26.175  0.00  0.00    +0.222 HD
ENDBRANCH  21  23
BRANCH  21  25
ATOM     25  O   UNL     1       6.292  -5.314  25.730  0.00  0.00    -0.303 OA
ATOM     26  H   UNL     1       5.448  -4.965  26.068  0.00  0.00    +0.222 HD
ENDBRANCH  21  25
ENDBRANCH  20  21
ENDBRANCH  19  20
ENDBRANCH   5  19
TORSDOF 12
ENDMDL
MODEL 5
REMARK VINA RESULT:      -5.3      3.009      6.234
REMARK  Name = 
REMARK  13 active torsions:
REMARK  status: ('A' for Active; 'I' for Inactive)
REMARK    1  A    between atoms: C_1  and  C_2
REMARK    2  A    between atoms: C_5  and  C_6
REMARK    3  A    between atoms: C_6  and  O_7
REMARK    4  A    between atoms: O_7  and  P_8
REMARK    5  A    between atoms: P_8  and  O_9
REMARK    6  A    between atoms: P_8  and  O_10
REMARK    7  A    between atoms: C_12  and  C_13
REMARK    8  A    between atoms: C_13  and  N_14
REMARK    9  A    between atoms: N_14  and  O_15
REMARK   10  A    between atoms: O_15  and  C_16
REMARK   11  A    between atoms: C_16  and  C_17
REMARK   12  A    between atoms: C_17  and  O_18
REMARK   13  A    between atoms: C_20  and  O_21
REMARK                            x       y       z     vdW  Elec       q    Type
REMARK                         _______ _______ _______ _____ _____    ______ ____
ROOT
ATOM      1  C   UNL     1       6.071  -5.893  21.081  0.00  0.00    +0.069 C 
ATOM      2  C   UNL     1       6.115  -5.626  22.555  0.00  0.00    +0.080 A 
ATOM      3  C   UNL     1       7.011  -4.700  23.089  0.00  0.00    +0.143 A 
ATOM      4  C   UNL     1       7.023  -4.454  24.473  0.00  0.00    +0.019 A 
ATOM      5  C   UNL     1       6.129  -5.184  25.277  0.00  0.00    +0.005 A 
ATOM      6  C   UNL     1       5.271  -6.089  24.652  0.00  0.00    +0.117 A 
ATOM      7  N   UNL     1       5.239  -6.316  23.323  0.00  0.00    -0.256 NA
ENDROOT
BRANCH   3   8
ATOM      8  O   UNL     1       7.881  -4.058  22.247  0.00  0.00    -0.505 OA
ATOM      9  H   UNL     1       8.249  -3.289  22.727  0.00  0.00    +0.292 HD
ENDBRANCH   3   8
BRANCH   4  10
ATOM     10  C   UNL     1       8.033  -3.518  25.084  0.00  0.00    +0.150 C 
BRANCH  10  11
ATOM     11  N   UNL     1       9.400  -4.065  25.053  0.00  0.00    -0.196 NA
ATOM     12  H   UNL     1       9.361  -4.987  24.591  0.00  0.00    +0.154 HD
BRANCH  11  13
ATOM     13  O   UNL     1      10.108  -3.273  24.034  0.00  0.00    -0.288 OA
BRANCH  13  14
ATOM     14  C   UNL     1       9.701  -1.906  24.141  0.00  0.00    +0.305 C 
BRANCH  14  15
ATOM     15  C   UNL     1      10.108  -1.093  22.928  0.00  0.00    +0.333 C 
ATOM     16  O   UNL     1      10.505   0.059  23.003  0.00  0.00    -0.248 OA
BRANCH  15  17
ATOM     17  O   UNL     1       9.992  -1.748  21.754  0.00  0.00    -0.479 OA
ATOM     18  H   UNL     1      10.866  -1.898  21.330  0.00  0.00    +0.295 HD
ENDBRANCH  15  17
ENDBRANCH  14  15
ENDBRANCH  13  14
ENDBRANCH  11  13
ENDBRANCH  10  11
ENDBRANCH   4  10
BRANCH   5  19
ATOM     19  C   UNL     1       6.066  -5.055  26.774  0.00  0.00    +0.209 C 
BRANCH  19  20
ATOM     20  O   UNL     1       6.181  -6.354  27.311  0.00  0.00    -0.282 OA
BRANCH  20  21
ATOM     21  P   UNL     1       5.873  -6.532  28.864  0.00  0.00    +0.473 P 
ATOM     22  O   UNL     1       5.864  -5.289  29.673  0.00  0.00    -0.228 OA
BRANCH  21  23
ATOM     23  O   UNL     1       6.943  -7.634  29.291  0.00  0.00    -0.303 OA
ATOM     24  H   UNL     1       6.586  -8.534  29.184  0.00  0.00    +0.222 HD
ENDBRANCH  21  23
BRANCH  21  25
ATOM     25  O   UNL     1       4.498  -7.341  28.864  0.00  0.00    -0.303 OA
ATOM     26  H   UNL     1       4.626  -8.292  28.707  0.00  0.00    +0.222 HD
ENDBRANCH  21  25
ENDBRANCH  20  21
ENDBRANCH  19  20
ENDBRANCH   5  19
TORSDOF 12
ENDMDL
MODEL 6
REMARK VINA RESULT:      -5.2      2.927      4.791
REMARK  Name = 
REMARK  13 active torsions:
REMARK  status: ('A' for Active; 'I' for Inactive)
REMARK    1  A    between atoms: C_1  and  C_2
REMARK    2  A    between atoms: C_5  and  C_6
REMARK    3  A    between atoms: C_6  and  O_7
REMARK    4  A    between atoms: O_7  and  P_8
REMARK    5  A    between atoms: P_8  and  O_9
REMARK    6  A    between atoms: P_8  and  O_10
REMARK    7  A    between atoms: C_12  and  C_13
REMARK    8  A    between atoms: C_13  and  N_14
REMARK    9  A    between atoms: N_14  and  O_15
REMARK   10  A    between atoms: O_15  and  C_16
REMARK   11  A    between atoms: C_16  and  C_17
REMARK   12  A    between atoms: C_17  and  O_18
REMARK   13  A    between atoms: C_20  and  O_21
REMARK                            x       y       z     vdW  Elec       q    Type
REMARK                         _______ _______ _______ _____ _____    ______ ____
ROOT
ATOM      1  C   UNL     1      11.161   0.892  24.482  0.00  0.00    +0.069 C 
ATOM      2  C   UNL     1      10.065  -0.003  23.988  0.00  0.00    +0.080 A 
ATOM      3  C   UNL     1       9.053  -0.435  24.846  0.00  0.00    +0.143 A 
ATOM      4  C   UNL     1       8.026  -1.261  24.357  0.00  0.00    +0.019 A 
ATOM      5  C   UNL     1       8.078  -1.642  23.005  0.00  0.00    +0.005 A 
ATOM      6  C   UNL     1       9.129  -1.161  22.225  0.00  0.00    +0.117 A 
ATOM      7  N   UNL     1      10.107  -0.352  22.681  0.00  0.00    -0.256 NA
ENDROOT
BRANCH   3   8
ATOM      8  O   UNL     1       9.093  -0.056  26.162  0.00  0.00    -0.505 OA
ATOM      9  H   UNL     1       8.564   0.762  26.254  0.00  0.00    +0.292 HD
ENDBRANCH   3   8
BRANCH   4  10
ATOM     10  C   UNL     1       6.965  -1.805  25.279  0.00  0.00    +0.150 C 
BRANCH  10  11
ATOM     11  N   UNL     1       7.206  -3.210  25.650  0.00  0.00    -0.196 NA
ATOM     12  H   UNL     1       7.588  -3.693  24.822  0.00  0.00    +0.154 HD
BRANCH  11  13
ATOM     13  O   UNL     1       8.388  -3.181  26.526  0.00  0.00    -0.288 OA
BRANCH  13  14
ATOM     14  C   UNL     1       9.001  -4.473  26.522  0.00  0.00    +0.305 C 
BRANCH  14  15
ATOM     15  C   UNL     1       9.474  -4.876  25.140  0.00  0.00    +0.333 C 
ATOM     16  O   UNL     1       9.346  -6.007  24.697  0.00  0.00    -0.248 OA
BRANCH  15  17
ATOM     17  O   UNL     1      10.053  -3.881  24.437  0.00  0.00    -0.479 OA
ATOM     18  H   UNL     1       9.512  -3.617  23.660  0.00  0.00    +0.295 HD
ENDBRANCH  15  17
ENDBRANCH  14  15
ENDBRANCH  13  14
ENDBRANCH  11  13
ENDBRANCH  10  11
ENDBRANCH   4  10
BRANCH   5  19
ATOM     19  C   UNL     1       7.072  -2.558  22.363  0.00  0.00    +0.209 C 
BRANCH  19  20
ATOM     20  O   UNL     1       7.571  -3.872  22.474  0.00  0.00    -0.282 OA
BRANCH  20  21
ATOM     21  P   UNL     1       6.514  -5.062  22.420  0.00  0.00    +0.473 P 
ATOM     22  O   UNL     1       6.984  -6.322  21.794  0.00  0.00    -0.228 OA
BRANCH  21  23
ATOM     23  O   UNL     1       5.261  -4.364  21.726  0.00  0.00    -0.303 OA
ATOM     24  H   UNL     1       5.158  -4.659  20.804  0.00  0.00    +0.222 HD
ENDBRANCH  21  23
BRANCH  21  25
ATOM     25  O   UNL     1       6.057  -5.202  23.942  0.00  0.00    -0.303 OA
ATOM     26  H   UNL     1       6.748  -5.593  24.504  0.00  0.00    +0.222 HD
ENDBRANCH  21  25
ENDBRANCH  20  21
ENDBRANCH  19  20
ENDBRANCH   5  19
TORSDOF 12
ENDMDL
MODEL 7
REMARK VINA RESULT:      -5.2      2.736      5.569
REMARK  Name = 
REMARK  13 active torsions:
REMARK  status: ('A' for Active; 'I' for Inactive)
REMARK    1  A    between atoms: C_1  and  C_2
REMARK    2  A    between atoms: C_5  and  C_6
REMARK    3  A    between atoms: C_6  and  O_7
REMARK    4  A    between atoms: O_7  and  P_8
REMARK    5  A    between atoms: P_8  and  O_9
REMARK    6  A    between atoms: P_8  and  O_10
REMARK    7  A    between atoms: C_12  and  C_13
REMARK    8  A    between atoms: C_13  and  N_14
REMARK    9  A    between atoms: N_14  and  O_15
REMARK   10  A    between atoms: O_15  and  C_16
REMARK   11  A    between atoms: C_16  and  C_17
REMARK   12  A    between atoms: C_17  and  O_18
REMARK   13  A    between atoms: C_20  and  O_21
REMARK                            x       y       z     vdW  Elec       q    Type
REMARK                         _______ _______ _______ _____ _____    ______ ____
ROOT
ATOM      1  C   UNL     1       8.724   2.985  23.858  0.00  0.00    +0.069 C 
ATOM      2  C   UNL     1       8.944   1.503  23.864  0.00  0.00    +0.080 A 
ATOM      3  C   UNL     1       8.049   0.643  23.226  0.00  0.00    +0.143 A 
ATOM      4  C   UNL     1       8.285  -0.743  23.231  0.00  0.00    +0.019 A 
ATOM      5  C   UNL     1       9.422  -1.213  23.912  0.00  0.00    +0.005 A 
ATOM      6  C   UNL     1      10.257  -0.277  24.522  0.00  0.00    +0.117 A 
ATOM      7  N   UNL     1      10.050   1.055  24.504  0.00  0.00    -0.256 NA
ENDROOT
BRANCH   3   8
ATOM      8  O   UNL     1       6.941   1.173  22.619  0.00  0.00    -0.505 OA
ATOM      9  H   UNL     1       6.159   0.683  22.944  0.00  0.00    +0.292 HD
ENDBRANCH   3   8
BRANCH   4  10
ATOM     10  C   UNL     1       7.295  -1.698  22.617  0.00  0.00    +0.150 C 
BRANCH  10  11
ATOM     11  N   UNL     1       6.032  -1.765  23.372  0.00  0.00    -0.196 NA
ATOM     12  H   UNL     1       5.359  -1.127  22.919  0.00  0.00    +0.154 HD
BRANCH  11  13
ATOM     13  O   UNL     1       5.448  -3.073  23.033  0.00  0.00    -0.288 OA
BRANCH  13  14
ATOM     14  C   UNL     1       6.015  -3.529  21.802  0.00  0.00    +0.305 C 
BRANCH  14  15
ATOM     15  C   UNL     1       5.994  -5.041  21.690  0.00  0.00    +0.333 C 
ATOM     16  O   UNL     1       5.975  -5.628  20.620  0.00  0.00    -0.248 OA
BRANCH  15  17
ATOM     17  O   UNL     1       5.995  -5.687  22.875  0.00  0.00    -0.479 OA
ATOM     18  H   UNL     1       5.131  -5.607  23.337  0.00  0.00    +0.295 HD
ENDBRANCH  15  17
ENDBRANCH  14  15
ENDBRANCH  13  14
ENDBRANCH  11  13
ENDBRANCH  10  11
ENDBRANCH   4  10
BRANCH   5  19
ATOM     19  C   UNL     1       9.769  -2.671  24.036  0.00  0.00    +0.209 C 
BRANCH  19  20
ATOM     20  O   UNL     1       9.196  -3.137  25.237  0.00  0.00    -0.282 OA
BRANCH  20  21
ATOM     21  P   UNL     1       8.441  -4.539  25.191  0.00  0.00    +0.473 P 
ATOM     22  O   UNL     1       8.776  -5.422  24.047  0.00  0.00    -0.228 OA
BRANCH  21  23
ATOM     23  O   UNL     1       6.913  -4.098  25.306  0.00  0.00    -0.303 OA
ATOM     24  H   UNL     1       6.414  -4.337  24.505  0.00  0.00    +0.222 HD
ENDBRANCH  21  23
BRANCH  21  25
ATOM     25  O   UNL     1       8.751  -5.159  26.627  0.00  0.00    -0.303 OA
ATOM     26  H   UNL     1       9.534  -4.759  27.044  0.00  0.00    +0.222 HD
ENDBRANCH  21  25
ENDBRANCH  20  21
ENDBRANCH  19  20
ENDBRANCH   5  19
TORSDOF 12
ENDMDL
MODEL 8
REMARK VINA RESULT:      -5.1      2.079      3.598
REMARK  Name = 
REMARK  13 active torsions:
REMARK  status: ('A' for Active; 'I' for Inactive)
REMARK    1  A    between atoms: C_1  and  C_2
REMARK    2  A    between atoms: C_5  and  C_6
REMARK    3  A    between atoms: C_6  and  O_7
REMARK    4  A    between atoms: O_7  and  P_8
REMARK    5  A    between atoms: P_8  and  O_9
REMARK    6  A    between atoms: P_8  and  O_10
REMARK    7  A    between atoms: C_12  and  C_13
REMARK    8  A    between atoms: C_13  and  N_14
REMARK    9  A    between atoms: N_14  and  O_15
REMARK   10  A    between atoms: O_15  and  C_16
REMARK   11  A    between atoms: C_16  and  C_17
REMARK   12  A    between atoms: C_17  and  O_18
REMARK   13  A    between atoms: C_20  and  O_21
REMARK                            x       y       z     vdW  Elec       q    Type
REMARK                         _______ _______ _______ _____ _____    ______ ____
ROOT
ATOM      1  C   UNL     1       9.770  -4.777  25.268  0.00  0.00    +0.069 C 
ATOM      2  C   UNL     1       9.341  -3.540  24.539  0.00  0.00    +0.080 A 
ATOM      3  C   UNL     1       8.028  -3.077  24.625  0.00  0.00    +0.143 A 
ATOM      4  C   UNL     1       7.652  -1.905  23.946  0.00  0.00    +0.019 A 
ATOM      5  C   UNL     1       8.630  -1.250  23.176  0.00  0.00    +0.005 A 
ATOM      6  C   UNL     1       9.916  -1.789  23.150  0.00  0.00    +0.117 A 
ATOM      7  N   UNL     1      10.290  -2.901  23.814  0.00  0.00    -0.256 NA
ENDROOT
BRANCH   3   8
ATOM      8  O   UNL     1       7.120  -3.793  25.362  0.00  0.00    -0.505 OA
ATOM      9  H   UNL     1       6.271  -3.788  24.876  0.00  0.00    +0.292 HD
ENDBRANCH   3   8
BRANCH   4  10
ATOM     10  C   UNL     1       6.223  -1.428  23.959  0.00  0.00    +0.150 C 
BRANCH  10  11
ATOM     11  N   UNL     1       5.277  -2.464  23.512  0.00  0.00    -0.196 NA
ATOM     12  H   UNL     1       4.349  -2.023  23.413  0.00  0.00    +0.154 HD
BRANCH  11  13
ATOM     13  O   UNL     1       5.618  -2.714  22.102  0.00  0.00    -0.288 OA
BRANCH  13  14
ATOM     14  C   UNL     1       5.702  -4.125  21.887  0.00  0.00    +0.305 C 
BRANCH  14  15
ATOM     15  C   UNL     1       4.855  -4.904  22.874  0.00  0.00    +0.333 C 
ATOM     16  O   UNL     1       3.634  -4.906  22.845  0.00  0.00    -0.248 OA
BRANCH  15  17
ATOM     17  O   UNL     1       5.562  -5.594  23.793  0.00  0.00    -0.479 OA
ATOM     18  H   UNL     1       5.084  -6.398  24.095  0.00  0.00    +0.295 HD
ENDBRANCH  15  17
ENDBRANCH  14  15
ENDBRANCH  13  14
ENDBRANCH  11  13
ENDBRANCH  10  11
ENDBRANCH   4  10
BRANCH   5  19
ATOM     19  C   UNL     1       8.354  -0.015  22.364  0.00  0.00    +0.209 C 
BRANCH  19  20
ATOM     20  O   UNL     1       8.462   1.090  23.232  0.00  0.00    -0.282 OA
BRANCH  20  21
ATOM     21  P   UNL     1       9.674   2.095  22.988  0.00  0.00    +0.473 P 
ATOM     22  O   UNL     1      10.852   1.923  23.874  0.00  0.00    -0.228 OA
BRANCH  21  23
ATOM     23  O   UNL     1       8.949   3.513  23.059  0.00  0.00    -0.303 OA
ATOM     24  H   UNL     1       8.013   3.445  22.801  0.00  0.00    +0.222 HD
ENDBRANCH  21  23
BRANCH  21  25
ATOM     25  O   UNL     1       9.976   1.918  21.432  0.00  0.00    -0.303 OA
ATOM     26  H   UNL     1       9.221   2.175  20.874  0.00  0.00    +0.222 HD
ENDBRANCH  21  25
ENDBRANCH  20  21
ENDBRANCH  19  20
ENDBRANCH   5  19
TORSDOF 12
ENDMDL
MODEL 9
REMARK VINA RESULT:      -5.0      3.537      5.375
REMARK  Name = 
REMARK  13 active torsions:
REMARK  status: ('A' for Active; 'I' for Inactive)
REMARK    1  A    between atoms: C_1  and  C_2
REMARK    2  A    between atoms: C_5  and  C_6
REMARK    3  A    between atoms: C_6  and  O_7
REMARK    4  A    between atoms: O_7  and  P_8
REMARK    5  A    between atoms: P_8  and  O_9
REMARK    6  A    between atoms: P_8  and  O_10
REMARK    7  A    between atoms: C_12  and  C_13
REMARK    8  A    between atoms: C_13  and  N_14
REMARK    9  A    between atoms: N_14  and  O_15
REMARK   10  A    between atoms: O_15  and  C_16
REMARK   11  A    between atoms: C_16  and  C_17
REMARK   12  A    between atoms: C_17  and  O_18
REMARK   13  A    between atoms: C_20  and  O_21
REMARK                            x       y       z     vdW  Elec       q    Type
REMARK                         _______ _______ _______ _____ _____    ______ ____
ROOT
ATOM      1  C   UNL     1       9.418  -1.715  23.972  0.00  0.00    +0.069 C 
ATOM      2  C   UNL     1       8.458  -2.844  23.750  0.00  0.00    +0.080 A 
ATOM      3  C   UNL     1       7.941  -3.567  24.826  0.00  0.00    +0.143 A 
ATOM      4  C   UNL     1       7.029  -4.611  24.595  0.00  0.00    +0.019 A 
ATOM      5  C   UNL     1       6.689  -4.902  23.262  0.00  0.00    +0.005 A 
ATOM      6  C   UNL     1       7.258  -4.126  22.253  0.00  0.00    +0.117 A 
ATOM      7  N   UNL     1       8.117  -3.109  22.467  0.00  0.00    -0.256 NA
ENDROOT
BRANCH   3   8
ATOM      8  O   UNL     1       8.352  -3.251  26.094  0.00  0.00    -0.505 OA
ATOM      9  H   UNL     1       8.703  -4.066  26.506  0.00  0.00    +0.292 HD
ENDBRANCH   3   8
BRANCH   4  10
ATOM     10  C   UNL     1       6.517  -5.457  25.731  0.00  0.00    +0.150 C 
BRANCH  10  11
ATOM     11  N   UNL     1       7.590  -5.887  26.644  0.00  0.00    -0.196 NA
ATOM     12  H   UNL     1       8.450  -5.379  26.381  0.00  0.00    +0.154 HD
BRANCH  11  13
ATOM     13  O   UNL     1       7.276  -5.253  27.934  0.00  0.00    -0.288 OA
BRANCH  13  14
ATOM     14  C   UNL     1       5.896  -5.473  28.237  0.00  0.00    +0.305 C 
BRANCH  14  15
ATOM     15  C   UNL     1       5.678  -6.767  28.995  0.00  0.00    +0.333 C 
ATOM     16  O   UNL     1       4.587  -7.113  29.421  0.00  0.00    -0.248 OA
BRANCH  15  17
ATOM     17  O   UNL     1       6.793  -7.509  29.165  0.00  0.00    -0.479 OA
ATOM     18  H   UNL     1       6.675  -8.195  29.858  0.00  0.00    +0.295 HD
ENDBRANCH  15  17
ENDBRANCH  14  15
ENDBRANCH  13  14
ENDBRANCH  11  13
ENDBRANCH  10  11
ENDBRANCH   4  10
BRANCH   5  19
ATOM     19  C   UNL     1       5.763  -6.021  22.868  0.00  0.00    +0.209 C 
BRANCH  19  20
ATOM     20  O   UNL     1       4.462  -5.483  22.802  0.00  0.00    -0.282 OA
BRANCH  20  21
ATOM     21  P   UNL     1       3.308  -6.264  23.575  0.00  0.00    +0.473 P 
ATOM     22  O   UNL     1       2.543  -5.476  24.572  0.00  0.00    -0.228 OA
BRANCH  21  23
ATOM     23  O   UNL     1       4.087  -7.535  24.139  0.00  0.00    -0.303 OA
ATOM     24  H   UNL     1       5.005  -7.561  23.814  0.00  0.00    +0.222 HD
ENDBRANCH  21  23
BRANCH  21  25
ATOM     25  O   UNL     1       2.432  -6.871  22.388  0.00  0.00    -0.303 OA
ATOM     26  H   UNL     1       2.573  -6.405  21.545  0.00  0.00    +0.222 HD
ENDBRANCH  21  25
ENDBRANCH  20  21
ENDBRANCH  19  20
ENDBRANCH   5  19
TORSDOF 12
ENDMDL
