MODEL 1
REMARK VINA RESULT:      -5.5      0.000      0.000
REMARK  Name = 
REMARK  10 active torsions:
REMARK  status: ('A' for Active; 'I' for Inactive)
REMARK    1  A    between atoms: N_1  and  S_2
REMARK    2  A    between atoms: S_2  and  C_5
REMARK    3  A    between atoms: C_8  and  C_11
REMARK    4  A    between atoms: N_13  and  C_14
REMARK    5  A    between atoms: C_14  and  C_15
REMARK    6  A    between atoms: C_15  and  C_16
REMARK    7  A    between atoms: C_16  and  C_17
REMARK    8  A    between atoms: C_17  and  N_18
REMARK    9  A    between atoms: N_18  and  C_19
REMARK   10  A    between atoms: C_19  and  S_20
REMARK                            x       y       z     vdW  Elec       q    Type
REMARK                         _______ _______ _______ _____ _____    ______ ____
ROOT
ATOM      1  C   UNL     1       9.757  -1.689  23.266  0.00  0.00    +0.244 C 
ATOM      2  N   UNL     1       9.706  -0.575  24.082  0.00  0.00    -0.311 N 
ATOM      3  H   UNL     1       8.903  -0.381  24.658  0.00  0.00    +0.149 HD
ATOM      4  O   UNL     1      10.717  -1.923  22.537  0.00  0.00    -0.270 OA
ENDROOT
BRANCH   1   8
ATOM      5  C   UNL     1       6.429  -4.410  23.167  0.00  0.00    +0.105 A 
ATOM      6  C   UNL     1       7.407  -4.579  24.150  0.00  0.00    +0.029 A 
ATOM      7  C   UNL     1       8.490  -3.697  24.215  0.00  0.00    +0.015 A 
ATOM      8  C   UNL     1       8.602  -2.642  23.298  0.00  0.00    +0.037 A 
ATOM      9  C   UNL     1       7.588  -2.468  22.336  0.00  0.00    +0.015 A 
ATOM     10  C   UNL     1       6.503  -3.345  22.269  0.00  0.00    +0.029 A 
BRANCH   5  11
ATOM     11  S   UNL     1       5.114  -5.583  23.028  0.00  0.00    +0.056 S 
ATOM     12  O   UNL     1       5.194  -6.521  24.123  0.00  0.00    -0.153 OA
ATOM     13  O   UNL     1       3.898  -4.885  22.684  0.00  0.00    -0.153 OA
BRANCH  11  14
ATOM     14  N   UNL     1       5.572  -6.453  21.665  0.00  0.00    -0.204 NA
ATOM     15  H   UNL     1       5.619  -7.449  21.881  0.00  0.00    +0.144 HD
ATOM     16  H   UNL     1       4.950  -6.229  20.887  0.00  0.00    +0.144 HD
ENDBRANCH  11  14
ENDBRANCH   5  11
ENDBRANCH   1   8
BRANCH   2  17
ATOM     17  C   UNL     1      10.797   0.381  24.126  0.00  0.00    +0.104 C 
BRANCH  17  18
ATOM     18  C   UNL     1      10.353   1.761  23.652  0.00  0.00    +0.020 C 
BRANCH  18  19
ATOM     19  C   UNL     1      10.044   1.763  22.152  0.00  0.00    +0.017 C 
BRANCH  19  20
ATOM     20  C   UNL     1       8.593   2.172  21.892  0.00  0.00    +0.082 C 
BRANCH  20  21
ATOM     21  N   UNL     1       7.693   1.084  22.277  0.00  0.00    -0.307 NA
ATOM     22  H   UNL     1       8.192   0.416  22.865  0.00  0.00    +0.123 HD
BRANCH  21  23
ATOM     23  C   UNL     1       6.564   1.592  23.038  0.00  0.00    +0.147 C 
BRANCH  23  24
ATOM     24  S   UNL     1       6.167   3.253  22.456  0.00  0.00    -0.163 S 
ATOM     25  H   UNL     1       6.860   3.154  21.313  0.00  0.00    +0.103 HD
ENDBRANCH  23  24
ENDBRANCH  21  23
ENDBRANCH  20  21
ENDBRANCH  19  20
ENDBRANCH  18  19
ENDBRANCH  17  18
ENDBRANCH   2  17
TORSDOF 10
ENDMDL
MODEL 2
REMARK VINA RESULT:      -5.5      2.758      3.362
REMARK  Name = 
REMARK  10 active torsions:
REMARK  status: ('A' for Active; 'I' for Inactive)
REMARK    1  A    between atoms: N_1  and  S_2
REMARK    2  A    between atoms: S_2  and  C_5
REMARK    3  A    between atoms: C_8  and  C_11
REMARK    4  A    between atoms: N_13  and  C_14
REMARK    5  A    between atoms: C_14  and  C_15
REMARK    6  A    between atoms: C_15  and  C_16
REMARK    7  A    between atoms: C_16  and  C_17
REMARK    8  A    between atoms: C_17  and  N_18
REMARK    9  A    between atoms: N_18  and  C_19
REMARK   10  A    between atoms: C_19  and  S_20
REMARK                            x       y       z     vdW  Elec       q    Type
REMARK                         _______ _______ _______ _____ _____    ______ ____
ROOT
ATOM      1  C   UNL     1       9.417  -2.026  22.900  0.00  0.00    +0.244 C 
ATOM      2  N   UNL     1       8.775  -0.924  22.370  0.00  0.00    -0.311 N 
ATOM      3  H   UNL     1       7.802  -0.742  22.557  0.00  0.00    +0.149 HD
ATOM      4  O   UNL     1      10.594  -2.277  22.657  0.00  0.00    -0.270 OA
ENDROOT
BRANCH   1   8
ATOM      5  C   UNL     1       7.329  -4.579  25.658  0.00  0.00    +0.105 A 
ATOM      6  C   UNL     1       6.586  -3.814  24.757  0.00  0.00    +0.029 A 
ATOM      7  C   UNL     1       7.242  -2.988  23.837  0.00  0.00    +0.015 A 
ATOM      8  C   UNL     1       8.642  -2.924  23.815  0.00  0.00    +0.037 A 
ATOM      9  C   UNL     1       9.373  -3.729  24.709  0.00  0.00    +0.015 A 
ATOM     10  C   UNL     1       8.724  -4.557  25.628  0.00  0.00    +0.029 A 
BRANCH   5  11
ATOM     11  S   UNL     1       6.496  -5.546  26.882  0.00  0.00    +0.056 S 
ATOM     12  O   UNL     1       5.664  -6.529  26.227  0.00  0.00    -0.153 OA
ATOM     13  O   UNL     1       7.432  -5.885  27.927  0.00  0.00    -0.153 OA
BRANCH  11  14
ATOM     14  N   UNL     1       5.427  -4.427  27.536  0.00  0.00    -0.204 NA
ATOM     15  H   UNL     1       5.166  -3.735  26.833  0.00  0.00    +0.144 HD
ATOM     16  H   UNL     1       4.631  -4.911  27.953  0.00  0.00    +0.144 HD
ENDBRANCH  11  14
ENDBRANCH   5  11
ENDBRANCH   1   8
BRANCH   2  17
ATOM     17  C   UNL     1       9.465   0.007  21.497  0.00  0.00    +0.104 C 
BRANCH  17  18
ATOM     18  C   UNL     1       9.244   1.452  21.930  0.00  0.00    +0.020 C 
BRANCH  18  19
ATOM     19  C   UNL     1      10.259   1.878  22.994  0.00  0.00    +0.017 C 
BRANCH  19  20
ATOM     20  C   UNL     1       9.573   2.109  24.343  0.00  0.00    +0.082 C 
BRANCH  20  21
ATOM     21  N   UNL     1       9.524   0.857  25.098  0.00  0.00    -0.307 NA
ATOM     22  H   UNL     1      10.133   0.923  25.914  0.00  0.00    +0.123 HD
BRANCH  21  23
ATOM     23  C   UNL     1       8.175   0.589  25.568  0.00  0.00    +0.147 C 
BRANCH  23  24
ATOM     24  S   UNL     1       8.244  -0.680  26.847  0.00  0.00    -0.163 S 
ATOM     25  H   UNL     1       7.223  -0.190  27.565  0.00  0.00    +0.103 HD
ENDBRANCH  23  24
ENDBRANCH  21  23
ENDBRANCH  20  21
ENDBRANCH  19  20
ENDBRANCH  18  19
ENDBRANCH  17  18
ENDBRANCH   2  17
TORSDOF 10
ENDMDL
MODEL 3
REMARK VINA RESULT:      -5.5      3.542      5.177
REMARK  Name = 
REMARK  10 active torsions:
REMARK  status: ('A' for Active; 'I' for Inactive)
REMARK    1  A    between atoms: N_1  and  S_2
REMARK    2  A    between atoms: S_2  and  C_5
REMARK    3  A    between atoms: C_8  and  C_11
REMARK    4  A    between atoms: N_13  and  C_14
REMARK    5  A    between atoms: C_14  and  C_15
REMARK    6  A    between atoms: C_15  and  C_16
REMARK    7  A    between atoms: C_16  and  C_17
REMARK    8  A    between atoms: C_17  and  N_18
REMARK    9  A    between atoms: N_18  and  C_19
REMARK   10  A    between atoms: C_19  and  S_20
REMARK                            x       y       z     vdW  Elec       q    Type
REMARK                         _______ _______ _______ _____ _____    ______ ____
ROOT
ATOM      1  C   UNL     1      10.896   3.690  23.373  0.00  0.00    +0.244 C 
ATOM      2  N   UNL     1       9.882   4.616  23.515  0.00  0.00    -0.311 N 
ATOM      3  H   UNL     1       8.913   4.340  23.512  0.00  0.00    +0.149 HD
ATOM      4  O   UNL     1      12.081   4.016  23.346  0.00  0.00    -0.270 OA
ENDROOT
BRANCH   1   8
ATOM      5  C   UNL     1       9.762  -0.456  23.253  0.00  0.00    +0.105 A 
ATOM      6  C   UNL     1       9.697   0.293  22.076  0.00  0.00    +0.029 A 
ATOM      7  C   UNL     1      10.078   1.639  22.085  0.00  0.00    +0.015 A 
ATOM      8  C   UNL     1      10.524   2.244  23.269  0.00  0.00    +0.037 A 
ATOM      9  C   UNL     1      10.614   1.462  24.437  0.00  0.00    +0.015 A 
ATOM     10  C   UNL     1      10.238   0.117  24.434  0.00  0.00    +0.029 A 
BRANCH   5  11
ATOM     11  S   UNL     1       9.190  -2.128  23.260  0.00  0.00    +0.056 S 
ATOM     12  O   UNL     1       8.480  -2.394  22.031  0.00  0.00    -0.153 OA
ATOM     13  O   UNL     1      10.244  -2.982  23.755  0.00  0.00    -0.153 OA
BRANCH  11  14
ATOM     14  N   UNL     1       8.008  -2.082  24.454  0.00  0.00    -0.204 NA
ATOM     15  H   UNL     1       7.391  -1.282  24.310  0.00  0.00    +0.144 HD
ATOM     16  H   UNL     1       7.519  -2.978  24.491  0.00  0.00    +0.144 HD
ENDBRANCH  11  14
ENDBRANCH   5  11
ENDBRANCH   1   8
BRANCH   2  17
ATOM     17  C   UNL     1      10.164   6.033  23.648  0.00  0.00    +0.104 C 
BRANCH  17  18
ATOM     18  C   UNL     1       8.886   6.865  23.619  0.00  0.00    +0.020 C 
BRANCH  18  19
ATOM     19  C   UNL     1       7.640   5.976  23.651  0.00  0.00    +0.017 C 
BRANCH  19  20
ATOM     20  C   UNL     1       7.099   5.742  22.239  0.00  0.00    +0.082 C 
BRANCH  20  21
ATOM     21  N   UNL     1       7.277   4.339  21.863  0.00  0.00    -0.307 NA
ATOM     22  H   UNL     1       8.104   3.961  22.326  0.00  0.00    +0.123 HD
BRANCH  21  23
ATOM     23  C   UNL     1       6.132   3.544  22.275  0.00  0.00    +0.147 C 
BRANCH  23  24
ATOM     24  S   UNL     1       6.679   2.310  23.471  0.00  0.00    -0.163 S 
ATOM     25  H   UNL     1       7.044   3.196  24.409  0.00  0.00    +0.103 HD
ENDBRANCH  23  24
ENDBRANCH  21  23
ENDBRANCH  20  21
ENDBRANCH  19  20
ENDBRANCH  18  19
ENDBRANCH  17  18
ENDBRANCH   2  17
TORSDOF 10
ENDMDL
MODEL 4
REMARK VINA RESULT:      -5.4      2.098      2.646
REMARK  Name = 
REMARK  10 active torsions:
REMARK  status: ('A' for Active; 'I' for Inactive)
REMARK    1  A    between atoms: N_1  and  S_2
REMARK    2  A    between atoms: S_2  and  C_5
REMARK    3  A    between atoms: C_8  and  C_11
REMARK    4  A    between atoms: N_13  and  C_14
REMARK    5  A    between atoms: C_14  and  C_15
REMARK    6  A    between atoms: C_15  and  C_16
REMARK    7  A    between atoms: C_16  and  C_17
REMARK    8  A    between atoms: C_17  and  N_18
REMARK    9  A    between atoms: N_18  and  C_19
REMARK   10  A    between atoms: C_19  and  S_20
REMARK                            x       y       z     vdW  Elec       q    Type
REMARK                         _______ _______ _______ _____ _____    ______ ____
ROOT
ATOM      1  C   UNL     1       9.160  -2.805  23.264  0.00  0.00    +0.244 C 
ATOM      2  N   UNL     1       8.850  -1.910  22.259  0.00  0.00    -0.311 N 
ATOM      3  H   UNL     1       7.942  -1.901  21.824  0.00  0.00    +0.149 HD
ATOM      4  O   UNL     1      10.272  -2.848  23.784  0.00  0.00    -0.270 OA
ENDROOT
BRANCH   1   8
ATOM      5  C   UNL     1       6.033  -5.352  24.757  0.00  0.00    +0.105 A 
ATOM      6  C   UNL     1       6.322  -5.373  23.391  0.00  0.00    +0.029 A 
ATOM      7  C   UNL     1       7.347  -4.567  22.883  0.00  0.00    +0.015 A 
ATOM      8  C   UNL     1       8.086  -3.736  23.736  0.00  0.00    +0.037 A 
ATOM      9  C   UNL     1       7.801  -3.755  25.115  0.00  0.00    +0.015 A 
ATOM     10  C   UNL     1       6.781  -4.559  25.629  0.00  0.00    +0.029 A 
BRANCH   5  11
ATOM     11  S   UNL     1       4.676  -6.297  25.380  0.00  0.00    +0.056 S 
ATOM     12  O   UNL     1       5.125  -7.097  26.496  0.00  0.00    -0.153 OA
ATOM     13  O   UNL     1       3.507  -5.452  25.444  0.00  0.00    -0.153 OA
BRANCH  11  14
ATOM     14  N   UNL     1       4.414  -7.388  24.130  0.00  0.00    -0.204 NA
ATOM     15  H   UNL     1       3.414  -7.500  23.961  0.00  0.00    +0.144 HD
ATOM     16  H   UNL     1       4.941  -7.101  23.304  0.00  0.00    +0.144 HD
ENDBRANCH  11  14
ENDBRANCH   5  11
ENDBRANCH   1   8
BRANCH   2  17
ATOM     17  C   UNL     1       9.829  -0.958  21.766  0.00  0.00    +0.104 C 
BRANCH  17  18
ATOM     18  C   UNL     1       9.217   0.425  21.568  0.00  0.00    +0.020 C 
BRANCH  18  19
ATOM     19  C   UNL     1       9.955   1.484  22.392  0.00  0.00    +0.017 C 
BRANCH  19  20
ATOM     20  C   UNL     1      10.576   0.868  23.647  0.00  0.00    +0.082 C 
BRANCH  20  21
ATOM     21  N   UNL     1       9.824   1.284  24.830  0.00  0.00    -0.307 NA
ATOM     22  H   UNL     1       9.108   1.960  24.563  0.00  0.00    +0.123 HD
BRANCH  21  23
ATOM     23  C   UNL     1       9.157   0.148  25.445  0.00  0.00    +0.147 C 
BRANCH  23  24
ATOM     24  S   UNL     1       7.408   0.190  25.006  0.00  0.00    -0.163 S 
ATOM     25  H   UNL     1       7.037  -0.757  25.879  0.00  0.00    +0.103 HD
ENDBRANCH  23  24
ENDBRANCH  21  23
ENDBRANCH  20  21
ENDBRANCH  19  20
ENDBRANCH  18  19
ENDBRANCH  17  18
ENDBRANCH   2  17
TORSDOF 10
ENDMDL
MODEL 5
REMARK VINA RESULT:      -5.4      3.600      4.326
REMARK  Name = 
REMARK  10 active torsions:
REMARK  status: ('A' for Active; 'I' for Inactive)
REMARK    1  A    between atoms: N_1  and  S_2
REMARK    2  A    between atoms: S_2  and  C_5
REMARK    3  A    between atoms: C_8  and  C_11
REMARK    4  A    between atoms: N_13  and  C_14
REMARK    5  A    between atoms: C_14  and  C_15
REMARK    6  A    between atoms: C_15  and  C_16
REMARK    7  A    between atoms: C_16  and  C_17
REMARK    8  A    between atoms: C_17  and  N_18
REMARK    9  A    between atoms: N_18  and  C_19
REMARK   10  A    between atoms: C_19  and  S_20
REMARK                            x       y       z     vdW  Elec       q    Type
REMARK                         _______ _______ _______ _____ _____    ______ ____
ROOT
ATOM      1  C   UNL     1       9.684   0.981  24.660  0.00  0.00    +0.244 C 
ATOM      2  N   UNL     1       8.612   1.834  24.831  0.00  0.00    -0.311 N 
ATOM      3  H   UNL     1       7.695   1.486  25.063  0.00  0.00    +0.149 HD
ATOM      4  O   UNL     1      10.801   1.387  24.348  0.00  0.00    -0.270 OA
ENDROOT
BRANCH   1   8
ATOM      5  C   UNL     1       8.893  -3.182  25.394  0.00  0.00    +0.105 A 
ATOM      6  C   UNL     1       9.575  -2.822  24.229  0.00  0.00    +0.029 A 
ATOM      7  C   UNL     1       9.860  -1.477  23.976  0.00  0.00    +0.015 A 
ATOM      8  C   UNL     1       9.465  -0.484  24.884  0.00  0.00    +0.037 A 
ATOM      9  C   UNL     1       8.809  -0.871  26.068  0.00  0.00    +0.015 A 
ATOM     10  C   UNL     1       8.524  -2.213  26.328  0.00  0.00    +0.029 A 
BRANCH   5  11
ATOM     11  S   UNL     1       8.450  -4.872  25.664  0.00  0.00    +0.056 S 
ATOM     12  O   UNL     1       8.229  -5.087  27.075  0.00  0.00    -0.153 OA
ATOM     13  O   UNL     1       7.500  -5.273  24.653  0.00  0.00    -0.153 OA
BRANCH  11  14
ATOM     14  N   UNL     1       9.889  -5.665  25.314  0.00  0.00    -0.204 NA
ATOM     15  H   UNL     1      10.518  -5.625  26.116  0.00  0.00    +0.144 HD
ATOM     16  H   UNL     1       9.692  -6.613  24.992  0.00  0.00    +0.144 HD
ENDBRANCH  11  14
ENDBRANCH   5  11
ENDBRANCH   1   8
BRANCH   2  17
ATOM     17  C   UNL     1       8.751   3.268  24.657  0.00  0.00    +0.104 C 
BRANCH  17  18
ATOM     18  C   UNL     1       8.407   3.696  23.234  0.00  0.00    +0.020 C 
BRANCH  18  19
ATOM     19  C   UNL     1       8.005   5.173  23.178  0.00  0.00    +0.017 C 
BRANCH  19  20
ATOM     20  C   UNL     1       9.079   6.058  23.814  0.00  0.00    +0.082 C 
BRANCH  20  21
ATOM     21  N   UNL     1      10.319   5.968  23.043  0.00  0.00    -0.307 NA
ATOM     22  H   UNL     1      10.417   6.793  22.452  0.00  0.00    +0.123 HD
BRANCH  21  23
ATOM     23  C   UNL     1      11.473   5.911  23.925  0.00  0.00    +0.147 C 
BRANCH  23  24
ATOM     24  S   UNL     1      12.870   5.223  23.015  0.00  0.00    -0.163 S 
ATOM     25  H   UNL     1      13.810   5.845  23.740  0.00  0.00    +0.103 HD
ENDBRANCH  23  24
ENDBRANCH  21  23
ENDBRANCH  20  21
ENDBRANCH  19  20
ENDBRANCH  18  19
ENDBRANCH  17  18
ENDBRANCH   2  17
TORSDOF 10
ENDMDL
MODEL 6
REMARK VINA RESULT:      -5.3      2.071      2.352
REMARK  Name = 
REMARK  10 active torsions:
REMARK  status: ('A' for Active; 'I' for Inactive)
REMARK    1  A    between atoms: N_1  and  S_2
REMARK    2  A    between atoms: S_2  and  C_5
REMARK    3  A    between atoms: C_8  and  C_11
REMARK    4  A    between atoms: N_13  and  C_14
REMARK    5  A    between atoms: C_14  and  C_15
REMARK    6  A    between atoms: C_15  and  C_16
REMARK    7  A    between atoms: C_16  and  C_17
REMARK    8  A    between atoms: C_17  and  N_18
REMARK    9  A    between atoms: N_18  and  C_19
REMARK   10  A    between atoms: C_19  and  S_20
REMARK                            x       y       z     vdW  Elec       q    Type
REMARK                         _______ _______ _______ _____ _____    ______ ____
ROOT
ATOM      1  C   UNL     1       9.742  -1.669  23.338  0.00  0.00    +0.244 C 
ATOM      2  N   UNL     1       9.765  -0.708  24.329  0.00  0.00    -0.311 N 
ATOM      3  H   UNL     1       9.017  -0.624  24.999  0.00  0.00    +0.149 HD
ATOM      4  O   UNL     1      10.632  -1.764  22.497  0.00  0.00    -0.270 OA
ENDROOT
BRANCH   1   8
ATOM      5  C   UNL     1       6.418  -4.386  23.087  0.00  0.00    +0.105 A 
ATOM      6  C   UNL     1       7.488  -4.708  23.924  0.00  0.00    +0.029 A 
ATOM      7  C   UNL     1       8.573  -3.833  24.038  0.00  0.00    +0.015 A 
ATOM      8  C   UNL     1       8.595  -2.632  23.314  0.00  0.00    +0.037 A 
ATOM      9  C   UNL     1       7.491  -2.310  22.501  0.00  0.00    +0.015 A 
ATOM     10  C   UNL     1       6.403  -3.179  22.386  0.00  0.00    +0.029 A 
BRANCH   5  11
ATOM     11  S   UNL     1       5.095  -5.538  22.872  0.00  0.00    +0.056 S 
ATOM     12  O   UNL     1       5.233  -6.607  23.834  0.00  0.00    -0.153 OA
ATOM     13  O   UNL     1       3.863  -4.807  22.687  0.00  0.00    -0.153 OA
BRANCH  11  14
ATOM     14  N   UNL     1       5.475  -6.226  21.387  0.00  0.00    -0.204 NA
ATOM     15  H   UNL     1       4.752  -6.008  20.701  0.00  0.00    +0.144 HD
ATOM     16  H   UNL     1       6.413  -5.938  21.103  0.00  0.00    +0.144 HD
ENDBRANCH  11  14
ENDBRANCH   5  11
ENDBRANCH   1   8
BRANCH   2  17
ATOM     17  C   UNL     1      10.855   0.244  24.434  0.00  0.00    +0.104 C 
BRANCH  17  18
ATOM     18  C   UNL     1      10.499   1.578  23.784  0.00  0.00    +0.020 C 
BRANCH  18  19
ATOM     19  C   UNL     1       9.329   2.255  24.504  0.00  0.00    +0.017 C 
BRANCH  19  20
ATOM     20  C   UNL     1       9.095   3.666  23.961  0.00  0.00    +0.082 C 
BRANCH  20  21
ATOM     21  N   UNL     1      10.299   4.145  23.284  0.00  0.00    -0.307 NA
ATOM     22  H   UNL     1      10.102   4.291  22.293  0.00  0.00    +0.123 HD
BRANCH  21  23
ATOM     23  C   UNL     1      10.737   5.413  23.843  0.00  0.00    +0.147 C 
BRANCH  23  24
ATOM     24  S   UNL     1      12.509   5.597  23.557  0.00  0.00    -0.163 S 
ATOM     25  H   UNL     1      12.397   5.871  22.249  0.00  0.00    +0.103 HD
ENDBRANCH  23  24
ENDBRANCH  21  23
ENDBRANCH  20  21
ENDBRANCH  19  20
ENDBRANCH  18  19
ENDBRANCH  17  18
ENDBRANCH   2  17
TORSDOF 10
ENDMDL
MODEL 7
REMARK VINA RESULT:      -5.3      2.930      7.236
REMARK  Name = 
REMARK  10 active torsions:
REMARK  status: ('A' for Active; 'I' for Inactive)
REMARK    1  A    between atoms: N_1  and  S_2
REMARK    2  A    between atoms: S_2  and  C_5
REMARK    3  A    between atoms: C_8  and  C_11
REMARK    4  A    between atoms: N_13  and  C_14
REMARK    5  A    between atoms: C_14  and  C_15
REMARK    6  A    between atoms: C_15  and  C_16
REMARK    7  A    between atoms: C_16  and  C_17
REMARK    8  A    between atoms: C_17  and  N_18
REMARK    9  A    between atoms: N_18  and  C_19
REMARK   10  A    between atoms: C_19  and  S_20
REMARK                            x       y       z     vdW  Elec       q    Type
REMARK                         _______ _______ _______ _____ _____    ______ ____
ROOT
ATOM      1  C   UNL     1       9.090  -3.503  24.766  0.00  0.00    +0.244 C 
ATOM      2  N   UNL     1       7.857  -3.867  25.270  0.00  0.00    -0.311 N 
ATOM      3  H   UNL     1       7.146  -3.181  25.467  0.00  0.00    +0.149 HD
ATOM      4  O   UNL     1       9.977  -4.324  24.548  0.00  0.00    -0.270 OA
ENDROOT
BRANCH   1   8
ATOM      5  C   UNL     1       9.735   0.617  23.716  0.00  0.00    +0.105 A 
ATOM      6  C   UNL     1       9.274   0.315  24.999  0.00  0.00    +0.029 A 
ATOM      7  C   UNL     1       9.074  -1.019  25.372  0.00  0.00    +0.015 A 
ATOM      8  C   UNL     1       9.331  -2.056  24.464  0.00  0.00    +0.037 A 
ATOM      9  C   UNL     1       9.827  -1.731  23.187  0.00  0.00    +0.015 A 
ATOM     10  C   UNL     1      10.032  -0.402  22.810  0.00  0.00    +0.029 A 
BRANCH   5  11
ATOM     11  S   UNL     1       9.895   2.306  23.217  0.00  0.00    +0.056 S 
ATOM     12  O   UNL     1       8.642   2.989  23.438  0.00  0.00    -0.153 OA
ATOM     13  O   UNL     1      11.158   2.817  23.695  0.00  0.00    -0.153 OA
BRANCH  11  14
ATOM     14  N   UNL     1      10.034   2.160  21.549  0.00  0.00    -0.204 NA
ATOM     15  H   UNL     1       9.448   1.396  21.212  0.00  0.00    +0.144 HD
ATOM     16  H   UNL     1       9.836   3.058  21.106  0.00  0.00    +0.144 HD
ENDBRANCH  11  14
ENDBRANCH   5  11
ENDBRANCH   1   8
BRANCH   2  17
ATOM     17  C   UNL     1       7.539  -5.252  25.563  0.00  0.00    +0.104 C 
BRANCH  17  18
ATOM     18  C   UNL     1       6.274  -5.371  26.406  0.00  0.00    +0.020 C 
BRANCH  18  19
ATOM     19  C   UNL     1       5.293  -6.379  25.801  0.00  0.00    +0.017 C 
BRANCH  19  20
ATOM     20  C   UNL     1       4.603  -5.798  24.565  0.00  0.00    +0.082 C 
BRANCH  20  21
ATOM     21  N   UNL     1       4.972  -6.572  23.379  0.00  0.00    -0.307 NA
ATOM     22  H   UNL     1       4.176  -7.134  23.074  0.00  0.00    +0.123 HD
BRANCH  21  23
ATOM     23  C   UNL     1       5.345  -5.694  22.284  0.00  0.00    +0.147 C 
BRANCH  23  24
ATOM     24  S   UNL     1       7.085  -5.958  21.890  0.00  0.00    -0.163 S 
ATOM     25  H   UNL     1       7.194  -7.108  22.571  0.00  0.00    +0.103 HD
ENDBRANCH  23  24
ENDBRANCH  21  23
ENDBRANCH  20  21
ENDBRANCH  19  20
ENDBRANCH  18  19
ENDBRANCH  17  18
ENDBRANCH   2  17
TORSDOF 10
ENDMDL
MODEL 8
REMARK VINA RESULT:      -5.2      2.953      7.508
REMARK  Name = 
REMARK  10 active torsions:
REMARK  status: ('A' for Active; 'I' for Inactive)
REMARK    1  A    between atoms: N_1  and  S_2
REMARK    2  A    between atoms: S_2  and  C_5
REMARK    3  A    between atoms: C_8  and  C_11
REMARK    4  A    between atoms: N_13  and  C_14
REMARK    5  A    between atoms: C_14  and  C_15
REMARK    6  A    between atoms: C_15  and  C_16
REMARK    7  A    between atoms: C_16  and  C_17
REMARK    8  A    between atoms: C_17  and  N_18
REMARK    9  A    between atoms: N_18  and  C_19
REMARK   10  A    between atoms: C_19  and  S_20
REMARK                            x       y       z     vdW  Elec       q    Type
REMARK                         _______ _______ _______ _____ _____    ______ ____
ROOT
ATOM      1  C   UNL     1       8.288  -3.962  23.340  0.00  0.00    +0.244 C 
ATOM      2  N   UNL     1       7.355  -4.334  22.393  0.00  0.00    -0.311 N 
ATOM      3  H   UNL     1       6.952  -3.662  21.759  0.00  0.00    +0.149 HD
ATOM      4  O   UNL     1       8.767  -4.764  24.138  0.00  0.00    -0.270 OA
ENDROOT
BRANCH   1   8
ATOM      5  C   UNL     1       9.445   0.179  23.285  0.00  0.00    +0.105 A 
ATOM      6  C   UNL     1       9.477  -0.512  24.498  0.00  0.00    +0.029 A 
ATOM      7  C   UNL     1       9.123  -1.865  24.540  0.00  0.00    +0.015 A 
ATOM      8  C   UNL     1       8.734  -2.533  23.371  0.00  0.00    +0.037 A 
ATOM      9  C   UNL     1       8.741  -1.827  22.152  0.00  0.00    +0.015 A 
ATOM     10  C   UNL     1       9.096  -0.477  22.104  0.00  0.00    +0.029 A 
BRANCH   5  11
ATOM     11  S   UNL     1       9.800   1.910  23.253  0.00  0.00    +0.056 S 
ATOM     12  O   UNL     1       8.593   2.650  23.537  0.00  0.00    -0.153 OA
ATOM     13  O   UNL     1      11.044   2.146  23.948  0.00  0.00    -0.153 OA
BRANCH  11  14
ATOM     14  N   UNL     1      10.104   2.169  21.621  0.00  0.00    -0.204 NA
ATOM     15  H   UNL     1       9.260   2.003  21.074  0.00  0.00    +0.144 HD
ATOM     16  H   UNL     1      10.507   3.097  21.487  0.00  0.00    +0.144 HD
ENDBRANCH  11  14
ENDBRANCH   5  11
ENDBRANCH   1   8
BRANCH   2  17
ATOM     17  C   UNL     1       6.893  -5.705  22.283  0.00  0.00    +0.104 C 
BRANCH  17  18
ATOM     18  C   UNL     1       5.383  -5.805  22.475  0.00  0.00    +0.020 C 
BRANCH  18  19
ATOM     19  C   UNL     1       4.971  -5.391  23.890  0.00  0.00    +0.017 C 
BRANCH  19  20
ATOM     20  C   UNL     1       4.680  -6.618  24.757  0.00  0.00    +0.082 C 
BRANCH  20  21
ATOM     21  N   UNL     1       3.955  -7.620  23.975  0.00  0.00    -0.307 NA
ATOM     22  H   UNL     1       4.313  -8.551  24.191  0.00  0.00    +0.123 HD
BRANCH  21  23
ATOM     23  C   UNL     1       2.538  -7.600  24.297  0.00  0.00    +0.147 C 
BRANCH  23  24
ATOM     24  S   UNL     1       1.624  -6.982  22.871  0.00  0.00    -0.163 S 
ATOM     25  H   UNL     1       0.926  -8.109  22.671  0.00  0.00    +0.103 HD
ENDBRANCH  23  24
ENDBRANCH  21  23
ENDBRANCH  20  21
ENDBRANCH  19  20
ENDBRANCH  18  19
ENDBRANCH  17  18
ENDBRANCH   2  17
TORSDOF 10
ENDMDL
MODEL 9
REMARK VINA RESULT:      -5.2      2.827      3.291
REMARK  Name = 
REMARK  10 active torsions:
REMARK  status: ('A' for Active; 'I' for Inactive)
REMARK    1  A    between atoms: N_1  and  S_2
REMARK    2  A    between atoms: S_2  and  C_5
REMARK    3  A    between atoms: C_8  and  C_11
REMARK    4  A    between atoms: N_13  and  C_14
REMARK    5  A    between atoms: C_14  and  C_15
REMARK    6  A    between atoms: C_15  and  C_16
REMARK    7  A    between atoms: C_16  and  C_17
REMARK    8  A    between atoms: C_17  and  N_18
REMARK    9  A    between atoms: N_18  and  C_19
REMARK   10  A    between atoms: C_19  and  S_20
REMARK                            x       y       z     vdW  Elec       q    Type
REMARK                         _______ _______ _______ _____ _____    ______ ____
ROOT
ATOM      1  C   UNL     1       9.474  -1.524  22.764  0.00  0.00    +0.244 C 
ATOM      2  N   UNL     1       8.842  -0.327  22.488  0.00  0.00    -0.311 N 
ATOM      3  H   UNL     1       7.938  -0.109  22.876  0.00  0.00    +0.149 HD
ATOM      4  O   UNL     1      10.563  -1.816  22.276  0.00  0.00    -0.270 OA
ENDROOT
BRANCH   1   8
ATOM      5  C   UNL     1       7.499  -4.111  25.574  0.00  0.00    +0.105 A 
ATOM      6  C   UNL     1       7.540  -4.485  24.230  0.00  0.00    +0.029 A 
ATOM      7  C   UNL     1       8.192  -3.670  23.298  0.00  0.00    +0.015 A 
ATOM      8  C   UNL     1       8.805  -2.477  23.705  0.00  0.00    +0.037 A 
ATOM      9  C   UNL     1       8.781  -2.134  25.071  0.00  0.00    +0.015 A 
ATOM     10  C   UNL     1       8.135  -2.946  26.006  0.00  0.00    +0.029 A 
BRANCH   5  11
ATOM     11  S   UNL     1       6.593  -5.093  26.731  0.00  0.00    +0.056 S 
ATOM     12  O   UNL     1       6.010  -4.233  27.733  0.00  0.00    -0.153 OA
ATOM     13  O   UNL     1       5.828  -6.081  26.007  0.00  0.00    -0.153 OA
BRANCH  11  14
ATOM     14  N   UNL     1       7.825  -5.921  27.518  0.00  0.00    -0.204 NA
ATOM     15  H   UNL     1       8.171  -6.681  26.932  0.00  0.00    +0.144 HD
ATOM     16  H   UNL     1       8.550  -5.265  27.812  0.00  0.00    +0.144 HD
ENDBRANCH  11  14
ENDBRANCH   5  11
ENDBRANCH   1   8
BRANCH   2  17
ATOM     17  C   UNL     1       9.439   0.659  21.607  0.00  0.00    +0.104 C 
BRANCH  17  18
ATOM     18  C   UNL     1      10.158   1.751  22.392  0.00  0.00    +0.020 C 
BRANCH  18  19
ATOM     19  C   UNL     1       9.489   1.996  23.747  0.00  0.00    +0.017 C 
BRANCH  19  20
ATOM     20  C   UNL     1       8.489   3.152  23.663  0.00  0.00    +0.082 C 
BRANCH  20  21
ATOM     21  N   UNL     1       9.126   4.318  23.053  0.00  0.00    -0.307 NA
ATOM     22  H   UNL     1       8.436   4.849  22.521  0.00  0.00    +0.123 HD
BRANCH  21  23
ATOM     23  C   UNL     1       9.676   5.198  24.071  0.00  0.00    +0.147 C 
BRANCH  23  24
ATOM     24  S   UNL     1      11.387   5.582  23.648  0.00  0.00    -0.163 S 
ATOM     25  H   UNL     1      11.917   4.549  24.320  0.00  0.00    +0.103 HD
ENDBRANCH  23  24
ENDBRANCH  21  23
ENDBRANCH  20  21
ENDBRANCH  19  20
ENDBRANCH  18  19
ENDBRANCH  17  18
ENDBRANCH   2  17
TORSDOF 10
ENDMDL
