MODEL 1
REMARK VINA RESULT:      -6.5      0.000      0.000
REMARK  Name = 
REMARK  7 active torsions:
REMARK  status: ('A' for Active; 'I' for Inactive)
REMARK    1  A    between atoms: C_1  and  C_2
REMARK    2  A    between atoms: C_2  and  O_4
REMARK    3  A    between atoms: C_2  and  C_5
REMARK    4  A    between atoms: C_8  and  N_16
REMARK    5  A    between atoms: C_10  and  O_12
REMARK    6  A    between atoms: C_13  and  O_15
REMARK    7  A    between atoms: C_24  and  C_25
REMARK                            x       y       z     vdW  Elec       q    Type
REMARK                         _______ _______ _______ _____ _____    ______ ____
ROOT
ATOM      1  C   UNL     1       6.555  -4.836  23.997  0.00  0.00    +0.180 C 
ATOM      2  C   UNL     1       7.479  -5.322  25.115  0.00  0.00    +0.179 C 
ATOM      3  C   UNL     1       8.748  -4.483  25.000  0.00  0.00    +0.195 C 
ATOM      4  C   UNL     1       8.463  -3.516  23.845  0.00  0.00    +0.253 C 
ATOM      5  O   UNL     1       7.033  -3.514  23.649  0.00  0.00    -0.345 OA
ENDROOT
BRANCH   4   6
ATOM      6  N   UNL     1       8.914  -2.163  24.130  0.00  0.00    -0.286 N 
ATOM      7  C   UNL     1       9.165  -1.200  23.185  0.00  0.00    +0.166 A 
ATOM      8  N   UNL     1       9.052  -1.313  21.849  0.00  0.00    -0.216 NA
ATOM      9  C   UNL     1       9.408  -0.158  21.244  0.00  0.00    +0.223 A 
ATOM     10  N   UNL     1       9.840   0.988  21.815  0.00  0.00    -0.238 NA
ATOM     11  C   UNL     1       9.942   1.043  23.176  0.00  0.00    +0.069 A 
ATOM     12  C   UNL     1      10.432   2.308  23.805  0.00  0.00    +0.068 C 
ATOM     13  C   UNL     1       9.591  -0.097  23.909  0.00  0.00    +0.129 A 
ATOM     14  N   UNL     1       9.588  -0.366  25.258  0.00  0.00    -0.232 NA
ATOM     15  C   UNL     1       9.166  -1.609  25.356  0.00  0.00    +0.203 A 
ENDBRANCH   4   6
BRANCH   1  17
ATOM     16  C   UNL     1       6.247  -4.944  21.468  0.00  0.00    +0.040 C 
ATOM     17  C   UNL     1       6.517  -5.736  22.743  0.00  0.00    +0.143 C 
BRANCH  17  18
ATOM     18  O   UNL     1       5.520  -6.747  22.876  0.00  0.00    -0.389 OA
ATOM     19  H   UNL     1       5.728  -7.264  23.675  0.00  0.00    +0.210 HD
ENDBRANCH  17  18
ENDBRANCH   1  17
BRANCH   2  20
ATOM     20  O   UNL     1       6.848  -5.063  26.385  0.00  0.00    -0.386 OA
ATOM     21  H   UNL     1       6.682  -5.915  26.827  0.00  0.00    +0.210 HD
ENDBRANCH   2  20
BRANCH   3  22
ATOM     22  O   UNL     1       9.895  -5.300  24.751  0.00  0.00    -0.385 OA
ATOM     23  H   UNL     1      10.221  -5.596  25.626  0.00  0.00    +0.210 HD
ENDBRANCH   3  22
TORSDOF 5
ENDMDL
MODEL 2
REMARK VINA RESULT:      -6.4      2.855      6.397
REMARK  Name = 
REMARK  7 active torsions:
REMARK  status: ('A' for Active; 'I' for Inactive)
REMARK    1  A    between atoms: C_1  and  C_2
REMARK    2  A    between atoms: C_2  and  O_4
REMARK    3  A    between atoms: C_2  and  C_5
REMARK    4  A    between atoms: C_8  and  N_16
REMARK    5  A    between atoms: C_10  and  O_12
REMARK    6  A    between atoms: C_13  and  O_15
REMARK    7  A    between atoms: C_24  and  C_25
REMARK                            x       y       z     vdW  Elec       q    Type
REMARK                         _______ _______ _______ _____ _____    ______ ____
ROOT
ATOM      1  C   UNL     1       8.997   0.033  23.269  0.00  0.00    +0.180 C 
ATOM      2  C   UNL     1       9.917  -1.067  22.735  0.00  0.00    +0.179 C 
ATOM      3  C   UNL     1       9.275  -2.385  23.154  0.00  0.00    +0.195 C 
ATOM      4  C   UNL     1       7.982  -1.972  23.868  0.00  0.00    +0.253 C 
ATOM      5  O   UNL     1       7.715  -0.606  23.484  0.00  0.00    -0.345 OA
ENDROOT
BRANCH   4   6
ATOM      6  N   UNL     1       6.852  -2.808  23.498  0.00  0.00    -0.286 N 
ATOM      7  C   UNL     1       6.416  -3.901  24.204  0.00  0.00    +0.166 A 
ATOM      8  N   UNL     1       6.933  -4.403  25.341  0.00  0.00    -0.216 NA
ATOM      9  C   UNL     1       6.248  -5.502  25.728  0.00  0.00    +0.223 A 
ATOM     10  N   UNL     1       5.194  -6.090  25.120  0.00  0.00    -0.238 NA
ATOM     11  C   UNL     1       4.715  -5.541  23.964  0.00  0.00    +0.069 A 
ATOM     12  C   UNL     1       3.557  -6.200  23.285  0.00  0.00    +0.068 C 
ATOM     13  C   UNL     1       5.345  -4.391  23.471  0.00  0.00    +0.129 A 
ATOM     14  N   UNL     1       5.119  -3.616  22.358  0.00  0.00    -0.232 NA
ATOM     15  C   UNL     1       6.033  -2.670  22.411  0.00  0.00    +0.203 A 
ENDBRANCH   4   6
BRANCH   1  17
ATOM     16  C   UNL     1       9.383   2.232  24.501  0.00  0.00    +0.040 C 
ATOM     17  C   UNL     1       9.478   0.712  24.570  0.00  0.00    +0.143 C 
BRANCH  17  18
ATOM     18  O   UNL     1      10.825   0.348  24.863  0.00  0.00    -0.389 OA
ATOM     19  H   UNL     1      10.983  -0.534  24.482  0.00  0.00    +0.210 HD
ENDBRANCH  17  18
ENDBRANCH   1  17
BRANCH   2  20
ATOM     20  O   UNL     1       9.949  -0.986  21.296  0.00  0.00    -0.386 OA
ATOM     21  H   UNL     1      10.880  -0.971  21.008  0.00  0.00    +0.210 HD
ENDBRANCH   2  20
BRANCH   3  22
ATOM     22  O   UNL     1      10.141  -3.144  24.001  0.00  0.00    -0.385 OA
ATOM     23  H   UNL     1      10.957  -2.612  24.111  0.00  0.00    +0.210 HD
ENDBRANCH   3  22
TORSDOF 5
ENDMDL
MODEL 3
REMARK VINA RESULT:      -6.4      1.805      2.584
REMARK  Name = 
REMARK  7 active torsions:
REMARK  status: ('A' for Active; 'I' for Inactive)
REMARK    1  A    between atoms: C_1  and  C_2
REMARK    2  A    between atoms: C_2  and  O_4
REMARK    3  A    between atoms: C_2  and  C_5
REMARK    4  A    between atoms: C_8  and  N_16
REMARK    5  A    between atoms: C_10  and  O_12
REMARK    6  A    between atoms: C_13  and  O_15
REMARK    7  A    between atoms: C_24  and  C_25
REMARK                            x       y       z     vdW  Elec       q    Type
REMARK                         _______ _______ _______ _____ _____    ______ ____
ROOT
ATOM      1  C   UNL     1       8.348  -4.724  26.748  0.00  0.00    +0.180 C 
ATOM      2  C   UNL     1       9.070  -5.236  25.500  0.00  0.00    +0.179 C 
ATOM      3  C   UNL     1       8.931  -4.132  24.457  0.00  0.00    +0.195 C 
ATOM      4  C   UNL     1       8.174  -3.013  25.183  0.00  0.00    +0.253 C 
ATOM      5  O   UNL     1       8.288  -3.285  26.596  0.00  0.00    -0.345 OA
ENDROOT
BRANCH   4   6
ATOM      6  N   UNL     1       8.723  -1.697  24.898  0.00  0.00    -0.286 N 
ATOM      7  C   UNL     1       8.945  -1.191  23.642  0.00  0.00    +0.166 A 
ATOM      8  N   UNL     1       8.710  -1.794  22.461  0.00  0.00    -0.216 NA
ATOM      9  C   UNL     1       9.077  -0.990  21.439  0.00  0.00    +0.223 A 
ATOM     10  N   UNL     1       9.619   0.246  21.497  0.00  0.00    -0.238 NA
ATOM     11  C   UNL     1       9.842   0.806  22.723  0.00  0.00    +0.069 A 
ATOM     12  C   UNL     1      10.454   2.169  22.786  0.00  0.00    +0.068 C 
ATOM     13  C   UNL     1       9.492   0.065  23.858  0.00  0.00    +0.129 A 
ATOM     14  N   UNL     1       9.591   0.330  25.204  0.00  0.00    -0.232 NA
ATOM     15  C   UNL     1       9.111  -0.743  25.798  0.00  0.00    +0.203 A 
ENDBRANCH   4   6
BRANCH   1  17
ATOM     16  C   UNL     1       5.951  -4.245  27.473  0.00  0.00    +0.040 C 
ATOM     17  C   UNL     1       6.930  -5.297  26.964  0.00  0.00    +0.143 C 
BRANCH  17  18
ATOM     18  O   UNL     1       6.958  -6.383  27.886  0.00  0.00    -0.389 OA
ATOM     19  H   UNL     1       6.453  -6.115  28.675  0.00  0.00    +0.210 HD
ENDBRANCH  17  18
ENDBRANCH   1  17
BRANCH   2  20
ATOM     20  O   UNL     1      10.465  -5.424  25.815  0.00  0.00    -0.386 OA
ATOM     21  H   UNL     1      10.529  -5.908  26.658  0.00  0.00    +0.210 HD
ENDBRANCH   2  20
BRANCH   3  22
ATOM     22  O   UNL     1       8.232  -4.593  23.298  0.00  0.00    -0.385 OA
ATOM     23  H   UNL     1       7.335  -4.201  23.340  0.00  0.00    +0.210 HD
ENDBRANCH   3  22
TORSDOF 5
ENDMDL
MODEL 4
REMARK VINA RESULT:      -6.3      1.750      2.862
REMARK  Name = 
REMARK  7 active torsions:
REMARK  status: ('A' for Active; 'I' for Inactive)
REMARK    1  A    between atoms: C_1  and  C_2
REMARK    2  A    between atoms: C_2  and  O_4
REMARK    3  A    between atoms: C_2  and  C_5
REMARK    4  A    between atoms: C_8  and  N_16
REMARK    5  A    between atoms: C_10  and  O_12
REMARK    6  A    between atoms: C_13  and  O_15
REMARK    7  A    between atoms: C_24  and  C_25
REMARK                            x       y       z     vdW  Elec       q    Type
REMARK                         _______ _______ _______ _____ _____    ______ ____
ROOT
ATOM      1  C   UNL     1       6.290  -5.940  23.387  0.00  0.00    +0.180 C 
ATOM      2  C   UNL     1       6.131  -5.364  21.978  0.00  0.00    +0.179 C 
ATOM      3  C   UNL     1       6.394  -3.867  22.109  0.00  0.00    +0.195 C 
ATOM      4  C   UNL     1       6.744  -3.668  23.589  0.00  0.00    +0.253 C 
ATOM      5  O   UNL     1       7.083  -4.970  24.113  0.00  0.00    -0.345 OA
ENDROOT
BRANCH   4   6
ATOM      6  N   UNL     1       7.867  -2.764  23.777  0.00  0.00    -0.286 N 
ATOM      7  C   UNL     1       7.807  -1.398  23.661  0.00  0.00    +0.166 A 
ATOM      8  N   UNL     1       6.732  -0.647  23.356  0.00  0.00    -0.216 NA
ATOM      9  C   UNL     1       7.066   0.661  23.312  0.00  0.00    +0.223 A 
ATOM     10  N   UNL     1       8.277   1.225  23.516  0.00  0.00    -0.238 NA
ATOM     11  C   UNL     1       9.335   0.413  23.816  0.00  0.00    +0.069 A 
ATOM     12  C   UNL     1      10.676   1.037  24.030  0.00  0.00    +0.068 C 
ATOM     13  C   UNL     1       9.103  -0.965  23.896  0.00  0.00    +0.129 A 
ATOM     14  N   UNL     1       9.933  -2.029  24.164  0.00  0.00    -0.232 NA
ATOM     15  C   UNL     1       9.157  -3.091  24.094  0.00  0.00    +0.203 A 
ENDBRANCH   4   6
BRANCH   1  17
ATOM     16  C   UNL     1       5.139  -6.185  25.649  0.00  0.00    +0.040 C 
ATOM     17  C   UNL     1       4.966  -6.213  24.134  0.00  0.00    +0.143 C 
BRANCH  17  18
ATOM     18  O   UNL     1       4.423  -7.476  23.756  0.00  0.00    -0.389 OA
ATOM     19  H   UNL     1       4.624  -7.614  22.814  0.00  0.00    +0.210 HD
ENDBRANCH  17  18
ENDBRANCH   1  17
BRANCH   2  20
ATOM     20  O   UNL     1       7.130  -5.952  21.121  0.00  0.00    -0.386 OA
ATOM     21  H   UNL     1       8.006  -5.807  21.521  0.00  0.00    +0.210 HD
ENDBRANCH   2  20
BRANCH   3  22
ATOM     22  O   UNL     1       5.255  -3.099  21.715  0.00  0.00    -0.385 OA
ATOM     23  H   UNL     1       5.464  -2.164  21.924  0.00  0.00    +0.210 HD
ENDBRANCH   3  22
TORSDOF 5
ENDMDL
MODEL 5
REMARK VINA RESULT:      -6.2      2.097      3.270
REMARK  Name = 
REMARK  7 active torsions:
REMARK  status: ('A' for Active; 'I' for Inactive)
REMARK    1  A    between atoms: C_1  and  C_2
REMARK    2  A    between atoms: C_2  and  O_4
REMARK    3  A    between atoms: C_2  and  C_5
REMARK    4  A    between atoms: C_8  and  N_16
REMARK    5  A    between atoms: C_10  and  O_12
REMARK    6  A    between atoms: C_13  and  O_15
REMARK    7  A    between atoms: C_24  and  C_25
REMARK                            x       y       z     vdW  Elec       q    Type
REMARK                         _______ _______ _______ _____ _____    ______ ____
ROOT
ATOM      1  C   UNL     1       8.384  -4.674  26.536  0.00  0.00    +0.180 C 
ATOM      2  C   UNL     1       8.978  -5.473  25.374  0.00  0.00    +0.179 C 
ATOM      3  C   UNL     1       8.597  -4.713  24.108  0.00  0.00    +0.195 C 
ATOM      4  C   UNL     1       7.842  -3.479  24.616  0.00  0.00    +0.253 C 
ATOM      5  O   UNL     1       8.168  -3.340  26.015  0.00  0.00    -0.345 OA
ENDROOT
BRANCH   4   6
ATOM      6  N   UNL     1       8.220  -2.266  23.908  0.00  0.00    -0.286 N 
ATOM      7  C   UNL     1       7.512  -1.091  23.925  0.00  0.00    +0.166 A 
ATOM      8  N   UNL     1       6.362  -0.835  24.575  0.00  0.00    -0.216 NA
ATOM      9  C   UNL     1       5.954   0.431  24.334  0.00  0.00    +0.223 A 
ATOM     10  N   UNL     1       6.542   1.368  23.558  0.00  0.00    -0.238 NA
ATOM     11  C   UNL     1       7.705   1.050  22.916  0.00  0.00    +0.069 A 
ATOM     12  C   UNL     1       8.348   2.084  22.049  0.00  0.00    +0.068 C 
ATOM     13  C   UNL     1       8.227  -0.236  23.099  0.00  0.00    +0.129 A 
ATOM     14  N   UNL     1       9.348  -0.860  22.603  0.00  0.00    -0.232 NA
ATOM     15  C   UNL     1       9.318  -2.072  23.116  0.00  0.00    +0.203 A 
ENDBRANCH   4   6
BRANCH   1  17
ATOM     16  C   UNL     1       6.170  -4.150  27.687  0.00  0.00    +0.040 C 
ATOM     17  C   UNL     1       7.068  -5.240  27.113  0.00  0.00    +0.143 C 
BRANCH  17  18
ATOM     18  O   UNL     1       7.334  -6.201  28.132  0.00  0.00    -0.389 OA
ATOM     19  H   UNL     1       7.069  -5.809  28.983  0.00  0.00    +0.210 HD
ENDBRANCH  17  18
ENDBRANCH   1  17
BRANCH   2  20
ATOM     20  O   UNL     1      10.414  -5.490  25.509  0.00  0.00    -0.386 OA
ATOM     21  H   UNL     1      10.704  -4.616  25.826  0.00  0.00    +0.210 HD
ENDBRANCH   2  20
BRANCH   3  22
ATOM     22  O   UNL     1       7.797  -5.515  23.236  0.00  0.00    -0.385 OA
ATOM     23  H   UNL     1       8.412  -5.926  22.595  0.00  0.00    +0.210 HD
ENDBRANCH   3  22
TORSDOF 5
ENDMDL
MODEL 6
REMARK VINA RESULT:      -6.2      3.050      6.407
REMARK  Name = 
REMARK  7 active torsions:
REMARK  status: ('A' for Active; 'I' for Inactive)
REMARK    1  A    between atoms: C_1  and  C_2
REMARK    2  A    between atoms: C_2  and  O_4
REMARK    3  A    between atoms: C_2  and  C_5
REMARK    4  A    between atoms: C_8  and  N_16
REMARK    5  A    between atoms: C_10  and  O_12
REMARK    6  A    between atoms: C_13  and  O_15
REMARK    7  A    between atoms: C_24  and  C_25
REMARK                            x       y       z     vdW  Elec       q    Type
REMARK                         _______ _______ _______ _____ _____    ______ ____
ROOT
ATOM      1  C   UNL     1       9.112   1.188  23.111  0.00  0.00    +0.180 C 
ATOM      2  C   UNL     1       9.609   0.536  21.819  0.00  0.00    +0.179 C 
ATOM      3  C   UNL     1       9.491  -0.968  22.040  0.00  0.00    +0.195 C 
ATOM      4  C   UNL     1       8.878  -1.102  23.439  0.00  0.00    +0.253 C 
ATOM      5  O   UNL     1       8.302   0.181  23.764  0.00  0.00    -0.345 OA
ENDROOT
BRANCH   4   6
ATOM      6  N   UNL     1       7.847  -2.125  23.497  0.00  0.00    -0.286 N 
ATOM      7  C   UNL     1       7.807  -3.153  24.406  0.00  0.00    +0.166 A 
ATOM      8  N   UNL     1       8.688  -3.413  25.390  0.00  0.00    -0.216 NA
ATOM      9  C   UNL     1       8.326  -4.525  26.067  0.00  0.00    +0.223 A 
ATOM     10  N   UNL     1       7.262  -5.330  25.851  0.00  0.00    -0.238 NA
ATOM     11  C   UNL     1       6.404  -5.020  24.833  0.00  0.00    +0.069 A 
ATOM     12  C   UNL     1       5.233  -5.918  24.588  0.00  0.00    +0.068 C 
ATOM     13  C   UNL     1       6.676  -3.881  24.066  0.00  0.00    +0.129 A 
ATOM     14  N   UNL     1       6.032  -3.311  22.993  0.00  0.00    -0.232 NA
ATOM     15  C   UNL     1       6.755  -2.255  22.684  0.00  0.00    +0.203 A 
ENDBRANCH   4   6
BRANCH   1  17
ATOM     16  C   UNL     1      10.866   2.976  23.586  0.00  0.00    +0.040 C 
ATOM     17  C   UNL     1      10.223   1.679  24.064  0.00  0.00    +0.143 C 
BRANCH  17  18
ATOM     18  O   UNL     1      11.238   0.689  24.211  0.00  0.00    -0.389 OA
ATOM     19  H   UNL     1      11.968   0.922  23.610  0.00  0.00    +0.210 HD
ENDBRANCH  17  18
ENDBRANCH   1  17
BRANCH   2  20
ATOM     20  O   UNL     1       8.742   0.931  20.736  0.00  0.00    -0.386 OA
ATOM     21  H   UNL     1       8.013   1.464  21.103  0.00  0.00    +0.210 HD
ENDBRANCH   2  20
BRANCH   3  22
ATOM     22  O   UNL     1      10.764  -1.613  21.942  0.00  0.00    -0.385 OA
ATOM     23  H   UNL     1      11.282  -1.106  21.283  0.00  0.00    +0.210 HD
ENDBRANCH   3  22
TORSDOF 5
ENDMDL
MODEL 7
REMARK VINA RESULT:      -6.2      1.905      3.073
REMARK  Name = 
REMARK  7 active torsions:
REMARK  status: ('A' for Active; 'I' for Inactive)
REMARK    1  A    between atoms: C_1  and  C_2
REMARK    2  A    between atoms: C_2  and  O_4
REMARK    3  A    between atoms: C_2  and  C_5
REMARK    4  A    between atoms: C_8  and  N_16
REMARK    5  A    between atoms: C_10  and  O_12
REMARK    6  A    between atoms: C_13  and  O_15
REMARK    7  A    between atoms: C_24  and  C_25
REMARK                            x       y       z     vdW  Elec       q    Type
REMARK                         _______ _______ _______ _____ _____    ______ ____
ROOT
ATOM      1  C   UNL     1       8.490  -4.489  26.593  0.00  0.00    +0.180 C 
ATOM      2  C   UNL     1       8.828  -5.199  25.281  0.00  0.00    +0.179 C 
ATOM      3  C   UNL     1       8.686  -4.144  24.189  0.00  0.00    +0.195 C 
ATOM      4  C   UNL     1       8.321  -2.859  24.943  0.00  0.00    +0.253 C 
ATOM      5  O   UNL     1       8.671  -3.077  26.326  0.00  0.00    -0.345 OA
ENDROOT
BRANCH   4   6
ATOM      6  N   UNL     1       9.036  -1.698  24.440  0.00  0.00    -0.286 N 
ATOM      7  C   UNL     1       8.753  -0.395  24.766  0.00  0.00    +0.166 A 
ATOM      8  N   UNL     1       7.785   0.053  25.587  0.00  0.00    -0.216 NA
ATOM      9  C   UNL     1       7.800   1.403  25.644  0.00  0.00    +0.223 A 
ATOM     10  N   UNL     1       8.620   2.260  24.997  0.00  0.00    -0.238 NA
ATOM     11  C   UNL     1       9.580   1.749  24.170  0.00  0.00    +0.069 A 
ATOM     12  C   UNL     1      10.479   2.699  23.445  0.00  0.00    +0.068 C 
ATOM     13  C   UNL     1       9.663   0.357  24.039  0.00  0.00    +0.129 A 
ATOM     14  N   UNL     1      10.490  -0.456  23.301  0.00  0.00    -0.232 NA
ATOM     15  C   UNL     1      10.094  -1.682  23.572  0.00  0.00    +0.203 A 
ENDBRANCH   4   6
BRANCH   1  17
ATOM     16  C   UNL     1       6.282  -5.717  26.248  0.00  0.00    +0.040 C 
ATOM     17  C   UNL     1       7.065  -4.751  27.129  0.00  0.00    +0.143 C 
BRANCH  17  18
ATOM     18  O   UNL     1       6.333  -3.532  27.238  0.00  0.00    -0.389 OA
ATOM     19  H   UNL     1       5.401  -3.728  27.037  0.00  0.00    +0.210 HD
ENDBRANCH  17  18
ENDBRANCH   1  17
BRANCH   2  20
ATOM     20  O   UNL     1      10.196  -5.649  25.337  0.00  0.00    -0.386 OA
ATOM     21  H   UNL     1      10.421  -6.062  24.483  0.00  0.00    +0.210 HD
ENDBRANCH   2  20
BRANCH   3  22
ATOM     22  O   UNL     1       7.688  -4.511  23.232  0.00  0.00    -0.385 OA
ATOM     23  H   UNL     1       6.910  -3.944  23.412  0.00  0.00    +0.210 HD
ENDBRANCH   3  22
TORSDOF 5
ENDMDL
MODEL 8
REMARK VINA RESULT:      -6.2      3.301      6.546
REMARK  Name = 
REMARK  7 active torsions:
REMARK  status: ('A' for Active; 'I' for Inactive)
REMARK    1  A    between atoms: C_1  and  C_2
REMARK    2  A    between atoms: C_2  and  O_4
REMARK    3  A    between atoms: C_2  and  C_5
REMARK    4  A    between atoms: C_8  and  N_16
REMARK    5  A    between atoms: C_10  and  O_12
REMARK    6  A    between atoms: C_13  and  O_15
REMARK    7  A    between atoms: C_24  and  C_25
REMARK                            x       y       z     vdW  Elec       q    Type
REMARK                         _______ _______ _______ _____ _____    ______ ____
ROOT
ATOM      1  C   UNL     1       8.493   2.359  23.490  0.00  0.00    +0.180 C 
ATOM      2  C   UNL     1       9.796   1.847  22.871  0.00  0.00    +0.179 C 
ATOM      3  C   UNL     1       9.851   0.357  23.192  0.00  0.00    +0.195 C 
ATOM      4  C   UNL     1       8.541   0.078  23.939  0.00  0.00    +0.253 C 
ATOM      5  O   UNL     1       7.660   1.187  23.659  0.00  0.00    -0.345 OA
ENDROOT
BRANCH   4   6
ATOM      6  N   UNL     1       7.911  -1.160  23.510  0.00  0.00    -0.286 N 
ATOM      7  C   UNL     1       8.341  -2.420  23.845  0.00  0.00    +0.166 A 
ATOM      8  N   UNL     1       9.399  -2.750  24.609  0.00  0.00    -0.216 NA
ATOM      9  C   UNL     1       9.519  -4.093  24.696  0.00  0.00    +0.223 A 
ATOM     10  N   UNL     1       8.746  -5.043  24.125  0.00  0.00    -0.238 NA
ATOM     11  C   UNL     1       7.689  -4.649  23.353  0.00  0.00    +0.069 A 
ATOM     12  C   UNL     1       6.842  -5.701  22.712  0.00  0.00    +0.068 C 
ATOM     13  C   UNL     1       7.463  -3.277  23.198  0.00  0.00    +0.129 A 
ATOM     14  N   UNL     1       6.514  -2.568  22.499  0.00  0.00    -0.232 NA
ATOM     15  C   UNL     1       6.806  -1.302  22.717  0.00  0.00    +0.203 A 
ENDBRANCH   4   6
BRANCH   1  17
ATOM     16  C   UNL     1       7.345   3.185  25.611  0.00  0.00    +0.040 C 
ATOM     17  C   UNL     1       8.656   3.097  24.837  0.00  0.00    +0.143 C 
BRANCH  17  18
ATOM     18  O   UNL     1       9.159   4.415  24.634  0.00  0.00    -0.389 OA
ATOM     19  H   UNL     1       8.493   5.041  24.971  0.00  0.00    +0.210 HD
ENDBRANCH  17  18
ENDBRANCH   1  17
BRANCH   2  20
ATOM     20  O   UNL     1       9.734   2.028  21.442  0.00  0.00    -0.386 OA
ATOM     21  H   UNL     1       8.912   2.505  21.227  0.00  0.00    +0.210 HD
ENDBRANCH   2  20
BRANCH   3  22
ATOM     22  O   UNL     1      11.001   0.032  23.977  0.00  0.00    -0.385 OA
ATOM     23  H   UNL     1      11.254   0.852  24.451  0.00  0.00    +0.210 HD
ENDBRANCH   3  22
TORSDOF 5
ENDMDL
MODEL 9
REMARK VINA RESULT:      -6.1      3.017      5.909
REMARK  Name = 
REMARK  7 active torsions:
REMARK  status: ('A' for Active; 'I' for Inactive)
REMARK    1  A    between atoms: C_1  and  C_2
REMARK    2  A    between atoms: C_2  and  O_4
REMARK    3  A    between atoms: C_2  and  C_5
REMARK    4  A    between atoms: C_8  and  N_16
REMARK    5  A    between atoms: C_10  and  O_12
REMARK    6  A    between atoms: C_13  and  O_15
REMARK    7  A    between atoms: C_24  and  C_25
REMARK                            x       y       z     vdW  Elec       q    Type
REMARK                         _______ _______ _______ _____ _____    ______ ____
ROOT
ATOM      1  C   UNL     1       8.760   0.195  21.986  0.00  0.00    +0.180 C 
ATOM      2  C   UNL     1       9.998  -0.526  22.523  0.00  0.00    +0.179 C 
ATOM      3  C   UNL     1       9.585  -1.115  23.868  0.00  0.00    +0.195 C 
ATOM      4  C   UNL     1       8.104  -0.744  24.010  0.00  0.00    +0.253 C 
ATOM      5  O   UNL     1       7.637  -0.389  22.691  0.00  0.00    -0.345 OA
ENDROOT
BRANCH   4   6
ATOM      6  N   UNL     1       7.304  -1.842  24.527  0.00  0.00    -0.286 N 
ATOM      7  C   UNL     1       7.165  -3.068  23.926  0.00  0.00    +0.166 A 
ATOM      8  N   UNL     1       7.722  -3.484  22.773  0.00  0.00    -0.216 NA
ATOM      9  C   UNL     1       7.337  -4.748  22.491  0.00  0.00    +0.223 A 
ATOM     10  N   UNL     1       6.507  -5.549  23.196  0.00  0.00    -0.238 NA
ATOM     11  C   UNL     1       5.965  -5.071  24.356  0.00  0.00    +0.069 A 
ATOM     12  C   UNL     1       5.038  -5.954  25.128  0.00  0.00    +0.068 C 
ATOM     13  C   UNL     1       6.302  -3.771  24.753  0.00  0.00    +0.129 A 
ATOM     14  N   UNL     1       5.932  -3.009  25.836  0.00  0.00    -0.232 NA
ATOM     15  C   UNL     1       6.559  -1.862  25.675  0.00  0.00    +0.203 A 
ENDBRANCH   4   6
BRANCH   1  17
ATOM     16  C   UNL     1       7.469   2.374  21.691  0.00  0.00    +0.040 C 
ATOM     17  C   UNL     1       8.765   1.728  22.169  0.00  0.00    +0.143 C 
BRANCH  17  18
ATOM     18  O   UNL     1       9.858   2.318  21.470  0.00  0.00    -0.389 OA
ATOM     19  H   UNL     1      10.638   2.277  22.051  0.00  0.00    +0.210 HD
ENDBRANCH  17  18
ENDBRANCH   1  17
BRANCH   2  20
ATOM     20  O   UNL     1      10.343  -1.594  21.617  0.00  0.00    -0.386 OA
ATOM     21  H   UNL     1       9.888  -1.439  20.770  0.00  0.00    +0.210 HD
ENDBRANCH   2  20
BRANCH   3  22
ATOM     22  O   UNL     1      10.379  -0.591  24.935  0.00  0.00    -0.385 OA
ATOM     23  H   UNL     1      11.274  -0.977  24.830  0.00  0.00    +0.210 HD
ENDBRANCH   3  22
TORSDOF 5
ENDMDL
