MODEL 1
REMARK VINA RESULT:      -7.6      0.000      0.000
REMARK  Name = 
REMARK  2 active torsions:
REMARK  status: ('A' for Active; 'I' for Inactive)
REMARK    1  A    between atoms: C_13  and  C_23
REMARK    2  A    between atoms: N_19  and  C_20
REMARK                            x       y       z     vdW  Elec       q    Type
REMARK                         _______ _______ _______ _____ _____    ______ ____
ROOT
ATOM      1  C   UNL     1       6.317   3.865  23.215  0.00  0.00    +0.167 C 
ATOM      2  C   UNL     1       4.922   4.423  23.526  0.00  0.00    +0.237 C 
ATOM      3  O   UNL     1       4.639   5.597  23.267  0.00  0.00    -0.274 OA
ATOM      4  N   UNL     1       4.009   3.562  24.091  0.00  0.00    -0.294 N 
ATOM      5  C   UNL     1       2.733   4.103  24.526  0.00  0.00    +0.132 C 
ATOM      6  C   UNL     1       4.429   2.316  24.697  0.00  0.00    +0.203 C 
ATOM      7  C   UNL     1       5.761   1.691  24.296  0.00  0.00    +0.234 C 
ATOM      8  O   UNL     1       6.008   0.571  24.743  0.00  0.00    -0.274 OA
ATOM      9  N   UNL     1       6.591   2.425  23.471  0.00  0.00    -0.276 N 
ATOM     10  C   UNL     1       7.888   1.916  22.928  0.00  0.00    +0.154 C 
ATOM     11  C   UNL     1       8.938   2.973  23.189  0.00  0.00    +0.046 A 
ATOM     12  N   UNL     1      10.287   2.827  22.972  0.00  0.00    -0.356 N 
ATOM     13  H   UNL     1      10.737   1.982  22.644  0.00  0.00    +0.166 HD
ATOM     14  C   UNL     1      10.954   3.975  23.345  0.00  0.00    +0.047 A 
ATOM     15  C   UNL     1       9.993   4.903  23.749  0.00  0.00    +0.003 A 
ATOM     16  C   UNL     1      10.418   6.180  24.167  0.00  0.00    +0.010 A 
ATOM     17  C   UNL     1      11.785   6.478  24.185  0.00  0.00    +0.001 A 
ATOM     18  C   UNL     1      12.723   5.527  23.788  0.00  0.00    +0.002 A 
ATOM     19  C   UNL     1      12.324   4.257  23.355  0.00  0.00    +0.026 A 
ATOM     20  C   UNL     1       8.728   4.266  23.628  0.00  0.00    -0.015 A 
ATOM     21  C   UNL     1       7.358   4.778  23.905  0.00  0.00    +0.069 C 
ENDROOT
BRANCH  10  22
ATOM     22  C   UNL     1       8.300   0.509  23.338  0.00  0.00    -0.018 A 
ATOM     23  C   UNL     1       9.031   0.252  24.529  0.00  0.00    +0.009 A 
ATOM     24  C   UNL     1       9.293  -1.054  24.954  0.00  0.00    +0.050 A 
ATOM     25  C   UNL     1       8.787  -2.086  24.196  0.00  0.00    +0.166 A 
ATOM     26  O   UNL     1       8.882  -3.411  24.493  0.00  0.00    -0.453 OA
ATOM     27  C   UNL     1       8.073  -3.977  23.440  0.00  0.00    +0.466 C 
ATOM     28  O   UNL     1       7.635  -3.007  22.467  0.00  0.00    -0.453 OA
ATOM     29  C   UNL     1       8.081  -1.857  23.040  0.00  0.00    +0.167 A 
ATOM     30  C   UNL     1       7.840  -0.583  22.574  0.00  0.00    +0.055 A 
ENDBRANCH  10  22
TORSDOF 1
ENDMDL
MODEL 2
REMARK VINA RESULT:      -7.3      4.015      7.801
REMARK  Name = 
REMARK  2 active torsions:
REMARK  status: ('A' for Active; 'I' for Inactive)
REMARK    1  A    between atoms: C_13  and  C_23
REMARK    2  A    between atoms: N_19  and  C_20
REMARK                            x       y       z     vdW  Elec       q    Type
REMARK                         _______ _______ _______ _____ _____    ______ ____
ROOT
ATOM      1  C   UNL     1       5.044  -3.263  23.635  0.00  0.00    +0.167 C 
ATOM      2  C   UNL     1       4.966  -4.499  22.729  0.00  0.00    +0.237 C 
ATOM      3  O   UNL     1       3.971  -5.229  22.740  0.00  0.00    -0.274 OA
ATOM      4  N   UNL     1       6.042  -4.746  21.906  0.00  0.00    -0.294 N 
ATOM      5  C   UNL     1       6.055  -5.985  21.148  0.00  0.00    +0.132 C 
ATOM      6  C   UNL     1       7.321  -4.108  22.132  0.00  0.00    +0.203 C 
ATOM      7  C   UNL     1       7.388  -2.808  22.927  0.00  0.00    +0.234 C 
ATOM      8  O   UNL     1       8.479  -2.241  22.977  0.00  0.00    -0.274 OA
ATOM      9  N   UNL     1       6.227  -2.368  23.534  0.00  0.00    -0.276 N 
ATOM     10  C   UNL     1       6.114  -1.075  24.276  0.00  0.00    +0.154 C 
ATOM     11  C   UNL     1       5.466  -1.370  25.611  0.00  0.00    +0.046 A 
ATOM     12  N   UNL     1       5.319  -0.473  26.641  0.00  0.00    -0.356 N 
ATOM     13  H   UNL     1       5.658   0.480  26.638  0.00  0.00    +0.166 HD
ATOM     14  C   UNL     1       4.712  -1.085  27.718  0.00  0.00    +0.047 A 
ATOM     15  C   UNL     1       4.404  -2.392  27.337  0.00  0.00    +0.003 A 
ATOM     16  C   UNL     1       3.755  -3.232  28.263  0.00  0.00    +0.010 A 
ATOM     17  C   UNL     1       3.454  -2.745  29.540  0.00  0.00    +0.001 A 
ATOM     18  C   UNL     1       3.785  -1.440  29.897  0.00  0.00    +0.002 A 
ATOM     19  C   UNL     1       4.416  -0.582  28.990  0.00  0.00    +0.026 A 
ATOM     20  C   UNL     1       4.868  -2.552  26.003  0.00  0.00    -0.015 A 
ATOM     21  C   UNL     1       4.797  -3.726  25.090  0.00  0.00    +0.069 C 
ENDROOT
BRANCH  10  22
ATOM     22  C   UNL     1       7.373  -0.222  24.367  0.00  0.00    -0.018 A 
ATOM     23  C   UNL     1       8.413  -0.505  25.292  0.00  0.00    +0.009 A 
ATOM     24  C   UNL     1       9.614   0.212  25.278  0.00  0.00    +0.050 A 
ATOM     25  C   UNL     1       9.769   1.179  24.311  0.00  0.00    +0.166 A 
ATOM     26  O   UNL     1      10.890   1.922  24.102  0.00  0.00    -0.453 OA
ATOM     27  C   UNL     1      10.514   2.640  22.908  0.00  0.00    +0.466 C 
ATOM     28  O   UNL     1       9.143   2.424  22.515  0.00  0.00    -0.453 OA
ATOM     29  C   UNL     1       8.773   1.469  23.409  0.00  0.00    +0.167 A 
ATOM     30  C   UNL     1       7.563   0.808  23.423  0.00  0.00    +0.055 A 
ENDBRANCH  10  22
TORSDOF 1
ENDMDL
MODEL 3
REMARK VINA RESULT:      -7.2      4.037      7.570
REMARK  Name = 
REMARK  2 active torsions:
REMARK  status: ('A' for Active; 'I' for Inactive)
REMARK    1  A    between atoms: C_13  and  C_23
REMARK    2  A    between atoms: N_19  and  C_20
REMARK                            x       y       z     vdW  Elec       q    Type
REMARK                         _______ _______ _______ _____ _____    ______ ____
ROOT
ATOM      1  C   UNL     1       5.608  -2.831  27.111  0.00  0.00    +0.167 C 
ATOM      2  C   UNL     1       4.554  -2.591  28.200  0.00  0.00    +0.237 C 
ATOM      3  O   UNL     1       3.885  -3.526  28.648  0.00  0.00    -0.274 OA
ATOM      4  N   UNL     1       4.399  -1.301  28.655  0.00  0.00    -0.294 N 
ATOM      5  C   UNL     1       3.312  -1.024  29.577  0.00  0.00    +0.132 C 
ATOM      6  C   UNL     1       4.923  -0.176  27.910  0.00  0.00    +0.203 C 
ATOM      7  C   UNL     1       6.060  -0.389  26.916  0.00  0.00    +0.234 C 
ATOM      8  O   UNL     1       6.553   0.618  26.408  0.00  0.00    -0.274 OA
ATOM      9  N   UNL     1       6.446  -1.690  26.654  0.00  0.00    -0.276 N 
ATOM     10  C   UNL     1       7.594  -2.056  25.769  0.00  0.00    +0.154 C 
ATOM     11  C   UNL     1       7.105  -3.107  24.798  0.00  0.00    +0.046 A 
ATOM     12  N   UNL     1       7.815  -3.597  23.728  0.00  0.00    -0.356 N 
ATOM     13  H   UNL     1       8.735  -3.285  23.448  0.00  0.00    +0.166 HD
ATOM     14  C   UNL     1       7.057  -4.521  23.040  0.00  0.00    +0.047 A 
ATOM     15  C   UNL     1       5.854  -4.672  23.731  0.00  0.00    +0.003 A 
ATOM     16  C   UNL     1       4.898  -5.583  23.237  0.00  0.00    +0.010 A 
ATOM     17  C   UNL     1       5.171  -6.296  22.064  0.00  0.00    +0.001 A 
ATOM     18  C   UNL     1       6.375  -6.115  21.388  0.00  0.00    +0.002 A 
ATOM     19  C   UNL     1       7.345  -5.227  21.866  0.00  0.00    +0.026 A 
ATOM     20  C   UNL     1       5.904  -3.790  24.844  0.00  0.00    -0.015 A 
ATOM     21  C   UNL     1       4.912  -3.542  25.926  0.00  0.00    +0.069 C 
ENDROOT
BRANCH  10  22
ATOM     22  C   UNL     1       8.353  -0.907  25.118  0.00  0.00    -0.018 A 
ATOM     23  C   UNL     1       9.564  -0.399  25.659  0.00  0.00    +0.009 A 
ATOM     24  C   UNL     1      10.313   0.570  24.984  0.00  0.00    +0.050 A 
ATOM     25  C   UNL     1       9.854   0.991  23.756  0.00  0.00    +0.166 A 
ATOM     26  O   UNL     1      10.484   1.869  22.929  0.00  0.00    -0.453 OA
ATOM     27  C   UNL     1       9.621   1.812  21.774  0.00  0.00    +0.466 C 
ATOM     28  O   UNL     1       8.432   1.023  21.982  0.00  0.00    -0.453 OA
ATOM     29  C   UNL     1       8.683   0.512  23.218  0.00  0.00    +0.167 A 
ATOM     30  C   UNL     1       7.903  -0.414  23.877  0.00  0.00    +0.055 A 
ENDBRANCH  10  22
TORSDOF 1
ENDMDL
MODEL 4
REMARK VINA RESULT:      -7.2      1.861      5.100
REMARK  Name = 
REMARK  2 active torsions:
REMARK  status: ('A' for Active; 'I' for Inactive)
REMARK    1  A    between atoms: C_13  and  C_23
REMARK    2  A    between atoms: N_19  and  C_20
REMARK                            x       y       z     vdW  Elec       q    Type
REMARK                         _______ _______ _______ _____ _____    ______ ____
ROOT
ATOM      1  C   UNL     1       9.056   4.574  24.329  0.00  0.00    +0.167 C 
ATOM      2  C   UNL     1      10.254   5.473  23.998  0.00  0.00    +0.237 C 
ATOM      3  O   UNL     1      10.154   6.703  24.045  0.00  0.00    -0.274 OA
ATOM      4  N   UNL     1      11.435   4.852  23.658  0.00  0.00    -0.294 N 
ATOM      5  C   UNL     1      12.538   5.678  23.201  0.00  0.00    +0.132 C 
ATOM      6  C   UNL     1      11.464   3.456  23.276  0.00  0.00    +0.203 C 
ATOM      7  C   UNL     1      10.335   2.528  23.712  0.00  0.00    +0.234 C 
ATOM      8  O   UNL     1      10.475   1.329  23.472  0.00  0.00    -0.274 OA
ATOM      9  N   UNL     1       9.242   3.098  24.335  0.00  0.00    -0.276 N 
ATOM     10  C   UNL     1       8.096   2.314  24.892  0.00  0.00    +0.154 C 
ATOM     11  C   UNL     1       6.820   2.941  24.376  0.00  0.00    +0.046 A 
ATOM     12  N   UNL     1       5.557   2.428  24.541  0.00  0.00    -0.356 N 
ATOM     13  H   UNL     1       5.338   1.552  24.997  0.00  0.00    +0.166 HD
ATOM     14  C   UNL     1       4.631   3.241  23.921  0.00  0.00    +0.047 A 
ATOM     15  C   UNL     1       5.320   4.339  23.403  0.00  0.00    +0.003 A 
ATOM     16  C   UNL     1       4.592   5.338  22.727  0.00  0.00    +0.010 A 
ATOM     17  C   UNL     1       3.207   5.197  22.577  0.00  0.00    +0.001 A 
ATOM     18  C   UNL     1       2.548   4.084  23.093  0.00  0.00    +0.002 A 
ATOM     19  C   UNL     1       3.247   3.085  23.780  0.00  0.00    +0.026 A 
ATOM     20  C   UNL     1       6.694   4.147  23.713  0.00  0.00    -0.015 A 
ATOM     21  C   UNL     1       7.878   5.000  23.422  0.00  0.00    +0.069 C 
ENDROOT
BRANCH  10  22
ATOM     22  C   UNL     1       8.159   0.800  24.732  0.00  0.00    -0.018 A 
ATOM     23  C   UNL     1       8.646  -0.048  25.762  0.00  0.00    +0.009 A 
ATOM     24  C   UNL     1       8.581  -1.441  25.648  0.00  0.00    +0.050 A 
ATOM     25  C   UNL     1       7.994  -1.963  24.517  0.00  0.00    +0.166 A 
ATOM     26  O   UNL     1       7.781  -3.284  24.269  0.00  0.00    -0.453 OA
ATOM     27  C   UNL     1       7.036  -3.205  23.036  0.00  0.00    +0.466 C 
ATOM     28  O   UNL     1       6.943  -1.868  22.504  0.00  0.00    -0.453 OA
ATOM     29  C   UNL     1       7.520  -1.157  23.510  0.00  0.00    +0.167 A 
ATOM     30  C   UNL     1       7.606   0.217  23.574  0.00  0.00    +0.055 A 
ENDBRANCH  10  22
TORSDOF 1
ENDMDL
MODEL 5
REMARK VINA RESULT:      -7.0      2.634      6.569
REMARK  Name = 
REMARK  2 active torsions:
REMARK  status: ('A' for Active; 'I' for Inactive)
REMARK    1  A    between atoms: C_13  and  C_23
REMARK    2  A    between atoms: N_19  and  C_20
REMARK                            x       y       z     vdW  Elec       q    Type
REMARK                         _______ _______ _______ _____ _____    ______ ____
ROOT
ATOM      1  C   UNL     1       9.491   3.063  23.192  0.00  0.00    +0.167 C 
ATOM      2  C   UNL     1      10.589   4.086  23.515  0.00  0.00    +0.237 C 
ATOM      3  O   UNL     1      11.774   3.837  23.273  0.00  0.00    -0.274 OA
ATOM      4  N   UNL     1      10.194   5.282  24.070  0.00  0.00    -0.294 N 
ATOM      5  C   UNL     1      11.223   6.204  24.516  0.00  0.00    +0.132 C 
ATOM      6  C   UNL     1       8.880   5.438  24.657  0.00  0.00    +0.203 C 
ATOM      7  C   UNL     1       7.750   4.501  24.243  0.00  0.00    +0.234 C 
ATOM      8  O   UNL     1       6.626   4.760  24.673  0.00  0.00    -0.274 OA
ATOM      9  N   UNL     1       8.070   3.434  23.426  0.00  0.00    -0.276 N 
ATOM     10  C   UNL     1       7.062   2.478  22.872  0.00  0.00    +0.154 C 
ATOM     11  C   UNL     1       7.562   1.077  23.145  0.00  0.00    +0.046 A 
ATOM     12  N   UNL     1       6.855  -0.080  22.922  0.00  0.00    -0.356 N 
ATOM     13  H   UNL     1       5.904  -0.125  22.580  0.00  0.00    +0.166 HD
ATOM     14  C   UNL     1       7.602  -1.173  23.309  0.00  0.00    +0.047 A 
ATOM     15  C   UNL     1       8.846  -0.701  23.729  0.00  0.00    +0.003 A 
ATOM     16  C   UNL     1       9.812  -1.630  24.165  0.00  0.00    +0.010 A 
ATOM     17  C   UNL     1       9.495  -2.994  24.182  0.00  0.00    +0.001 A 
ATOM     18  C   UNL     1       8.239  -3.435  23.769  0.00  0.00    +0.002 A 
ATOM     19  C   UNL     1       7.269  -2.532  23.320  0.00  0.00    +0.026 A 
ATOM     20  C   UNL     1       8.814   0.715  23.603  0.00  0.00    -0.015 A 
ATOM     21  C   UNL     1       9.860   1.734  23.891  0.00  0.00    +0.069 C 
ENDROOT
BRANCH  10  22
ATOM     22  C   UNL     1       5.608   2.710  23.261  0.00  0.00    -0.018 A 
ATOM     23  C   UNL     1       5.091   2.317  24.524  0.00  0.00    +0.009 A 
ATOM     24  C   UNL     1       3.789   2.648  24.913  0.00  0.00    +0.050 A 
ATOM     25  C   UNL     1       3.034   3.401  24.042  0.00  0.00    +0.166 A 
ATOM     26  O   UNL     1       1.781   3.873  24.280  0.00  0.00    -0.453 OA
ATOM     27  C   UNL     1       1.572   4.678  23.100  0.00  0.00    +0.466 C 
ATOM     28  O   UNL     1       2.630   4.558  22.128  0.00  0.00    -0.453 OA
ATOM     29  C   UNL     1       3.516   3.788  22.815  0.00  0.00    +0.167 A 
ATOM     30  C   UNL     1       4.780   3.444  22.386  0.00  0.00    +0.055 A 
ENDBRANCH  10  22
TORSDOF 1
ENDMDL
MODEL 6
REMARK VINA RESULT:      -7.0      2.539      6.445
REMARK  Name = 
REMARK  2 active torsions:
REMARK  status: ('A' for Active; 'I' for Inactive)
REMARK    1  A    between atoms: C_13  and  C_23
REMARK    2  A    between atoms: N_19  and  C_20
REMARK                            x       y       z     vdW  Elec       q    Type
REMARK                         _______ _______ _______ _____ _____    ______ ____
ROOT
ATOM      1  C   UNL     1      10.226   3.875  23.226  0.00  0.00    +0.167 C 
ATOM      2  C   UNL     1      11.391   4.781  23.644  0.00  0.00    +0.237 C 
ATOM      3  O   UNL     1      12.554   4.488  23.353  0.00  0.00    -0.274 OA
ATOM      4  N   UNL     1      11.081   5.926  24.342  0.00  0.00    -0.294 N 
ATOM      5  C   UNL     1      12.172   6.723  24.873  0.00  0.00    +0.132 C 
ATOM      6  C   UNL     1       9.787   6.095  24.968  0.00  0.00    +0.203 C 
ATOM      7  C   UNL     1       8.593   5.286  24.470  0.00  0.00    +0.234 C 
ATOM      8  O   UNL     1       7.494   5.563  24.949  0.00  0.00    -0.274 OA
ATOM      9  N   UNL     1       8.834   4.304  23.529  0.00  0.00    -0.276 N 
ATOM     10  C   UNL     1       7.760   3.485  22.887  0.00  0.00    +0.154 C 
ATOM     11  C   UNL     1       8.172   2.033  22.986  0.00  0.00    +0.046 A 
ATOM     12  N   UNL     1       7.389   0.957  22.643  0.00  0.00    -0.356 N 
ATOM     13  H   UNL     1       6.433   1.012  22.317  0.00  0.00    +0.166 HD
ATOM     14  C   UNL     1       8.068  -0.219  22.887  0.00  0.00    +0.047 A 
ATOM     15  C   UNL     1       9.345   0.122  23.335  0.00  0.00    +0.003 A 
ATOM     16  C   UNL     1      10.253  -0.912  23.641  0.00  0.00    +0.010 A 
ATOM     17  C   UNL     1       9.849  -2.245  23.506  0.00  0.00    +0.001 A 
ATOM     18  C   UNL     1       8.563  -2.555  23.069  0.00  0.00    +0.002 A 
ATOM     19  C   UNL     1       7.648  -1.546  22.746  0.00  0.00    +0.026 A 
ATOM     20  C   UNL     1       9.403   1.541  23.375  0.00  0.00    -0.015 A 
ATOM     21  C   UNL     1      10.516   2.452  23.759  0.00  0.00    +0.069 C 
ENDROOT
BRANCH  10  22
ATOM     22  C   UNL     1       6.328   3.761  23.328  0.00  0.00    -0.018 A 
ATOM     23  C   UNL     1       5.515   4.734  22.687  0.00  0.00    +0.009 A 
ATOM     24  C   UNL     1       4.166   4.888  23.023  0.00  0.00    +0.050 A 
ATOM     25  C   UNL     1       3.642   4.039  23.971  0.00  0.00    +0.166 A 
ATOM     26  O   UNL     1       2.342   3.996  24.369  0.00  0.00    -0.453 OA
ATOM     27  C   UNL     1       2.371   2.854  25.252  0.00  0.00    +0.466 C 
ATOM     28  O   UNL     1       3.697   2.333  25.473  0.00  0.00    -0.453 OA
ATOM     29  C   UNL     1       4.414   3.094  24.603  0.00  0.00    +0.167 A 
ATOM     30  C   UNL     1       5.756   2.944  24.324  0.00  0.00    +0.055 A 
ENDBRANCH  10  22
TORSDOF 1
ENDMDL
MODEL 7
REMARK VINA RESULT:      -6.9      3.245      6.491
REMARK  Name = 
REMARK  2 active torsions:
REMARK  status: ('A' for Active; 'I' for Inactive)
REMARK    1  A    between atoms: C_13  and  C_23
REMARK    2  A    between atoms: N_19  and  C_20
REMARK                            x       y       z     vdW  Elec       q    Type
REMARK                         _______ _______ _______ _____ _____    ______ ____
ROOT
ATOM      1  C   UNL     1       7.094  -3.105  23.979  0.00  0.00    +0.167 C 
ATOM      2  C   UNL     1       6.729  -4.376  23.202  0.00  0.00    +0.237 C 
ATOM      3  O   UNL     1       7.560  -4.936  22.480  0.00  0.00    -0.274 OA
ATOM      4  N   UNL     1       5.450  -4.863  23.353  0.00  0.00    -0.294 N 
ATOM      5  C   UNL     1       5.037  -5.978  22.519  0.00  0.00    +0.132 C 
ATOM      6  C   UNL     1       4.397  -4.042  23.911  0.00  0.00    +0.203 C 
ATOM      7  C   UNL     1       4.754  -2.848  24.791  0.00  0.00    +0.234 C 
ATOM      8  O   UNL     1       3.821  -2.265  25.343  0.00  0.00    -0.274 OA
ATOM      9  N   UNL     1       6.088  -2.507  24.897  0.00  0.00    -0.276 N 
ATOM     10  C   UNL     1       6.601  -1.416  25.783  0.00  0.00    +0.154 C 
ATOM     11  C   UNL     1       7.518  -0.547  24.952  0.00  0.00    +0.046 A 
ATOM     12  N   UNL     1       8.075   0.641  25.359  0.00  0.00    -0.356 N 
ATOM     13  H   UNL     1       7.906   1.089  26.250  0.00  0.00    +0.166 HD
ATOM     14  C   UNL     1       8.834   1.181  24.342  0.00  0.00    +0.047 A 
ATOM     15  C   UNL     1       8.814   0.275  23.280  0.00  0.00    +0.003 A 
ATOM     16  C   UNL     1       9.536   0.587  22.110  0.00  0.00    +0.010 A 
ATOM     17  C   UNL     1      10.237   1.796  22.036  0.00  0.00    +0.001 A 
ATOM     18  C   UNL     1      10.228   2.687  23.107  0.00  0.00    +0.002 A 
ATOM     19  C   UNL     1       9.530   2.394  24.284  0.00  0.00    +0.026 A 
ATOM     20  C   UNL     1       7.998  -0.815  23.684  0.00  0.00    -0.015 A 
ATOM     21  C   UNL     1       7.634  -2.068  22.966  0.00  0.00    +0.069 C 
ENDROOT
BRANCH  10  22
ATOM     22  C   UNL     1       5.567  -0.643  26.590  0.00  0.00    -0.018 A 
ATOM     23  C   UNL     1       5.241  -0.988  27.929  0.00  0.00    +0.009 A 
ATOM     24  C   UNL     1       4.382  -0.194  28.696  0.00  0.00    +0.050 A 
ATOM     25  C   UNL     1       3.890   0.956  28.120  0.00  0.00    +0.166 A 
ATOM     26  O   UNL     1       3.104   1.880  28.736  0.00  0.00    -0.453 OA
ATOM     27  C   UNL     1       3.028   2.891  27.708  0.00  0.00    +0.466 C 
ATOM     28  O   UNL     1       3.641   2.494  26.465  0.00  0.00    -0.453 OA
ATOM     29  C   UNL     1       4.192   1.304  26.826  0.00  0.00    +0.167 A 
ATOM     30  C   UNL     1       5.003   0.522  26.031  0.00  0.00    +0.055 A 
ENDBRANCH  10  22
TORSDOF 1
ENDMDL
MODEL 8
REMARK VINA RESULT:      -6.7      2.923      6.233
REMARK  Name = 
REMARK  2 active torsions:
REMARK  status: ('A' for Active; 'I' for Inactive)
REMARK    1  A    between atoms: C_13  and  C_23
REMARK    2  A    between atoms: N_19  and  C_20
REMARK                            x       y       z     vdW  Elec       q    Type
REMARK                         _______ _______ _______ _____ _____    ______ ____
ROOT
ATOM      1  C   UNL     1       8.464   0.847  24.817  0.00  0.00    +0.167 C 
ATOM      2  C   UNL     1       9.267   2.031  24.263  0.00  0.00    +0.237 C 
ATOM      3  O   UNL     1       9.293   3.111  24.860  0.00  0.00    -0.274 OA
ATOM      4  N   UNL     1       9.956   1.832  23.088  0.00  0.00    -0.294 N 
ATOM      5  C   UNL     1      10.603   2.975  22.470  0.00  0.00    +0.132 C 
ATOM      6  C   UNL     1       9.659   0.707  22.227  0.00  0.00    +0.203 C 
ATOM      7  C   UNL     1       8.973  -0.527  22.803  0.00  0.00    +0.234 C 
ATOM      8  O   UNL     1       8.863  -1.502  22.060  0.00  0.00    -0.274 OA
ATOM      9  N   UNL     1       8.522  -0.459  24.107  0.00  0.00    -0.276 N 
ATOM     10  C   UNL     1       7.905  -1.610  24.836  0.00  0.00    +0.154 C 
ATOM     11  C   UNL     1       6.621  -1.116  25.465  0.00  0.00    +0.046 A 
ATOM     12  N   UNL     1       5.688  -1.902  26.097  0.00  0.00    -0.356 N 
ATOM     13  H   UNL     1       5.738  -2.909  26.184  0.00  0.00    +0.166 HD
ATOM     14  C   UNL     1       4.629  -1.130  26.525  0.00  0.00    +0.047 A 
ATOM     15  C   UNL     1       4.929   0.198  26.215  0.00  0.00    +0.003 A 
ATOM     16  C   UNL     1       4.003   1.201  26.567  0.00  0.00    +0.010 A 
ATOM     17  C   UNL     1       2.807   0.842  27.199  0.00  0.00    +0.001 A 
ATOM     18  C   UNL     1       2.530  -0.493  27.485  0.00  0.00    +0.002 A 
ATOM     19  C   UNL     1       3.439  -1.505  27.157  0.00  0.00    +0.026 A 
ATOM     20  C   UNL     1       6.192   0.194  25.564  0.00  0.00    -0.015 A 
ATOM     21  C   UNL     1       7.006   1.320  25.028  0.00  0.00    +0.069 C 
ENDROOT
BRANCH  10  22
ATOM     22  C   UNL     1       7.763  -2.915  24.065  0.00  0.00    -0.018 A 
ATOM     23  C   UNL     1       8.547  -4.061  24.368  0.00  0.00    +0.009 A 
ATOM     24  C   UNL     1       8.318  -5.287  23.735  0.00  0.00    +0.050 A 
ATOM     25  C   UNL     1       7.281  -5.355  22.832  0.00  0.00    +0.166 A 
ATOM     26  O   UNL     1       6.870  -6.475  22.177  0.00  0.00    -0.453 OA
ATOM     27  C   UNL     1       5.700  -5.971  21.498  0.00  0.00    +0.466 C 
ATOM     28  O   UNL     1       5.520  -4.548  21.643  0.00  0.00    -0.453 OA
ATOM     29  C   UNL     1       6.515  -4.258  22.524  0.00  0.00    +0.167 A 
ATOM     30  C   UNL     1       6.740  -3.026  23.101  0.00  0.00    +0.055 A 
ENDBRANCH  10  22
TORSDOF 1
ENDMDL
MODEL 9
REMARK VINA RESULT:      -6.7      1.806      2.198
REMARK  Name = 
REMARK  2 active torsions:
REMARK  status: ('A' for Active; 'I' for Inactive)
REMARK    1  A    between atoms: C_13  and  C_23
REMARK    2  A    between atoms: N_19  and  C_20
REMARK                            x       y       z     vdW  Elec       q    Type
REMARK                         _______ _______ _______ _____ _____    ______ ____
ROOT
ATOM      1  C   UNL     1       6.254   4.918  25.383  0.00  0.00    +0.167 C 
ATOM      2  C   UNL     1       5.177   5.448  26.339  0.00  0.00    +0.237 C 
ATOM      3  O   UNL     1       5.041   6.660  26.527  0.00  0.00    -0.274 OA
ATOM      4  N   UNL     1       4.374   4.519  26.961  0.00  0.00    -0.294 N 
ATOM      5  C   UNL     1       3.447   4.986  27.977  0.00  0.00    +0.132 C 
ATOM      6  C   UNL     1       4.743   3.121  27.009  0.00  0.00    +0.203 C 
ATOM      7  C   UNL     1       5.720   2.560  25.980  0.00  0.00    +0.234 C 
ATOM      8  O   UNL     1       5.897   1.342  25.986  0.00  0.00    -0.274 OA
ATOM      9  N   UNL     1       6.333   3.455  25.126  0.00  0.00    -0.276 N 
ATOM     10  C   UNL     1       7.249   3.052  24.014  0.00  0.00    +0.154 C 
ATOM     11  C   UNL     1       8.498   3.897  24.122  0.00  0.00    +0.046 A 
ATOM     12  N   UNL     1       9.640   3.732  23.375  0.00  0.00    -0.356 N 
ATOM     13  H   UNL     1       9.788   3.002  22.690  0.00  0.00    +0.166 HD
ATOM     14  C   UNL     1      10.591   4.657  23.753  0.00  0.00    +0.047 A 
ATOM     15  C   UNL     1      10.013   5.478  24.723  0.00  0.00    +0.003 A 
ATOM     16  C   UNL     1      10.780   6.527  25.268  0.00  0.00    +0.010 A 
ATOM     17  C   UNL     1      12.100   6.708  24.838  0.00  0.00    +0.001 A 
ATOM     18  C   UNL     1      12.655   5.865  23.878  0.00  0.00    +0.002 A 
ATOM     19  C   UNL     1      11.908   4.825  23.313  0.00  0.00    +0.026 A 
ATOM     20  C   UNL     1       8.691   5.000  24.932  0.00  0.00    -0.015 A 
ATOM     21  C   UNL     1       7.616   5.495  25.836  0.00  0.00    +0.069 C 
ENDROOT
BRANCH  10  22
ATOM     22  C   UNL     1       7.515   1.561  23.849  0.00  0.00    -0.018 A 
ATOM     23  C   UNL     1       6.689   0.731  23.045  0.00  0.00    +0.009 A 
ATOM     24  C   UNL     1       7.017  -0.608  22.805  0.00  0.00    +0.050 A 
ATOM     25  C   UNL     1       8.189  -1.085  23.346  0.00  0.00    +0.166 A 
ATOM     26  O   UNL     1       8.701  -2.332  23.159  0.00  0.00    -0.453 OA
ATOM     27  C   UNL     1       9.969  -2.202  23.837  0.00  0.00    +0.466 C 
ATOM     28  O   UNL     1      10.126  -0.946  24.528  0.00  0.00    -0.453 OA
ATOM     29  C   UNL     1       8.999  -0.297  24.128  0.00  0.00    +0.167 A 
ATOM     30  C   UNL     1       8.683   1.013  24.416  0.00  0.00    +0.055 A 
ENDBRANCH  10  22
TORSDOF 1
ENDMDL
