MODEL 1
REMARK VINA RESULT:      -6.1      0.000      0.000
REMARK  Name = 
REMARK  1 active torsions:
REMARK  status: ('A' for Active; 'I' for Inactive)
REMARK    1  A    between atoms: C_1  and  C_2
REMARK                            x       y       z     vdW  Elec       q    Type
REMARK                         _______ _______ _______ _____ _____    ______ ____
ROOT
ATOM      1  C   UNL     1      10.392   2.073  22.211  0.00  0.00    +0.109 C 
ATOM      2  C   UNL     1       9.507   0.866  22.045  0.00  0.00    +0.216 C 
ATOM      3  N   UNL     1       9.836  -0.148  22.920  0.00  0.00    -0.265 N 
ATOM      4  H   UNL     1      10.662  -0.099  23.497  0.00  0.00    +0.157 HD
ATOM      5  C   UNL     1       9.092  -1.294  22.979  0.00  0.00    +0.165 A 
ATOM      6  S   UNL     1       9.699  -2.523  23.997  0.00  0.00    -0.047 S 
ATOM      7  C   UNL     1       8.375  -3.515  23.548  0.00  0.00    +0.098 A 
ATOM      8  C   UNL     1       8.214  -4.868  24.039  0.00  0.00    +0.253 C 
ATOM      9  N   UNL     1       6.885  -5.253  24.161  0.00  0.00    -0.311 N 
ATOM     10  H   UNL     1       6.356  -4.548  24.656  0.00  0.00    +0.149 HD
ATOM     11  C   UNL     1       6.156  -5.681  22.973  0.00  0.00    +0.105 C 
ATOM     12  C   UNL     1       6.440  -4.886  21.697  0.00  0.00    +0.025 C 
ATOM     13  C   UNL     1       6.381  -3.372  21.907  0.00  0.00    +0.058 C 
ATOM     14  O   UNL     1       9.133  -5.622  24.352  0.00  0.00    -0.270 OA
ATOM     15  C   UNL     1       7.571  -2.841  22.643  0.00  0.00    +0.063 A 
ATOM     16  N   UNL     1       7.974  -1.556  22.361  0.00  0.00    -0.229 NA
ATOM     17  O   UNL     1       8.621   0.865  21.198  0.00  0.00    -0.276 OA
ENDROOT
TORSDOF 0
ENDMDL
MODEL 2
REMARK VINA RESULT:      -5.8      2.848      6.036
REMARK  Name = 
REMARK  1 active torsions:
REMARK  status: ('A' for Active; 'I' for Inactive)
REMARK    1  A    between atoms: C_1  and  C_2
REMARK                            x       y       z     vdW  Elec       q    Type
REMARK                         _______ _______ _______ _____ _____    ______ ____
ROOT
ATOM      1  C   UNL     1       7.933  -5.296  26.740  0.00  0.00    +0.109 C 
ATOM      2  C   UNL     1       8.312  -4.290  25.686  0.00  0.00    +0.216 C 
ATOM      3  N   UNL     1       8.362  -3.004  26.183  0.00  0.00    -0.265 N 
ATOM      4  H   UNL     1       8.046  -2.787  27.116  0.00  0.00    +0.157 HD
ATOM      5  C   UNL     1       8.769  -1.962  25.396  0.00  0.00    +0.165 A 
ATOM      6  S   UNL     1       8.639  -0.410  26.093  0.00  0.00    -0.047 S 
ATOM      7  C   UNL     1       9.245   0.268  24.640  0.00  0.00    +0.098 A 
ATOM      8  C   UNL     1       9.398   1.694  24.450  0.00  0.00    +0.253 C 
ATOM      9  N   UNL     1      10.452   2.026  23.608  0.00  0.00    -0.311 N 
ATOM     10  H   UNL     1      11.292   1.534  23.880  0.00  0.00    +0.149 HD
ATOM     11  C   UNL     1      10.266   1.934  22.164  0.00  0.00    +0.105 C 
ATOM     12  C   UNL     1       9.457   0.731  21.675  0.00  0.00    +0.025 C 
ATOM     13  C   UNL     1       9.912  -0.592  22.293  0.00  0.00    +0.058 C 
ATOM     14  O   UNL     1       8.704   2.559  24.982  0.00  0.00    -0.270 OA
ATOM     15  C   UNL     1       9.491  -0.741  23.721  0.00  0.00    +0.063 A 
ATOM     16  N   UNL     1       9.253  -2.014  24.186  0.00  0.00    -0.229 NA
ATOM     17  O   UNL     1       8.529  -4.657  24.536  0.00  0.00    -0.276 OA
ENDROOT
TORSDOF 0
ENDMDL
MODEL 3
REMARK VINA RESULT:      -5.7      3.308      4.631
REMARK  Name = 
REMARK  1 active torsions:
REMARK  status: ('A' for Active; 'I' for Inactive)
REMARK    1  A    between atoms: C_1  and  C_2
REMARK                            x       y       z     vdW  Elec       q    Type
REMARK                         _______ _______ _______ _____ _____    ______ ____
ROOT
ATOM      1  C   UNL     1       9.547   6.289  23.595  0.00  0.00    +0.109 C 
ATOM      2  C   UNL     1       9.327   4.881  24.080  0.00  0.00    +0.216 C 
ATOM      3  N   UNL     1       9.635   3.942  23.119  0.00  0.00    -0.265 N 
ATOM      4  H   UNL     1       9.855   4.210  22.171  0.00  0.00    +0.157 HD
ATOM      5  C   UNL     1       9.579   2.605  23.399  0.00  0.00    +0.165 A 
ATOM      6  S   UNL     1       9.841   1.556  22.078  0.00  0.00    -0.047 S 
ATOM      7  C   UNL     1       9.603   0.218  23.123  0.00  0.00    +0.098 A 
ATOM      8  C   UNL     1       9.644  -1.151  22.656  0.00  0.00    +0.253 C 
ATOM      9  N   UNL     1      10.105  -2.044  23.614  0.00  0.00    -0.311 N 
ATOM     10  H   UNL     1      10.961  -1.706  24.032  0.00  0.00    +0.149 HD
ATOM     11  C   UNL     1       9.193  -2.509  24.653  0.00  0.00    +0.105 C 
ATOM     12  C   UNL     1       8.241  -1.454  25.220  0.00  0.00    +0.025 C 
ATOM     13  C   UNL     1       8.944  -0.149  25.597  0.00  0.00    +0.058 C 
ATOM     14  O   UNL     1       9.334  -1.525  21.526  0.00  0.00    -0.270 OA
ATOM     15  C   UNL     1       9.328   0.669  24.404  0.00  0.00    +0.063 A 
ATOM     16  N   UNL     1       9.360   2.036  24.553  0.00  0.00    -0.229 NA
ATOM     17  O   UNL     1       8.909   4.680  25.216  0.00  0.00    -0.276 OA
ENDROOT
TORSDOF 0
ENDMDL
MODEL 4
REMARK VINA RESULT:      -5.7      2.821      3.602
REMARK  Name = 
REMARK  1 active torsions:
REMARK  status: ('A' for Active; 'I' for Inactive)
REMARK    1  A    between atoms: C_1  and  C_2
REMARK                            x       y       z     vdW  Elec       q    Type
REMARK                         _______ _______ _______ _____ _____    ______ ____
ROOT
ATOM      1  C   UNL     1       7.246   5.432  22.035  0.00  0.00    +0.109 C 
ATOM      2  C   UNL     1       7.053   3.949  22.210  0.00  0.00    +0.216 C 
ATOM      3  N   UNL     1       8.251   3.269  22.274  0.00  0.00    -0.265 N 
ATOM      4  H   UNL     1       9.130   3.731  22.090  0.00  0.00    +0.157 HD
ATOM      5  C   UNL     1       8.283   1.924  22.515  0.00  0.00    +0.165 A 
ATOM      6  S   UNL     1       9.821   1.188  22.420  0.00  0.00    -0.047 S 
ATOM      7  C   UNL     1       9.093  -0.323  22.774  0.00  0.00    +0.098 A 
ATOM      8  C   UNL     1       9.849  -1.556  22.834  0.00  0.00    +0.253 C 
ATOM      9  N   UNL     1       9.329  -2.475  23.736  0.00  0.00    -0.311 N 
ATOM     10  H   UNL     1       9.151  -2.035  24.628  0.00  0.00    +0.149 HD
ATOM     11  C   UNL     1       8.184  -3.289  23.344  0.00  0.00    +0.105 C 
ATOM     12  C   UNL     1       7.108  -2.570  22.526  0.00  0.00    +0.025 C 
ATOM     13  C   UNL     1       6.695  -1.226  23.127  0.00  0.00    +0.058 C 
ATOM     14  O   UNL     1      10.867  -1.796  22.188  0.00  0.00    -0.270 OA
ATOM     15  C   UNL     1       7.725  -0.160  22.927  0.00  0.00    +0.063 A 
ATOM     16  N   UNL     1       7.285   1.140  22.817  0.00  0.00    -0.229 NA
ATOM     17  O   UNL     1       5.922   3.479  22.271  0.00  0.00    -0.276 OA
ENDROOT
TORSDOF 0
ENDMDL
MODEL 5
REMARK VINA RESULT:      -5.7      2.289      5.519
REMARK  Name = 
REMARK  1 active torsions:
REMARK  status: ('A' for Active; 'I' for Inactive)
REMARK    1  A    between atoms: C_1  and  C_2
REMARK                            x       y       z     vdW  Elec       q    Type
REMARK                         _______ _______ _______ _____ _____    ______ ____
ROOT
ATOM      1  C   UNL     1       6.522  -5.643  21.778  0.00  0.00    +0.109 C 
ATOM      2  C   UNL     1       6.626  -4.157  22.000  0.00  0.00    +0.216 C 
ATOM      3  N   UNL     1       7.832  -3.795  22.562  0.00  0.00    -0.265 N 
ATOM      4  H   UNL     1       8.489  -4.486  22.892  0.00  0.00    +0.157 HD
ATOM      5  C   UNL     1       8.147  -2.479  22.762  0.00  0.00    +0.165 A 
ATOM      6  S   UNL     1       9.604  -2.183  23.601  0.00  0.00    -0.047 S 
ATOM      7  C   UNL     1       9.300  -0.500  23.486  0.00  0.00    +0.098 A 
ATOM      8  C   UNL     1      10.182   0.492  24.064  0.00  0.00    +0.253 C 
ATOM      9  N   UNL     1      10.201   1.687  23.357  0.00  0.00    -0.311 N 
ATOM     10  H   UNL     1      10.336   1.513  22.370  0.00  0.00    +0.149 HD
ATOM     11  C   UNL     1       9.122   2.649  23.551  0.00  0.00    +0.105 C 
ATOM     12  C   UNL     1       7.720   2.052  23.690  0.00  0.00    +0.025 C 
ATOM     13  C   UNL     1       7.397   1.018  22.610  0.00  0.00    +0.058 C 
ATOM     14  O   UNL     1      10.878   0.325  25.063  0.00  0.00    -0.270 OA
ATOM     15  C   UNL     1       8.100  -0.285  22.826  0.00  0.00    +0.063 A 
ATOM     16  N   UNL     1       7.475  -1.428  22.382  0.00  0.00    -0.229 NA
ATOM     17  O   UNL     1       5.693  -3.423  21.694  0.00  0.00    -0.276 OA
ENDROOT
TORSDOF 0
ENDMDL
MODEL 6
REMARK VINA RESULT:      -5.6      2.428      5.682
REMARK  Name = 
REMARK  1 active torsions:
REMARK  status: ('A' for Active; 'I' for Inactive)
REMARK    1  A    between atoms: C_1  and  C_2
REMARK                            x       y       z     vdW  Elec       q    Type
REMARK                         _______ _______ _______ _____ _____    ______ ____
ROOT
ATOM      1  C   UNL     1       9.415  -5.361  25.305  0.00  0.00    +0.109 C 
ATOM      2  C   UNL     1       8.760  -4.049  24.964  0.00  0.00    +0.216 C 
ATOM      3  N   UNL     1       9.555  -3.260  24.159  0.00  0.00    -0.265 N 
ATOM      4  H   UNL     1      10.510  -3.512  23.952  0.00  0.00    +0.157 HD
ATOM      5  C   UNL     1       9.098  -2.066  23.675  0.00  0.00    +0.165 A 
ATOM      6  S   UNL     1      10.237  -1.127  22.817  0.00  0.00    -0.047 S 
ATOM      7  C   UNL     1       9.040   0.080  22.596  0.00  0.00    +0.098 A 
ATOM      8  C   UNL     1       9.309   1.327  21.912  0.00  0.00    +0.253 C 
ATOM      9  N   UNL     1       8.203   1.837  21.245  0.00  0.00    -0.311 N 
ATOM     10  H   UNL     1       7.769   1.120  20.679  0.00  0.00    +0.149 HD
ATOM     11  C   UNL     1       7.186   2.561  21.999  0.00  0.00    +0.105 C 
ATOM     12  C   UNL     1       6.849   1.987  23.377  0.00  0.00    +0.025 C 
ATOM     13  C   UNL     1       6.600   0.478  23.356  0.00  0.00    +0.058 C 
ATOM     14  O   UNL     1      10.398   1.897  21.880  0.00  0.00    -0.270 OA
ATOM     15  C   UNL     1       7.859  -0.315  23.204  0.00  0.00    +0.063 A 
ATOM     16  N   UNL     1       7.899  -1.564  23.780  0.00  0.00    -0.229 NA
ATOM     17  O   UNL     1       7.644  -3.787  25.401  0.00  0.00    -0.276 OA
ENDROOT
TORSDOF 0
ENDMDL
MODEL 7
REMARK VINA RESULT:      -5.5      1.934      5.687
REMARK  Name = 
REMARK  1 active torsions:
REMARK  status: ('A' for Active; 'I' for Inactive)
REMARK    1  A    between atoms: C_1  and  C_2
REMARK                            x       y       z     vdW  Elec       q    Type
REMARK                         _______ _______ _______ _____ _____    ______ ____
ROOT
ATOM      1  C   UNL     1       6.021  -5.801  23.488  0.00  0.00    +0.109 C 
ATOM      2  C   UNL     1       6.703  -4.563  22.969  0.00  0.00    +0.216 C 
ATOM      3  N   UNL     1       6.951  -3.645  23.967  0.00  0.00    -0.265 N 
ATOM      4  H   UNL     1       6.585  -3.768  24.900  0.00  0.00    +0.157 HD
ATOM      5  C   UNL     1       7.639  -2.492  23.707  0.00  0.00    +0.165 A 
ATOM      6  S   UNL     1       7.743  -1.380  24.998  0.00  0.00    -0.047 S 
ATOM      7  C   UNL     1       8.624  -0.318  23.981  0.00  0.00    +0.098 A 
ATOM      8  C   UNL     1       9.076   0.985  24.420  0.00  0.00    +0.253 C 
ATOM      9  N   UNL     1      10.259   1.389  23.815  0.00  0.00    -0.311 N 
ATOM     10  H   UNL     1      10.951   0.653  23.863  0.00  0.00    +0.149 HD
ATOM     11  C   UNL     1      10.217   1.945  22.468  0.00  0.00    +0.105 C 
ATOM     12  C   UNL     1       9.244   1.267  21.500  0.00  0.00    +0.025 C 
ATOM     13  C   UNL     1       9.360  -0.258  21.501  0.00  0.00    +0.058 C 
ATOM     14  O   UNL     1       8.513   1.684  25.260  0.00  0.00    -0.270 OA
ATOM     15  C   UNL     1       8.765  -0.884  22.723  0.00  0.00    +0.063 A 
ATOM     16  N   UNL     1       8.231  -2.146  22.597  0.00  0.00    -0.229 NA
ATOM     17  O   UNL     1       6.966  -4.460  21.776  0.00  0.00    -0.276 OA
ENDROOT
TORSDOF 0
ENDMDL
MODEL 8
REMARK VINA RESULT:      -5.4      2.223      6.459
REMARK  Name = 
REMARK  1 active torsions:
REMARK  status: ('A' for Active; 'I' for Inactive)
REMARK    1  A    between atoms: C_1  and  C_2
REMARK                            x       y       z     vdW  Elec       q    Type
REMARK                         _______ _______ _______ _____ _____    ______ ____
ROOT
ATOM      1  C   UNL     1       7.953  -4.846  23.790  0.00  0.00    +0.109 C 
ATOM      2  C   UNL     1       8.619  -3.496  23.824  0.00  0.00    +0.216 C 
ATOM      3  N   UNL     1       7.750  -2.475  23.499  0.00  0.00    -0.265 N 
ATOM      4  H   UNL     1       6.819  -2.664  23.157  0.00  0.00    +0.157 HD
ATOM      5  C   UNL     1       8.149  -1.169  23.555  0.00  0.00    +0.165 A 
ATOM      6  S   UNL     1       7.020  -0.022  22.985  0.00  0.00    -0.047 S 
ATOM      7  C   UNL     1       8.150   1.222  23.322  0.00  0.00    +0.098 A 
ATOM      8  C   UNL     1       7.882   2.616  23.036  0.00  0.00    +0.253 C 
ATOM      9  N   UNL     1       8.506   3.487  23.920  0.00  0.00    -0.311 N 
ATOM     10  H   UNL     1       8.339   3.203  24.876  0.00  0.00    +0.149 HD
ATOM     11  C   UNL     1       9.918   3.802  23.733  0.00  0.00    +0.105 C 
ATOM     12  C   UNL     1      10.808   2.632  23.309  0.00  0.00    +0.025 C 
ATOM     13  C   UNL     1      10.595   1.376  24.156  0.00  0.00    +0.058 C 
ATOM     14  O   UNL     1       7.162   3.028  22.129  0.00  0.00    -0.270 OA
ATOM     15  C   UNL     1       9.314   0.671  23.835  0.00  0.00    +0.063 A 
ATOM     16  N   UNL     1       9.279  -0.694  24.000  0.00  0.00    -0.229 NA
ATOM     17  O   UNL     1       9.808  -3.404  24.110  0.00  0.00    -0.276 OA
ENDROOT
TORSDOF 0
ENDMDL
MODEL 9
REMARK VINA RESULT:      -5.3      2.521      3.149
REMARK  Name = 
REMARK  1 active torsions:
REMARK  status: ('A' for Active; 'I' for Inactive)
REMARK    1  A    between atoms: C_1  and  C_2
REMARK                            x       y       z     vdW  Elec       q    Type
REMARK                         _______ _______ _______ _____ _____    ______ ____
ROOT
ATOM      1  C   UNL     1      10.413   5.112  23.789  0.00  0.00    +0.109 C 
ATOM      2  C   UNL     1       9.537   3.892  23.692  0.00  0.00    +0.216 C 
ATOM      3  N   UNL     1      10.226   2.730  23.969  0.00  0.00    -0.265 N 
ATOM      4  H   UNL     1      11.227   2.726  24.089  0.00  0.00    +0.157 HD
ATOM      5  C   UNL     1       9.581   1.524  24.013  0.00  0.00    +0.165 A 
ATOM      6  S   UNL     1      10.579   0.154  24.219  0.00  0.00    -0.047 S 
ATOM      7  C   UNL     1       9.185  -0.841  24.149  0.00  0.00    +0.098 A 
ATOM      8  C   UNL     1       9.255  -2.285  24.227  0.00  0.00    +0.253 C 
ATOM      9  N   UNL     1       8.138  -2.858  24.820  0.00  0.00    -0.311 N 
ATOM     10  H   UNL     1       7.918  -2.389  25.689  0.00  0.00    +0.149 HD
ATOM     11  C   UNL     1       6.925  -3.038  24.030  0.00  0.00    +0.105 C 
ATOM     12  C   UNL     1       6.582  -1.895  23.072  0.00  0.00    +0.025 C 
ATOM     13  C   UNL     1       6.653  -0.517  23.730  0.00  0.00    +0.058 C 
ATOM     14  O   UNL     1      10.201  -2.971  23.842  0.00  0.00    -0.270 OA
ATOM     15  C   UNL     1       8.058  -0.057  23.962  0.00  0.00    +0.063 A 
ATOM     16  N   UNL     1       8.299   1.298  23.928  0.00  0.00    -0.229 NA
ATOM     17  O   UNL     1       8.354   4.006  23.387  0.00  0.00    -0.276 OA
ENDROOT
TORSDOF 0
ENDMDL
