MODEL 1
REMARK VINA RESULT:      -5.5      0.000      0.000
REMARK  Name = 
REMARK  11 active torsions:
REMARK  status: ('A' for Active; 'I' for Inactive)
REMARK    1  A    between atoms: C_1  and  C_2
REMARK    2  A    between atoms: C_2  and  C_3
REMARK    3  A    between atoms: C_2  and  N_11
REMARK    4  A    between atoms: C_3  and  O_4
REMARK    5  A    between atoms: O_4  and  C_5
REMARK    6  A    between atoms: N_11  and  C_12
REMARK    7  A    between atoms: C_12  and  C_13
REMARK    8  A    between atoms: C_12  and  C_14
REMARK    9  A    between atoms: C_14  and  O_15
REMARK   10  A    between atoms: C_14  and  C_16
REMARK   11  A    between atoms: C_19  and  O_20
REMARK                            x       y       z     vdW  Elec       q    Type
REMARK                         _______ _______ _______ _____ _____    ______ ____
ROOT
ATOM      1  C   UNL     1       9.200  -0.735  22.886  0.00  0.00    +0.084 C 
ATOM      2  C   UNL     1       9.443   0.062  21.593  0.00  0.00    +0.027 C 
ENDROOT
BRANCH   1   3
ATOM      3  N   UNL     1      10.065  -0.173  23.947  0.00  0.00    -0.305 NA
ATOM      4  H   UNL     1      10.736  -0.887  24.240  0.00  0.00    +0.123 HD
BRANCH   3   6
ATOM      5  C   UNL     1       8.692   1.673  24.755  0.00  0.00    +0.027 C 
ATOM      6  C   UNL     1       9.342   0.336  25.134  0.00  0.00    +0.088 C 
BRANCH   6   7
ATOM      7  C   UNL     1       8.273  -0.665  25.614  0.00  0.00    +0.247 C 
BRANCH   7   8
ATOM      8  O   UNL     1       8.834  -1.741  26.382  0.00  0.00    -0.490 OA
BRANCH   8   9
ATOM      9  C   UNL     1       8.046  -2.871  26.360  0.00  0.00    +0.121 A 
ATOM     10  C   UNL     1       8.543  -4.175  26.377  0.00  0.00    +0.045 A 
ATOM     11  C   UNL     1       7.674  -5.267  26.373  0.00  0.00    +0.004 A 
ATOM     12  C   UNL     1       6.300  -5.055  26.337  0.00  0.00    +0.000 A 
ATOM     13  C   UNL     1       5.795  -3.757  26.295  0.00  0.00    +0.004 A 
ATOM     14  C   UNL     1       6.668  -2.662  26.298  0.00  0.00    +0.045 A 
ENDBRANCH   8   9
ENDBRANCH   7   8
ENDBRANCH   6   7
ENDBRANCH   3   6
ENDBRANCH   1   3
BRANCH   1  15
ATOM     15  C   UNL     1       9.291  -2.285  22.688  0.00  0.00    +0.161 C 
BRANCH  15  16
ATOM     16  C   UNL     1       7.962  -3.020  22.676  0.00  0.00    -0.017 A 
ATOM     17  C   UNL     1       6.742  -2.330  22.618  0.00  0.00    +0.010 A 
ATOM     18  C   UNL     1       5.529  -3.017  22.590  0.00  0.00    +0.046 A 
ATOM     19  C   UNL     1       5.527  -4.407  22.638  0.00  0.00    +0.117 A 
ATOM     20  C   UNL     1       6.719  -5.116  22.706  0.00  0.00    +0.046 A 
ATOM     21  C   UNL     1       7.933  -4.424  22.728  0.00  0.00    +0.010 A 
BRANCH  19  22
ATOM     22  O   UNL     1       4.318  -5.034  22.610  0.00  0.00    -0.507 OA
ATOM     23  H   UNL     1       4.147  -5.350  21.709  0.00  0.00    +0.292 HD
ENDBRANCH  19  22
ENDBRANCH  15  16
BRANCH  15  24
ATOM     24  O   UNL     1      10.177  -2.838  23.667  0.00  0.00    -0.386 OA
ATOM     25  H   UNL     1      11.087  -2.616  23.413  0.00  0.00    +0.210 HD
ENDBRANCH  15  24
ENDBRANCH   1  15
TORSDOF 9
ENDMDL
MODEL 2
REMARK VINA RESULT:      -5.4      2.675      5.941
REMARK  Name = 
REMARK  11 active torsions:
REMARK  status: ('A' for Active; 'I' for Inactive)
REMARK    1  A    between atoms: C_1  and  C_2
REMARK    2  A    between atoms: C_2  and  C_3
REMARK    3  A    between atoms: C_2  and  N_11
REMARK    4  A    between atoms: C_3  and  O_4
REMARK    5  A    between atoms: O_4  and  C_5
REMARK    6  A    between atoms: N_11  and  C_12
REMARK    7  A    between atoms: C_12  and  C_13
REMARK    8  A    between atoms: C_12  and  C_14
REMARK    9  A    between atoms: C_14  and  O_15
REMARK   10  A    between atoms: C_14  and  C_16
REMARK   11  A    between atoms: C_19  and  O_20
REMARK                            x       y       z     vdW  Elec       q    Type
REMARK                         _______ _______ _______ _____ _____    ______ ____
ROOT
ATOM      1  C   UNL     1       8.892  -2.313  23.477  0.00  0.00    +0.084 C 
ATOM      2  C   UNL     1       9.433  -3.277  24.546  0.00  0.00    +0.027 C 
ENDROOT
BRANCH   1   3
ATOM      3  N   UNL     1       7.844  -3.018  22.704  0.00  0.00    -0.305 NA
ATOM      4  H   UNL     1       8.194  -3.198  21.761  0.00  0.00    +0.123 HD
BRANCH   3   6
ATOM      5  C   UNL     1       5.431  -3.327  22.868  0.00  0.00    +0.027 C 
ATOM      6  C   UNL     1       6.550  -2.306  22.619  0.00  0.00    +0.088 C 
BRANCH   6   7
ATOM      7  C   UNL     1       6.469  -1.160  23.645  0.00  0.00    +0.247 C 
BRANCH   7   8
ATOM      8  O   UNL     1       6.499   0.135  23.025  0.00  0.00    -0.490 OA
BRANCH   8   9
ATOM      9  C   UNL     1       6.819   1.139  23.915  0.00  0.00    +0.121 A 
ATOM     10  C   UNL     1       6.770   2.500  23.612  0.00  0.00    +0.045 A 
ATOM     11  C   UNL     1       7.091   3.454  24.579  0.00  0.00    +0.004 A 
ATOM     12  C   UNL     1       7.477   3.046  25.851  0.00  0.00    +0.000 A 
ATOM     13  C   UNL     1       7.552   1.687  26.155  0.00  0.00    +0.004 A 
ATOM     14  C   UNL     1       7.230   0.730  25.184  0.00  0.00    +0.045 A 
ENDBRANCH   8   9
ENDBRANCH   7   8
ENDBRANCH   6   7
ENDBRANCH   3   6
ENDBRANCH   1   3
BRANCH   1  15
ATOM     15  C   UNL     1      10.016  -1.631  22.627  0.00  0.00    +0.161 C 
BRANCH  15  16
ATOM     16  C   UNL     1      10.162  -0.132  22.825  0.00  0.00    -0.017 A 
ATOM     17  C   UNL     1       9.834   0.779  21.810  0.00  0.00    +0.010 A 
ATOM     18  C   UNL     1       9.955   2.153  22.010  0.00  0.00    +0.046 A 
ATOM     19  C   UNL     1      10.425   2.629  23.230  0.00  0.00    +0.117 A 
ATOM     20  C   UNL     1      10.767   1.751  24.250  0.00  0.00    +0.046 A 
ATOM     21  C   UNL     1      10.639   0.374  24.047  0.00  0.00    +0.010 A 
BRANCH  19  22
ATOM     22  O   UNL     1      10.529   3.979  23.379  0.00  0.00    -0.507 OA
ATOM     23  H   UNL     1       9.998   4.414  22.693  0.00  0.00    +0.292 HD
ENDBRANCH  19  22
ENDBRANCH  15  16
BRANCH  15  24
ATOM     24  O   UNL     1       9.828  -1.952  21.245  0.00  0.00    -0.386 OA
ATOM     25  H   UNL     1      10.633  -2.388  20.923  0.00  0.00    +0.210 HD
ENDBRANCH  15  24
ENDBRANCH   1  15
TORSDOF 9
ENDMDL
MODEL 3
REMARK VINA RESULT:      -5.4      2.278      5.196
REMARK  Name = 
REMARK  11 active torsions:
REMARK  status: ('A' for Active; 'I' for Inactive)
REMARK    1  A    between atoms: C_1  and  C_2
REMARK    2  A    between atoms: C_2  and  C_3
REMARK    3  A    between atoms: C_2  and  N_11
REMARK    4  A    between atoms: C_3  and  O_4
REMARK    5  A    between atoms: O_4  and  C_5
REMARK    6  A    between atoms: N_11  and  C_12
REMARK    7  A    between atoms: C_12  and  C_13
REMARK    8  A    between atoms: C_12  and  C_14
REMARK    9  A    between atoms: C_14  and  O_15
REMARK   10  A    between atoms: C_14  and  C_16
REMARK   11  A    between atoms: C_19  and  O_20
REMARK                            x       y       z     vdW  Elec       q    Type
REMARK                         _______ _______ _______ _____ _____    ______ ____
ROOT
ATOM      1  C   UNL     1       7.830  -3.376  24.267  0.00  0.00    +0.084 C 
ATOM      2  C   UNL     1       7.125  -3.685  25.598  0.00  0.00    +0.027 C 
ENDROOT
BRANCH   1   3
ATOM      3  N   UNL     1       7.765  -4.585  23.415  0.00  0.00    -0.305 NA
ATOM      4  H   UNL     1       8.715  -4.918  23.240  0.00  0.00    +0.123 HD
BRANCH   3   6
ATOM      5  C   UNL     1       7.014  -5.758  21.414  0.00  0.00    +0.027 C 
ATOM      6  C   UNL     1       7.065  -4.399  22.125  0.00  0.00    +0.088 C 
BRANCH   6   7
ATOM      7  C   UNL     1       5.642  -3.845  22.330  0.00  0.00    +0.247 C 
BRANCH   7   8
ATOM      8  O   UNL     1       4.649  -4.881  22.366  0.00  0.00    -0.490 OA
BRANCH   8   9
ATOM      9  C   UNL     1       4.347  -5.278  23.651  0.00  0.00    +0.121 A 
ATOM     10  C   UNL     1       4.687  -6.518  24.190  0.00  0.00    +0.045 A 
ATOM     11  C   UNL     1       4.361  -6.833  25.510  0.00  0.00    +0.004 A 
ATOM     12  C   UNL     1       3.676  -5.909  26.291  0.00  0.00    +0.000 A 
ATOM     13  C   UNL     1       3.309  -4.676  25.753  0.00  0.00    +0.004 A 
ATOM     14  C   UNL     1       3.637  -4.361  24.428  0.00  0.00    +0.045 A 
ENDBRANCH   8   9
ENDBRANCH   7   8
ENDBRANCH   6   7
ENDBRANCH   3   6
ENDBRANCH   1   3
BRANCH   1  15
ATOM     15  C   UNL     1       9.255  -2.752  24.448  0.00  0.00    +0.161 C 
BRANCH  15  16
ATOM     16  C   UNL     1       9.508  -1.471  23.672  0.00  0.00    -0.017 A 
ATOM     17  C   UNL     1       9.376  -1.419  22.276  0.00  0.00    +0.010 A 
ATOM     18  C   UNL     1       9.593  -0.232  21.577  0.00  0.00    +0.046 A 
ATOM     19  C   UNL     1       9.963   0.914  22.272  0.00  0.00    +0.117 A 
ATOM     20  C   UNL     1      10.111   0.890  23.653  0.00  0.00    +0.046 A 
ATOM     21  C   UNL     1       9.887  -0.300  24.351  0.00  0.00    +0.010 A 
BRANCH  19  22
ATOM     22  O   UNL     1      10.166   2.049  21.547  0.00  0.00    -0.507 OA
ATOM     23  H   UNL     1      10.311   2.791  22.156  0.00  0.00    +0.292 HD
ENDBRANCH  19  22
ENDBRANCH  15  16
BRANCH  15  24
ATOM     24  O   UNL     1      10.248  -3.739  24.150  0.00  0.00    -0.386 OA
ATOM     25  H   UNL     1       9.810  -4.489  23.716  0.00  0.00    +0.210 HD
ENDBRANCH  15  24
ENDBRANCH   1  15
TORSDOF 9
ENDMDL
MODEL 4
REMARK VINA RESULT:      -5.3      2.739      6.151
REMARK  Name = 
REMARK  11 active torsions:
REMARK  status: ('A' for Active; 'I' for Inactive)
REMARK    1  A    between atoms: C_1  and  C_2
REMARK    2  A    between atoms: C_2  and  C_3
REMARK    3  A    between atoms: C_2  and  N_11
REMARK    4  A    between atoms: C_3  and  O_4
REMARK    5  A    between atoms: O_4  and  C_5
REMARK    6  A    between atoms: N_11  and  C_12
REMARK    7  A    between atoms: C_12  and  C_13
REMARK    8  A    between atoms: C_12  and  C_14
REMARK    9  A    between atoms: C_14  and  O_15
REMARK   10  A    between atoms: C_14  and  C_16
REMARK   11  A    between atoms: C_19  and  O_20
REMARK                            x       y       z     vdW  Elec       q    Type
REMARK                         _______ _______ _______ _____ _____    ______ ____
ROOT
ATOM      1  C   UNL     1       8.898  -2.404  24.291  0.00  0.00    +0.084 C 
ATOM      2  C   UNL     1       9.456  -3.783  24.678  0.00  0.00    +0.027 C 
ENDROOT
BRANCH   1   3
ATOM      3  N   UNL     1       7.420  -2.469  24.345  0.00  0.00    -0.305 NA
ATOM      4  H   UNL     1       7.050  -2.387  23.396  0.00  0.00    +0.123 HD
BRANCH   3   6
ATOM      5  C   UNL     1       7.745  -1.144  26.366  0.00  0.00    +0.027 C 
ATOM      6  C   UNL     1       6.785  -1.449  25.209  0.00  0.00    +0.088 C 
BRANCH   6   7
ATOM      7  C   UNL     1       6.466  -0.164  24.422  0.00  0.00    +0.247 C 
BRANCH   7   8
ATOM      8  O   UNL     1       6.916   1.020  25.098  0.00  0.00    -0.490 OA
BRANCH   8   9
ATOM      9  C   UNL     1       6.982   2.113  24.261  0.00  0.00    +0.121 A 
ATOM     10  C   UNL     1       7.422   3.377  24.654  0.00  0.00    +0.045 A 
ATOM     11  C   UNL     1       7.478   4.427  23.735  0.00  0.00    +0.004 A 
ATOM     12  C   UNL     1       7.078   4.216  22.421  0.00  0.00    +0.000 A 
ATOM     13  C   UNL     1       6.613   2.963  22.025  0.00  0.00    +0.004 A 
ATOM     14  C   UNL     1       6.557   1.910  22.947  0.00  0.00    +0.045 A 
ENDBRANCH   8   9
ENDBRANCH   7   8
ENDBRANCH   6   7
ENDBRANCH   3   6
ENDBRANCH   1   3
BRANCH   1  15
ATOM     15  C   UNL     1       9.502  -1.838  22.961  0.00  0.00    +0.161 C 
BRANCH  15  16
ATOM     16  C   UNL     1       9.870  -0.365  22.988  0.00  0.00    -0.017 A 
ATOM     17  C   UNL     1       9.746   0.445  21.849  0.00  0.00    +0.010 A 
ATOM     18  C   UNL     1      10.070   1.800  21.892  0.00  0.00    +0.046 A 
ATOM     19  C   UNL     1      10.540   2.355  23.077  0.00  0.00    +0.117 A 
ATOM     20  C   UNL     1      10.682   1.576  24.218  0.00  0.00    +0.046 A 
ATOM     21  C   UNL     1      10.350   0.219  24.173  0.00  0.00    +0.010 A 
BRANCH  19  22
ATOM     22  O   UNL     1      10.845   3.682  23.071  0.00  0.00    -0.507 OA
ATOM     23  H   UNL     1      10.022   4.196  23.096  0.00  0.00    +0.292 HD
ENDBRANCH  19  22
ENDBRANCH  15  16
BRANCH  15  24
ATOM     24  O   UNL     1       8.615  -2.128  21.876  0.00  0.00    -0.386 OA
ATOM     25  H   UNL     1       8.988  -2.865  21.366  0.00  0.00    +0.210 HD
ENDBRANCH  15  24
ENDBRANCH   1  15
TORSDOF 9
ENDMDL
MODEL 5
REMARK VINA RESULT:      -5.3      2.651      5.722
REMARK  Name = 
REMARK  11 active torsions:
REMARK  status: ('A' for Active; 'I' for Inactive)
REMARK    1  A    between atoms: C_1  and  C_2
REMARK    2  A    between atoms: C_2  and  C_3
REMARK    3  A    between atoms: C_2  and  N_11
REMARK    4  A    between atoms: C_3  and  O_4
REMARK    5  A    between atoms: O_4  and  C_5
REMARK    6  A    between atoms: N_11  and  C_12
REMARK    7  A    between atoms: C_12  and  C_13
REMARK    8  A    between atoms: C_12  and  C_14
REMARK    9  A    between atoms: C_14  and  O_15
REMARK   10  A    between atoms: C_14  and  C_16
REMARK   11  A    between atoms: C_19  and  O_20
REMARK                            x       y       z     vdW  Elec       q    Type
REMARK                         _______ _______ _______ _____ _____    ______ ____
ROOT
ATOM      1  C   UNL     1       8.579  -2.601  25.578  0.00  0.00    +0.084 C 
ATOM      2  C   UNL     1       8.433  -3.953  26.295  0.00  0.00    +0.027 C 
ENDROOT
BRANCH   1   3
ATOM      3  N   UNL     1       7.228  -2.024  25.396  0.00  0.00    -0.305 NA
ATOM      4  H   UNL     1       7.157  -1.638  24.452  0.00  0.00    +0.123 HD
BRANCH   3   6
ATOM      5  C   UNL     1       8.140  -0.534  27.097  0.00  0.00    +0.027 C 
ATOM      6  C   UNL     1       6.859  -0.982  26.380  0.00  0.00    +0.088 C 
BRANCH   6   7
ATOM      7  C   UNL     1       6.176   0.219  25.699  0.00  0.00    +0.247 C 
BRANCH   7   8
ATOM      8  O   UNL     1       6.352   0.216  24.274  0.00  0.00    -0.490 OA
BRANCH   8   9
ATOM      9  C   UNL     1       6.726   1.450  23.786  0.00  0.00    +0.121 A 
ATOM     10  C   UNL     1       6.467   1.892  22.489  0.00  0.00    +0.045 A 
ATOM     11  C   UNL     1       6.862   3.167  22.080  0.00  0.00    +0.004 A 
ATOM     12  C   UNL     1       7.535   3.999  22.968  0.00  0.00    +0.000 A 
ATOM     13  C   UNL     1       7.820   3.556  24.259  0.00  0.00    +0.004 A 
ATOM     14  C   UNL     1       7.423   2.277  24.668  0.00  0.00    +0.045 A 
ENDBRANCH   8   9
ENDBRANCH   7   8
ENDBRANCH   6   7
ENDBRANCH   3   6
ENDBRANCH   1   3
BRANCH   1  15
ATOM     15  C   UNL     1       9.464  -2.672  24.288  0.00  0.00    +0.161 C 
BRANCH  15  16
ATOM     16  C   UNL     1       9.667  -1.352  23.565  0.00  0.00    -0.017 A 
ATOM     17  C   UNL     1      10.263  -0.251  24.197  0.00  0.00    +0.010 A 
ATOM     18  C   UNL     1      10.460   0.949  23.517  0.00  0.00    +0.046 A 
ATOM     19  C   UNL     1      10.044   1.064  22.194  0.00  0.00    +0.117 A 
ATOM     20  C   UNL     1       9.442  -0.006  21.545  0.00  0.00    +0.046 A 
ATOM     21  C   UNL     1       9.251  -1.210  22.229  0.00  0.00    +0.010 A 
BRANCH  19  22
ATOM     22  O   UNL     1      10.256   2.256  21.571  0.00  0.00    -0.507 OA
ATOM     23  H   UNL     1      11.054   2.189  21.023  0.00  0.00    +0.292 HD
ENDBRANCH  19  22
ENDBRANCH  15  16
BRANCH  15  24
ATOM     24  O   UNL     1       8.938  -3.668  23.405  0.00  0.00    -0.386 OA
ATOM     25  H   UNL     1       8.525  -3.218  22.651  0.00  0.00    +0.210 HD
ENDBRANCH  15  24
ENDBRANCH   1  15
TORSDOF 9
ENDMDL
MODEL 6
REMARK VINA RESULT:      -5.3      1.728      4.019
REMARK  Name = 
REMARK  11 active torsions:
REMARK  status: ('A' for Active; 'I' for Inactive)
REMARK    1  A    between atoms: C_1  and  C_2
REMARK    2  A    between atoms: C_2  and  C_3
REMARK    3  A    between atoms: C_2  and  N_11
REMARK    4  A    between atoms: C_3  and  O_4
REMARK    5  A    between atoms: O_4  and  C_5
REMARK    6  A    between atoms: N_11  and  C_12
REMARK    7  A    between atoms: C_12  and  C_13
REMARK    8  A    between atoms: C_12  and  C_14
REMARK    9  A    between atoms: C_14  and  O_15
REMARK   10  A    between atoms: C_14  and  C_16
REMARK   11  A    between atoms: C_19  and  O_20
REMARK                            x       y       z     vdW  Elec       q    Type
REMARK                         _______ _______ _______ _____ _____    ______ ____
ROOT
ATOM      1  C   UNL     1       8.051   0.041  24.659  0.00  0.00    +0.084 C 
ATOM      2  C   UNL     1       8.283   1.436  25.262  0.00  0.00    +0.027 C 
ENDROOT
BRANCH   1   3
ATOM      3  N   UNL     1       8.020   0.171  23.185  0.00  0.00    -0.305 NA
ATOM      4  H   UNL     1       7.090  -0.090  22.849  0.00  0.00    +0.123 HD
BRANCH   3   6
ATOM      5  C   UNL     1      10.326  -0.611  23.308  0.00  0.00    +0.027 C 
ATOM      6  C   UNL     1       9.041  -0.624  22.469  0.00  0.00    +0.088 C 
BRANCH   6   7
ATOM      7  C   UNL     1       8.566  -2.071  22.235  0.00  0.00    +0.247 C 
BRANCH   7   8
ATOM      8  O   UNL     1       7.146  -2.159  22.045  0.00  0.00    -0.490 OA
BRANCH   8   9
ATOM      9  C   UNL     1       6.636  -3.379  22.431  0.00  0.00    +0.121 A 
ATOM     10  C   UNL     1       5.277  -3.641  22.611  0.00  0.00    +0.045 A 
ATOM     11  C   UNL     1       4.843  -4.914  22.985  0.00  0.00    +0.004 A 
ATOM     12  C   UNL     1       5.772  -5.926  23.195  0.00  0.00    +0.000 A 
ATOM     13  C   UNL     1       7.133  -5.668  23.043  0.00  0.00    +0.004 A 
ATOM     14  C   UNL     1       7.569  -4.390  22.667  0.00  0.00    +0.045 A 
ENDBRANCH   8   9
ENDBRANCH   7   8
ENDBRANCH   6   7
ENDBRANCH   3   6
ENDBRANCH   1   3
BRANCH   1  15
ATOM     15  C   UNL     1       6.840  -0.720  25.296  0.00  0.00    +0.161 C 
BRANCH  15  16
ATOM     16  C   UNL     1       7.135  -2.132  25.772  0.00  0.00    -0.017 A 
ATOM     17  C   UNL     1       6.108  -3.012  26.145  0.00  0.00    +0.010 A 
ATOM     18  C   UNL     1       6.392  -4.311  26.563  0.00  0.00    +0.046 A 
ATOM     19  C   UNL     1       7.714  -4.737  26.628  0.00  0.00    +0.117 A 
ATOM     20  C   UNL     1       8.752  -3.885  26.275  0.00  0.00    +0.046 A 
ATOM     21  C   UNL     1       8.464  -2.585  25.851  0.00  0.00    +0.010 A 
BRANCH  19  22
ATOM     22  O   UNL     1       7.942  -6.014  27.043  0.00  0.00    -0.507 OA
ATOM     23  H   UNL     1       7.158  -6.554  26.853  0.00  0.00    +0.292 HD
ENDBRANCH  19  22
ENDBRANCH  15  16
BRANCH  15  24
ATOM     24  O   UNL     1       5.736  -0.704  24.385  0.00  0.00    -0.386 OA
ATOM     25  H   UNL     1       6.062  -0.414  23.519  0.00  0.00    +0.210 HD
ENDBRANCH  15  24
ENDBRANCH   1  15
TORSDOF 9
ENDMDL
MODEL 7
REMARK VINA RESULT:      -5.3      2.056      5.168
REMARK  Name = 
REMARK  11 active torsions:
REMARK  status: ('A' for Active; 'I' for Inactive)
REMARK    1  A    between atoms: C_1  and  C_2
REMARK    2  A    between atoms: C_2  and  C_3
REMARK    3  A    between atoms: C_2  and  N_11
REMARK    4  A    between atoms: C_3  and  O_4
REMARK    5  A    between atoms: O_4  and  C_5
REMARK    6  A    between atoms: N_11  and  C_12
REMARK    7  A    between atoms: C_12  and  C_13
REMARK    8  A    between atoms: C_12  and  C_14
REMARK    9  A    between atoms: C_14  and  O_15
REMARK   10  A    between atoms: C_14  and  C_16
REMARK   11  A    between atoms: C_19  and  O_20
REMARK                            x       y       z     vdW  Elec       q    Type
REMARK                         _______ _______ _______ _____ _____    ______ ____
ROOT
ATOM      1  C   UNL     1       8.347  -4.423  24.959  0.00  0.00    +0.084 C 
ATOM      2  C   UNL     1       9.735  -4.895  25.422  0.00  0.00    +0.027 C 
ENDROOT
BRANCH   1   3
ATOM      3  N   UNL     1       8.453  -3.005  24.546  0.00  0.00    -0.305 NA
ATOM      4  H   UNL     1       8.036  -2.417  25.271  0.00  0.00    +0.123 HD
BRANCH   3   6
ATOM      5  C   UNL     1       6.723  -1.655  23.483  0.00  0.00    +0.027 C 
ATOM      6  C   UNL     1       7.830  -2.691  23.241  0.00  0.00    +0.088 C 
BRANCH   6   7
ATOM      7  C   UNL     1       8.866  -2.146  22.239  0.00  0.00    +0.247 C 
BRANCH   7   8
ATOM      8  O   UNL     1      10.084  -1.734  22.877  0.00  0.00    -0.490 OA
BRANCH   8   9
ATOM      9  C   UNL     1      10.184  -0.364  22.989  0.00  0.00    +0.121 A 
ATOM     10  C   UNL     1      10.617   0.301  24.136  0.00  0.00    +0.045 A 
ATOM     11  C   UNL     1      10.708   1.694  24.159  0.00  0.00    +0.004 A 
ATOM     12  C   UNL     1      10.350   2.427  23.034  0.00  0.00    +0.000 A 
ATOM     13  C   UNL     1       9.893   1.773  21.891  0.00  0.00    +0.004 A 
ATOM     14  C   UNL     1       9.801   0.376  21.869  0.00  0.00    +0.045 A 
ENDBRANCH   8   9
ENDBRANCH   7   8
ENDBRANCH   6   7
ENDBRANCH   3   6
ENDBRANCH   1   3
BRANCH   1  15
ATOM     15  C   UNL     1       7.206  -4.747  25.981  0.00  0.00    +0.161 C 
BRANCH  15  16
ATOM     16  C   UNL     1       6.066  -5.591  25.439  0.00  0.00    -0.017 A 
ATOM     17  C   UNL     1       5.777  -5.641  24.067  0.00  0.00    +0.010 A 
ATOM     18  C   UNL     1       4.739  -6.434  23.580  0.00  0.00    +0.046 A 
ATOM     19  C   UNL     1       3.967  -7.175  24.468  0.00  0.00    +0.117 A 
ATOM     20  C   UNL     1       4.223  -7.136  25.833  0.00  0.00    +0.046 A 
ATOM     21  C   UNL     1       5.268  -6.345  26.317  0.00  0.00    +0.010 A 
BRANCH  19  22
ATOM     22  O   UNL     1       2.964  -7.933  23.947  0.00  0.00    -0.507 OA
ATOM     23  H   UNL     1       3.348  -8.707  23.506  0.00  0.00    +0.292 HD
ENDBRANCH  19  22
ENDBRANCH  15  16
BRANCH  15  24
ATOM     24  O   UNL     1       6.719  -3.527  26.551  0.00  0.00    -0.386 OA
ATOM     25  H   UNL     1       6.042  -3.749  27.210  0.00  0.00    +0.210 HD
ENDBRANCH  15  24
ENDBRANCH   1  15
TORSDOF 9
ENDMDL
MODEL 8
REMARK VINA RESULT:      -5.2      2.342      5.448
REMARK  Name = 
REMARK  11 active torsions:
REMARK  status: ('A' for Active; 'I' for Inactive)
REMARK    1  A    between atoms: C_1  and  C_2
REMARK    2  A    between atoms: C_2  and  C_3
REMARK    3  A    between atoms: C_2  and  N_11
REMARK    4  A    between atoms: C_3  and  O_4
REMARK    5  A    between atoms: O_4  and  C_5
REMARK    6  A    between atoms: N_11  and  C_12
REMARK    7  A    between atoms: C_12  and  C_13
REMARK    8  A    between atoms: C_12  and  C_14
REMARK    9  A    between atoms: C_14  and  O_15
REMARK   10  A    between atoms: C_14  and  C_16
REMARK   11  A    between atoms: C_19  and  O_20
REMARK                            x       y       z     vdW  Elec       q    Type
REMARK                         _______ _______ _______ _____ _____    ______ ____
ROOT
ATOM      1  C   UNL     1       7.128  -4.857  24.749  0.00  0.00    +0.084 C 
ATOM      2  C   UNL     1       6.264  -5.569  25.802  0.00  0.00    +0.027 C 
ENDROOT
BRANCH   1   3
ATOM      3  N   UNL     1       7.022  -5.607  23.477  0.00  0.00    -0.305 NA
ATOM      4  H   UNL     1       7.814  -6.249  23.404  0.00  0.00    +0.123 HD
BRANCH   3   6
ATOM      5  C   UNL     1       6.448  -5.637  21.108  0.00  0.00    +0.027 C 
ATOM      6  C   UNL     1       6.960  -4.766  22.262  0.00  0.00    +0.088 C 
BRANCH   6   7
ATOM      7  C   UNL     1       6.039  -3.548  22.467  0.00  0.00    +0.247 C 
BRANCH   7   8
ATOM      8  O   UNL     1       6.730  -2.301  22.295  0.00  0.00    -0.490 OA
BRANCH   8   9
ATOM      9  C   UNL     1       6.391  -1.373  23.257  0.00  0.00    +0.121 A 
ATOM     10  C   UNL     1       5.676  -1.671  24.417  0.00  0.00    +0.045 A 
ATOM     11  C   UNL     1       5.390  -0.674  25.352  0.00  0.00    +0.004 A 
ATOM     12  C   UNL     1       5.809   0.630  25.118  0.00  0.00    +0.000 A 
ATOM     13  C   UNL     1       6.503   0.943  23.950  0.00  0.00    +0.004 A 
ATOM     14  C   UNL     1       6.788  -0.058  23.012  0.00  0.00    +0.045 A 
ENDBRANCH   8   9
ENDBRANCH   7   8
ENDBRANCH   6   7
ENDBRANCH   3   6
ENDBRANCH   1   3
BRANCH   1  15
ATOM     15  C   UNL     1       8.585  -4.557  25.237  0.00  0.00    +0.161 C 
BRANCH  15  16
ATOM     16  C   UNL     1       8.992  -3.094  25.210  0.00  0.00    -0.017 A 
ATOM     17  C   UNL     1       9.707  -2.549  24.133  0.00  0.00    +0.010 A 
ATOM     18  C   UNL     1      10.059  -1.201  24.112  0.00  0.00    +0.046 A 
ATOM     19  C   UNL     1       9.711  -0.385  25.183  0.00  0.00    +0.117 A 
ATOM     20  C   UNL     1       9.012  -0.898  26.268  0.00  0.00    +0.046 A 
ATOM     21  C   UNL     1       8.656  -2.249  26.283  0.00  0.00    +0.010 A 
BRANCH  19  22
ATOM     22  O   UNL     1      10.077   0.925  25.119  0.00  0.00    -0.507 OA
ATOM     23  H   UNL     1      10.922   0.994  24.646  0.00  0.00    +0.292 HD
ENDBRANCH  19  22
ENDBRANCH  15  16
BRANCH  15  24
ATOM     24  O   UNL     1       9.509  -5.363  24.499  0.00  0.00    -0.386 OA
ATOM     25  H   UNL     1      10.065  -5.844  25.132  0.00  0.00    +0.210 HD
ENDBRANCH  15  24
ENDBRANCH   1  15
TORSDOF 9
ENDMDL
MODEL 9
REMARK VINA RESULT:      -5.2      2.157      5.100
REMARK  Name = 
REMARK  11 active torsions:
REMARK  status: ('A' for Active; 'I' for Inactive)
REMARK    1  A    between atoms: C_1  and  C_2
REMARK    2  A    between atoms: C_2  and  C_3
REMARK    3  A    between atoms: C_2  and  N_11
REMARK    4  A    between atoms: C_3  and  O_4
REMARK    5  A    between atoms: O_4  and  C_5
REMARK    6  A    between atoms: N_11  and  C_12
REMARK    7  A    between atoms: C_12  and  C_13
REMARK    8  A    between atoms: C_12  and  C_14
REMARK    9  A    between atoms: C_14  and  O_15
REMARK   10  A    between atoms: C_14  and  C_16
REMARK   11  A    between atoms: C_19  and  O_20
REMARK                            x       y       z     vdW  Elec       q    Type
REMARK                         _______ _______ _______ _____ _____    ______ ____
ROOT
ATOM      1  C   UNL     1       8.764  -2.229  23.445  0.00  0.00    +0.084 C 
ATOM      2  C   UNL     1       7.726  -2.141  22.314  0.00  0.00    +0.027 C 
ENDROOT
BRANCH   1   3
ATOM      3  N   UNL     1       8.092  -1.890  24.720  0.00  0.00    -0.305 NA
ATOM      4  H   UNL     1       8.390  -0.958  25.013  0.00  0.00    +0.123 HD
BRANCH   3   6
ATOM      5  C   UNL     1       7.056  -2.912  26.676  0.00  0.00    +0.027 C 
ATOM      6  C   UNL     1       8.328  -2.850  25.820  0.00  0.00    +0.088 C 
BRANCH   6   7
ATOM      7  C   UNL     1       8.683  -4.249  25.282  0.00  0.00    +0.247 C 
BRANCH   7   8
ATOM      8  O   UNL     1       7.574  -5.159  25.344  0.00  0.00    -0.490 OA
BRANCH   8   9
ATOM      9  C   UNL     1       6.945  -5.309  24.127  0.00  0.00    +0.121 A 
ATOM     10  C   UNL     1       5.587  -5.073  23.910  0.00  0.00    +0.045 A 
ATOM     11  C   UNL     1       5.033  -5.229  22.639  0.00  0.00    +0.004 A 
ATOM     12  C   UNL     1       5.837  -5.637  21.581  0.00  0.00    +0.000 A 
ATOM     13  C   UNL     1       7.190  -5.899  21.793  0.00  0.00    +0.004 A 
ATOM     14  C   UNL     1       7.745  -5.743  23.069  0.00  0.00    +0.045 A 
ENDBRANCH   8   9
ENDBRANCH   7   8
ENDBRANCH   6   7
ENDBRANCH   3   6
ENDBRANCH   1   3
BRANCH   1  15
ATOM     15  C   UNL     1      10.081  -1.437  23.144  0.00  0.00    +0.161 C 
BRANCH  15  16
ATOM     16  C   UNL     1       9.950   0.075  23.159  0.00  0.00    -0.017 A 
ATOM     17  C   UNL     1       9.838   0.816  21.972  0.00  0.00    +0.010 A 
ATOM     18  C   UNL     1       9.700   2.203  22.001  0.00  0.00    +0.046 A 
ATOM     19  C   UNL     1       9.689   2.866  23.223  0.00  0.00    +0.117 A 
ATOM     20  C   UNL     1       9.809   2.160  24.414  0.00  0.00    +0.046 A 
ATOM     21  C   UNL     1       9.941   0.769  24.382  0.00  0.00    +0.010 A 
BRANCH  19  22
ATOM     22  O   UNL     1       9.554   4.220  23.202  0.00  0.00    -0.507 OA
ATOM     23  H   UNL     1       9.677   4.536  22.292  0.00  0.00    +0.292 HD
ENDBRANCH  19  22
ENDBRANCH  15  16
BRANCH  15  24
ATOM     24  O   UNL     1      10.637  -1.894  21.906  0.00  0.00    -0.386 OA
ATOM     25  H   UNL     1      11.588  -1.700  21.910  0.00  0.00    +0.210 HD
ENDBRANCH  15  24
ENDBRANCH   1  15
TORSDOF 9
ENDMDL
