MODEL 1
REMARK VINA RESULT:      -5.9      0.000      0.000
REMARK  Name = 
REMARK  9 active torsions:
REMARK  status: ('A' for Active; 'I' for Inactive)
REMARK    1  A    between atoms: C_4  and  S_5
REMARK    2  A    between atoms: S_5  and  C_6
REMARK    3  A    between atoms: C_6  and  C_7
REMARK    4  A    between atoms: C_7  and  N_8
REMARK    5  A    between atoms: C_11  and  C_21
REMARK    6  A    between atoms: C_15  and  C_17
REMARK    7  A    between atoms: C_17  and  C_19
REMARK    8  A    between atoms: C_17  and  O_20
REMARK    9  A    between atoms: C_21  and  O_22
REMARK                            x       y       z     vdW  Elec       q    Type
REMARK                         _______ _______ _______ _____ _____    ______ ____
ROOT
ATOM      1  C   UNL     1       7.769   1.213  24.026  0.00  0.00    +0.101 C 
ATOM      2  C   UNL     1       8.022   2.242  22.883  0.00  0.00    +0.125 C 
ATOM      3  C   UNL     1       9.303   1.438  22.623  0.00  0.00    +0.228 C 
ATOM      4  O   UNL     1      10.194   1.419  21.799  0.00  0.00    -0.275 OA
ATOM      5  N   UNL     1       9.024   0.525  23.600  0.00  0.00    -0.260 N 
ATOM      6  C   UNL     1       8.715  -0.786  23.246  0.00  0.00    +0.131 C 
ATOM      7  C   UNL     1       7.407  -1.057  23.426  0.00  0.00    +0.016 C 
ATOM      8  C   UNL     1       6.669   0.166  23.917  0.00  0.00    +0.068 C 
ENDROOT
BRANCH   2   9
ATOM      9  C   UNL     1       8.211   3.689  23.298  0.00  0.00    +0.125 C 
ATOM     10  C   UNL     1       7.902   3.878  24.777  0.00  0.00    +0.038 C 
BRANCH   9  11
ATOM     11  O   UNL     1       9.573   4.029  23.049  0.00  0.00    -0.391 OA
ATOM     12  H   UNL     1      10.096   3.206  23.046  0.00  0.00    +0.210 HD
ENDBRANCH   9  11
ENDBRANCH   2   9
BRANCH   6  13
ATOM     13  C   UNL     1       9.769  -1.701  22.703  0.00  0.00    +0.352 C 
ATOM     14  O   UNL     1      10.383  -2.512  23.378  0.00  0.00    -0.244 OA
BRANCH  13  15
ATOM     15  O   UNL     1      10.071  -1.525  21.398  0.00  0.00    -0.476 OA
ATOM     16  H   UNL     1       9.353  -1.723  20.756  0.00  0.00    +0.295 HD
ENDBRANCH  13  15
ENDBRANCH   6  13
BRANCH   7  17
ATOM     17  S   UNL     1       6.471  -2.423  22.963  0.00  0.00    -0.126 S 
BRANCH  17  18
ATOM     18  C   UNL     1       6.955  -3.762  24.094  0.00  0.00    +0.097 C 
BRANCH  18  19
ATOM     19  C   UNL     1       7.382  -5.074  23.438  0.00  0.00    +0.154 C 
BRANCH  19  20
ATOM     20  N   UNL     1       8.726  -5.449  23.921  0.00  0.00    -0.276 NA
ATOM     21  C   UNL     1       8.930  -5.173  25.158  0.00  0.00    +0.172 C 
ATOM     22  N   UNL     1      10.089  -5.452  25.799  0.00  0.00    -0.349 N 
ATOM     23  H   UNL     1      10.303  -4.993  26.675  0.00  0.00    +0.143 HD
ATOM     24  H   UNL     1      10.877  -5.680  25.206  0.00  0.00    +0.143 HD
ENDBRANCH  19  20
ENDBRANCH  18  19
ENDBRANCH  17  18
ENDBRANCH   7  17
TORSDOF 8
ENDMDL
MODEL 2
REMARK VINA RESULT:      -5.9      3.156      5.586
REMARK  Name = 
REMARK  9 active torsions:
REMARK  status: ('A' for Active; 'I' for Inactive)
REMARK    1  A    between atoms: C_4  and  S_5
REMARK    2  A    between atoms: S_5  and  C_6
REMARK    3  A    between atoms: C_6  and  C_7
REMARK    4  A    between atoms: C_7  and  N_8
REMARK    5  A    between atoms: C_11  and  C_21
REMARK    6  A    between atoms: C_15  and  C_17
REMARK    7  A    between atoms: C_17  and  C_19
REMARK    8  A    between atoms: C_17  and  O_20
REMARK    9  A    between atoms: C_21  and  O_22
REMARK                            x       y       z     vdW  Elec       q    Type
REMARK                         _______ _______ _______ _____ _____    ______ ____
ROOT
ATOM      1  C   UNL     1       5.987  -3.526  22.656  0.00  0.00    +0.101 C 
ATOM      2  C   UNL     1       5.991  -4.872  23.442  0.00  0.00    +0.125 C 
ATOM      3  C   UNL     1       7.493  -4.897  23.130  0.00  0.00    +0.228 C 
ATOM      4  O   UNL     1       8.456  -5.573  23.427  0.00  0.00    -0.275 OA
ATOM      5  N   UNL     1       7.462  -3.690  22.491  0.00  0.00    -0.260 N 
ATOM      6  C   UNL     1       8.099  -2.592  23.065  0.00  0.00    +0.131 C 
ATOM      7  C   UNL     1       7.215  -1.702  23.557  0.00  0.00    +0.016 C 
ATOM      8  C   UNL     1       5.799  -2.194  23.370  0.00  0.00    +0.068 C 
ENDROOT
BRANCH   2   9
ATOM      9  C   UNL     1       5.165  -6.004  22.860  0.00  0.00    +0.125 C 
ATOM     10  C   UNL     1       3.680  -5.783  23.116  0.00  0.00    +0.038 C 
BRANCH   9  11
ATOM     11  O   UNL     1       5.407  -6.028  21.455  0.00  0.00    -0.391 OA
ATOM     12  H   UNL     1       6.368  -6.114  21.313  0.00  0.00    +0.210 HD
ENDBRANCH   9  11
ENDBRANCH   2   9
BRANCH   6  13
ATOM     13  C   UNL     1       9.594  -2.517  23.119  0.00  0.00    +0.352 C 
ATOM     14  O   UNL     1      10.276  -1.911  22.308  0.00  0.00    -0.244 OA
BRANCH  13  15
ATOM     15  O   UNL     1      10.175  -3.242  24.100  0.00  0.00    -0.476 OA
ATOM     16  H   UNL     1      10.089  -4.219  24.025  0.00  0.00    +0.295 HD
ENDBRANCH  13  15
ENDBRANCH   6  13
BRANCH   7  17
ATOM     17  S   UNL     1       7.454  -0.305  24.531  0.00  0.00    -0.126 S 
BRANCH  17  18
ATOM     18  C   UNL     1       8.143  -0.909  26.101  0.00  0.00    +0.097 C 
BRANCH  18  19
ATOM     19  C   UNL     1       7.474  -2.147  26.696  0.00  0.00    +0.154 C 
BRANCH  19  20
ATOM     20  N   UNL     1       8.369  -3.311  26.539  0.00  0.00    -0.276 NA
ATOM     21  C   UNL     1       7.790  -4.441  26.729  0.00  0.00    +0.172 C 
ATOM     22  N   UNL     1       8.428  -5.629  26.615  0.00  0.00    -0.349 N 
ATOM     23  H   UNL     1       8.020  -6.461  27.022  0.00  0.00    +0.143 HD
ATOM     24  H   UNL     1       9.440  -5.587  26.599  0.00  0.00    +0.143 HD
ENDBRANCH  19  20
ENDBRANCH  18  19
ENDBRANCH  17  18
ENDBRANCH   7  17
TORSDOF 8
ENDMDL
MODEL 3
REMARK VINA RESULT:      -5.9      3.682      7.073
REMARK  Name = 
REMARK  9 active torsions:
REMARK  status: ('A' for Active; 'I' for Inactive)
REMARK    1  A    between atoms: C_4  and  S_5
REMARK    2  A    between atoms: S_5  and  C_6
REMARK    3  A    between atoms: C_6  and  C_7
REMARK    4  A    between atoms: C_7  and  N_8
REMARK    5  A    between atoms: C_11  and  C_21
REMARK    6  A    between atoms: C_15  and  C_17
REMARK    7  A    between atoms: C_17  and  C_19
REMARK    8  A    between atoms: C_17  and  O_20
REMARK    9  A    between atoms: C_21  and  O_22
REMARK                            x       y       z     vdW  Elec       q    Type
REMARK                         _______ _______ _______ _____ _____    ______ ____
ROOT
ATOM      1  C   UNL     1       5.801  -4.788  23.596  0.00  0.00    +0.101 C 
ATOM      2  C   UNL     1       4.831  -5.217  24.737  0.00  0.00    +0.125 C 
ATOM      3  C   UNL     1       6.086  -5.786  25.410  0.00  0.00    +0.228 C 
ATOM      4  O   UNL     1       6.379  -6.287  26.476  0.00  0.00    -0.275 OA
ATOM      5  N   UNL     1       6.915  -5.352  24.415  0.00  0.00    -0.260 N 
ATOM      6  C   UNL     1       7.831  -4.336  24.679  0.00  0.00    +0.131 C 
ATOM      7  C   UNL     1       7.472  -3.175  24.096  0.00  0.00    +0.016 C 
ATOM      8  C   UNL     1       6.157  -3.325  23.369  0.00  0.00    +0.068 C 
ENDROOT
BRANCH   2   9
ATOM      9  C   UNL     1       3.750  -6.219  24.373  0.00  0.00    +0.125 C 
ATOM     10  C   UNL     1       3.036  -5.809  23.093  0.00  0.00    +0.038 C 
BRANCH   9  11
ATOM     11  O   UNL     1       4.388  -7.479  24.180  0.00  0.00    -0.391 OA
ATOM     12  H   UNL     1       3.721  -8.111  23.855  0.00  0.00    +0.210 HD
ENDBRANCH   9  11
ENDBRANCH   2   9
BRANCH   6  13
ATOM     13  C   UNL     1       9.023  -4.588  25.550  0.00  0.00    +0.352 C 
ATOM     14  O   UNL     1       9.085  -4.277  26.729  0.00  0.00    -0.244 OA
BRANCH  13  15
ATOM     15  O   UNL     1      10.093  -5.127  24.925  0.00  0.00    -0.476 OA
ATOM     16  H   UNL     1      10.974  -4.879  25.284  0.00  0.00    +0.295 HD
ENDBRANCH  13  15
ENDBRANCH   6  13
BRANCH   7  17
ATOM     17  S   UNL     1       8.117  -1.590  24.265  0.00  0.00    -0.126 S 
BRANCH  17  18
ATOM     18  C   UNL     1       9.694  -1.598  23.360  0.00  0.00    +0.097 C 
BRANCH  18  19
ATOM     19  C   UNL     1       9.596  -1.503  21.839  0.00  0.00    +0.154 C 
BRANCH  19  20
ATOM     20  N   UNL     1       9.191  -0.134  21.458  0.00  0.00    -0.276 NA
ATOM     21  C   UNL     1       9.962   0.783  21.919  0.00  0.00    +0.172 C 
ATOM     22  N   UNL     1       9.777   2.101  21.671  0.00  0.00    -0.349 N 
ATOM     23  H   UNL     1      10.234   2.791  22.252  0.00  0.00    +0.143 HD
ATOM     24  H   UNL     1       8.871   2.356  21.296  0.00  0.00    +0.143 HD
ENDBRANCH  19  20
ENDBRANCH  18  19
ENDBRANCH  17  18
ENDBRANCH   7  17
TORSDOF 8
ENDMDL
MODEL 4
REMARK VINA RESULT:      -5.8      3.634      6.988
REMARK  Name = 
REMARK  9 active torsions:
REMARK  status: ('A' for Active; 'I' for Inactive)
REMARK    1  A    between atoms: C_4  and  S_5
REMARK    2  A    between atoms: S_5  and  C_6
REMARK    3  A    between atoms: C_6  and  C_7
REMARK    4  A    between atoms: C_7  and  N_8
REMARK    5  A    between atoms: C_11  and  C_21
REMARK    6  A    between atoms: C_15  and  C_17
REMARK    7  A    between atoms: C_17  and  C_19
REMARK    8  A    between atoms: C_17  and  O_20
REMARK    9  A    between atoms: C_21  and  O_22
REMARK                            x       y       z     vdW  Elec       q    Type
REMARK                         _______ _______ _______ _____ _____    ______ ____
ROOT
ATOM      1  C   UNL     1       7.491  -4.334  22.611  0.00  0.00    +0.101 C 
ATOM      2  C   UNL     1       6.039  -4.612  23.102  0.00  0.00    +0.125 C 
ATOM      3  C   UNL     1       6.714  -5.302  24.294  0.00  0.00    +0.228 C 
ATOM      4  O   UNL     1       6.376  -5.800  25.347  0.00  0.00    -0.275 OA
ATOM      5  N   UNL     1       7.973  -4.998  23.859  0.00  0.00    -0.260 N 
ATOM      6  C   UNL     1       8.746  -4.088  24.577  0.00  0.00    +0.131 C 
ATOM      7  C   UNL     1       8.864  -2.912  23.929  0.00  0.00    +0.016 C 
ATOM      8  C   UNL     1       8.080  -2.930  22.638  0.00  0.00    +0.068 C 
ENDROOT
BRANCH   2   9
ATOM      9  C   UNL     1       5.176  -5.492  22.217  0.00  0.00    +0.125 C 
ATOM     10  C   UNL     1       5.953  -5.967  20.996  0.00  0.00    +0.038 C 
BRANCH   9  11
ATOM     11  O   UNL     1       4.780  -6.619  22.995  0.00  0.00    -0.391 OA
ATOM     12  H   UNL     1       3.818  -6.566  23.141  0.00  0.00    +0.210 HD
ENDBRANCH   9  11
ENDBRANCH   2   9
BRANCH   6  13
ATOM     13  C   UNL     1       9.305  -4.450  25.918  0.00  0.00    +0.352 C 
ATOM     14  O   UNL     1       8.947  -3.939  26.967  0.00  0.00    -0.244 OA
BRANCH  13  15
ATOM     15  O   UNL     1      10.316  -5.346  25.900  0.00  0.00    -0.476 OA
ATOM     16  H   UNL     1      10.055  -6.293  25.855  0.00  0.00    +0.295 HD
ENDBRANCH  13  15
ENDBRANCH   6  13
BRANCH   7  17
ATOM     17  S   UNL     1       9.518  -1.408  24.446  0.00  0.00    -0.126 S 
BRANCH  17  18
ATOM     18  C   UNL     1      10.202  -0.626  22.955  0.00  0.00    +0.097 C 
BRANCH  18  19
ATOM     19  C   UNL     1       9.331   0.444  22.299  0.00  0.00    +0.154 C 
BRANCH  19  20
ATOM     20  N   UNL     1      10.146   1.648  22.039  0.00  0.00    -0.276 NA
ATOM     21  C   UNL     1      10.277   2.418  23.057  0.00  0.00    +0.172 C 
ATOM     22  N   UNL     1      11.000   3.562  23.035  0.00  0.00    -0.349 N 
ATOM     23  H   UNL     1      10.864   4.258  23.757  0.00  0.00    +0.143 HD
ATOM     24  H   UNL     1      11.247   3.909  22.116  0.00  0.00    +0.143 HD
ENDBRANCH  19  20
ENDBRANCH  18  19
ENDBRANCH  17  18
ENDBRANCH   7  17
TORSDOF 8
ENDMDL
MODEL 5
REMARK VINA RESULT:      -5.7      3.238      4.796
REMARK  Name = 
REMARK  9 active torsions:
REMARK  status: ('A' for Active; 'I' for Inactive)
REMARK    1  A    between atoms: C_4  and  S_5
REMARK    2  A    between atoms: S_5  and  C_6
REMARK    3  A    between atoms: C_6  and  C_7
REMARK    4  A    between atoms: C_7  and  N_8
REMARK    5  A    between atoms: C_11  and  C_21
REMARK    6  A    between atoms: C_15  and  C_17
REMARK    7  A    between atoms: C_17  and  C_19
REMARK    8  A    between atoms: C_17  and  O_20
REMARK    9  A    between atoms: C_21  and  O_22
REMARK                            x       y       z     vdW  Elec       q    Type
REMARK                         _______ _______ _______ _____ _____    ______ ____
ROOT
ATOM      1  C   UNL     1       7.151  -2.379  23.399  0.00  0.00    +0.101 C 
ATOM      2  C   UNL     1       8.431  -2.613  22.542  0.00  0.00    +0.125 C 
ATOM      3  C   UNL     1       9.069  -3.071  23.860  0.00  0.00    +0.228 C 
ATOM      4  O   UNL     1      10.114  -3.570  24.220  0.00  0.00    -0.275 OA
ATOM      5  N   UNL     1       7.915  -2.901  24.570  0.00  0.00    -0.260 N 
ATOM      6  C   UNL     1       7.249  -4.017  25.074  0.00  0.00    +0.131 C 
ATOM      7  C   UNL     1       6.111  -4.268  24.396  0.00  0.00    +0.016 C 
ATOM      8  C   UNL     1       5.933  -3.283  23.265  0.00  0.00    +0.068 C 
ENDROOT
BRANCH   2   9
ATOM      9  C   UNL     1       9.047  -1.391  21.886  0.00  0.00    +0.125 C 
ATOM     10  C   UNL     1       8.801  -0.142  22.723  0.00  0.00    +0.038 C 
BRANCH   9  11
ATOM     11  O   UNL     1      10.449  -1.626  21.783  0.00  0.00    -0.391 OA
ATOM     12  H   UNL     1      10.839  -1.537  22.672  0.00  0.00    +0.210 HD
ENDBRANCH   9  11
ENDBRANCH   2   9
BRANCH   6  13
ATOM     13  C   UNL     1       7.824  -4.802  26.212  0.00  0.00    +0.352 C 
ATOM     14  O   UNL     1       7.546  -4.610  27.384  0.00  0.00    -0.244 OA
BRANCH  13  15
ATOM     15  O   UNL     1       8.759  -5.716  25.869  0.00  0.00    -0.476 OA
ATOM     16  H   UNL     1       8.421  -6.582  25.548  0.00  0.00    +0.295 HD
ENDBRANCH  13  15
ENDBRANCH   6  13
BRANCH   7  17
ATOM     17  S   UNL     1       5.040  -5.612  24.463  0.00  0.00    -0.126 S 
BRANCH  17  18
ATOM     18  C   UNL     1       4.057  -5.386  25.975  0.00  0.00    +0.097 C 
BRANCH  18  19
ATOM     19  C   UNL     1       3.879  -6.626  26.851  0.00  0.00    +0.154 C 
BRANCH  19  20
ATOM     20  N   UNL     1       5.197  -7.062  27.356  0.00  0.00    -0.276 NA
ATOM     21  C   UNL     1       5.393  -6.793  28.595  0.00  0.00    +0.172 C 
ATOM     22  N   UNL     1       6.527  -7.125  29.256  0.00  0.00    -0.349 N 
ATOM     23  H   UNL     1       6.749  -6.673  30.134  0.00  0.00    +0.143 HD
ATOM     24  H   UNL     1       7.314  -7.390  28.675  0.00  0.00    +0.143 HD
ENDBRANCH  19  20
ENDBRANCH  18  19
ENDBRANCH  17  18
ENDBRANCH   7  17
TORSDOF 8
ENDMDL
MODEL 6
REMARK VINA RESULT:      -5.5      2.496      6.409
REMARK  Name = 
REMARK  9 active torsions:
REMARK  status: ('A' for Active; 'I' for Inactive)
REMARK    1  A    between atoms: C_4  and  S_5
REMARK    2  A    between atoms: S_5  and  C_6
REMARK    3  A    between atoms: C_6  and  C_7
REMARK    4  A    between atoms: C_7  and  N_8
REMARK    5  A    between atoms: C_11  and  C_21
REMARK    6  A    between atoms: C_15  and  C_17
REMARK    7  A    between atoms: C_17  and  C_19
REMARK    8  A    between atoms: C_17  and  O_20
REMARK    9  A    between atoms: C_21  and  O_22
REMARK                            x       y       z     vdW  Elec       q    Type
REMARK                         _______ _______ _______ _____ _____    ______ ____
ROOT
ATOM      1  C   UNL     1       5.749  -3.488  23.148  0.00  0.00    +0.101 C 
ATOM      2  C   UNL     1       5.906  -4.929  23.718  0.00  0.00    +0.125 C 
ATOM      3  C   UNL     1       7.323  -4.864  23.133  0.00  0.00    +0.228 C 
ATOM      4  O   UNL     1       8.327  -5.545  23.146  0.00  0.00    -0.275 OA
ATOM      5  N   UNL     1       7.167  -3.581  22.690  0.00  0.00    -0.260 N 
ATOM      6  C   UNL     1       7.896  -2.555  23.287  0.00  0.00    +0.131 C 
ATOM      7  C   UNL     1       7.116  -1.770  24.056  0.00  0.00    +0.016 C 
ATOM      8  C   UNL     1       5.693  -2.275  24.067  0.00  0.00    +0.068 C 
ENDROOT
BRANCH   2   9
ATOM      9  C   UNL     1       4.991  -5.994  23.144  0.00  0.00    +0.125 C 
ATOM     10  C   UNL     1       3.529  -5.588  23.280  0.00  0.00    +0.038 C 
BRANCH   9  11
ATOM     11  O   UNL     1       5.318  -6.136  21.763  0.00  0.00    -0.391 OA
ATOM     12  H   UNL     1       4.746  -5.535  21.252  0.00  0.00    +0.210 HD
ENDBRANCH   9  11
ENDBRANCH   2   9
BRANCH   6  13
ATOM     13  C   UNL     1       9.374  -2.441  23.073  0.00  0.00    +0.352 C 
ATOM     14  O   UNL     1       9.885  -1.840  22.142  0.00  0.00    -0.244 OA
BRANCH  13  15
ATOM     15  O   UNL     1      10.140  -3.127  23.950  0.00  0.00    -0.476 OA
ATOM     16  H   UNL     1      10.837  -2.610  24.413  0.00  0.00    +0.295 HD
ENDBRANCH  13  15
ENDBRANCH   6  13
BRANCH   7  17
ATOM     17  S   UNL     1       7.528  -0.516  25.158  0.00  0.00    -0.126 S 
BRANCH  17  18
ATOM     18  C   UNL     1       7.723   0.985  24.151  0.00  0.00    +0.097 C 
BRANCH  18  19
ATOM     19  C   UNL     1       7.069   0.956  22.771  0.00  0.00    +0.154 C 
BRANCH  19  20
ATOM     20  N   UNL     1       8.013   1.491  21.769  0.00  0.00    -0.276 NA
ATOM     21  C   UNL     1       9.178   1.752  22.241  0.00  0.00    +0.172 C 
ATOM     22  N   UNL     1      10.193   2.233  21.485  0.00  0.00    -0.349 N 
ATOM     23  H   UNL     1      10.992   2.665  21.931  0.00  0.00    +0.143 HD
ATOM     24  H   UNL     1       9.932   2.598  20.577  0.00  0.00    +0.143 HD
ENDBRANCH  19  20
ENDBRANCH  18  19
ENDBRANCH  17  18
ENDBRANCH   7  17
TORSDOF 8
ENDMDL
MODEL 7
REMARK VINA RESULT:      -5.5      2.316      2.777
REMARK  Name = 
REMARK  9 active torsions:
REMARK  status: ('A' for Active; 'I' for Inactive)
REMARK    1  A    between atoms: C_4  and  S_5
REMARK    2  A    between atoms: S_5  and  C_6
REMARK    3  A    between atoms: C_6  and  C_7
REMARK    4  A    between atoms: C_7  and  N_8
REMARK    5  A    between atoms: C_11  and  C_21
REMARK    6  A    between atoms: C_15  and  C_17
REMARK    7  A    between atoms: C_17  and  C_19
REMARK    8  A    between atoms: C_17  and  O_20
REMARK    9  A    between atoms: C_21  and  O_22
REMARK                            x       y       z     vdW  Elec       q    Type
REMARK                         _______ _______ _______ _____ _____    ______ ____
ROOT
ATOM      1  C   UNL     1       9.205   0.538  24.664  0.00  0.00    +0.101 C 
ATOM      2  C   UNL     1       8.748   1.045  23.264  0.00  0.00    +0.125 C 
ATOM      3  C   UNL     1       9.292  -0.293  22.748  0.00  0.00    +0.228 C 
ATOM      4  O   UNL     1       9.309  -0.907  21.701  0.00  0.00    -0.275 OA
ATOM      5  N   UNL     1       9.634  -0.727  23.997  0.00  0.00    -0.260 N 
ATOM      6  C   UNL     1       8.939  -1.790  24.570  0.00  0.00    +0.131 C 
ATOM      7  C   UNL     1       8.128  -1.379  25.565  0.00  0.00    +0.016 C 
ATOM      8  C   UNL     1       8.193   0.122  25.723  0.00  0.00    +0.068 C 
ENDROOT
BRANCH   2   9
ATOM      9  C   UNL     1       9.428   2.295  22.735  0.00  0.00    +0.125 C 
ATOM     10  C   UNL     1      10.613   2.682  23.609  0.00  0.00    +0.038 C 
BRANCH   9  11
ATOM     11  O   UNL     1       9.884   2.004  21.416  0.00  0.00    -0.391 OA
ATOM     12  H   UNL     1       9.150   2.168  20.796  0.00  0.00    +0.210 HD
ENDBRANCH   9  11
ENDBRANCH   2   9
BRANCH   6  13
ATOM     13  C   UNL     1       9.108  -3.183  24.049  0.00  0.00    +0.352 C 
ATOM     14  O   UNL     1       9.993  -3.943  24.406  0.00  0.00    -0.244 OA
BRANCH  13  15
ATOM     15  O   UNL     1       8.247  -3.544  23.072  0.00  0.00    -0.476 OA
ATOM     16  H   UNL     1       8.649  -3.912  22.254  0.00  0.00    +0.295 HD
ENDBRANCH  13  15
ENDBRANCH   6  13
BRANCH   7  17
ATOM     17  S   UNL     1       6.919  -2.225  26.448  0.00  0.00    -0.126 S 
BRANCH  17  18
ATOM     18  C   UNL     1       5.604  -2.601  25.250  0.00  0.00    +0.097 C 
BRANCH  18  19
ATOM     19  C   UNL     1       5.248  -4.078  25.087  0.00  0.00    +0.154 C 
BRANCH  19  20
ATOM     20  N   UNL     1       5.394  -4.464  23.669  0.00  0.00    -0.276 NA
ATOM     21  C   UNL     1       5.482  -5.731  23.481  0.00  0.00    +0.172 C 
ATOM     22  N   UNL     1       5.602  -6.292  22.255  0.00  0.00    -0.349 N 
ATOM     23  H   UNL     1       5.927  -7.247  22.169  0.00  0.00    +0.143 HD
ATOM     24  H   UNL     1       5.853  -5.661  21.504  0.00  0.00    +0.143 HD
ENDBRANCH  19  20
ENDBRANCH  18  19
ENDBRANCH  17  18
ENDBRANCH   7  17
TORSDOF 8
ENDMDL
MODEL 8
REMARK VINA RESULT:      -5.4      1.893      2.399
REMARK  Name = 
REMARK  9 active torsions:
REMARK  status: ('A' for Active; 'I' for Inactive)
REMARK    1  A    between atoms: C_4  and  S_5
REMARK    2  A    between atoms: S_5  and  C_6
REMARK    3  A    between atoms: C_6  and  C_7
REMARK    4  A    between atoms: C_7  and  N_8
REMARK    5  A    between atoms: C_11  and  C_21
REMARK    6  A    between atoms: C_15  and  C_17
REMARK    7  A    between atoms: C_17  and  C_19
REMARK    8  A    between atoms: C_17  and  O_20
REMARK    9  A    between atoms: C_21  and  O_22
REMARK                            x       y       z     vdW  Elec       q    Type
REMARK                         _______ _______ _______ _____ _____    ______ ____
ROOT
ATOM      1  C   UNL     1       8.648   0.224  24.391  0.00  0.00    +0.101 C 
ATOM      2  C   UNL     1       8.638   1.008  23.044  0.00  0.00    +0.125 C 
ATOM      3  C   UNL     1       9.034  -0.334  22.413  0.00  0.00    +0.228 C 
ATOM      4  O   UNL     1       9.186  -0.786  21.297  0.00  0.00    -0.275 OA
ATOM      5  N   UNL     1       8.984  -1.000  23.604  0.00  0.00    -0.260 N 
ATOM      6  C   UNL     1       7.990  -1.952  23.817  0.00  0.00    +0.131 C 
ATOM      7  C   UNL     1       7.055  -1.515  24.684  0.00  0.00    +0.016 C 
ATOM      8  C   UNL     1       7.354  -0.101  25.125  0.00  0.00    +0.068 C 
ENDROOT
BRANCH   2   9
ATOM      9  C   UNL     1       9.641   2.138  22.905  0.00  0.00    +0.125 C 
ATOM     10  C   UNL     1      10.775   1.987  23.910  0.00  0.00    +0.038 C 
BRANCH   9  11
ATOM     11  O   UNL     1      10.168   2.077  21.581  0.00  0.00    -0.391 OA
ATOM     12  H   UNL     1      11.117   2.298  21.620  0.00  0.00    +0.210 HD
ENDBRANCH   9  11
ENDBRANCH   2   9
BRANCH   6  13
ATOM     13  C   UNL     1       8.019  -3.263  23.094  0.00  0.00    +0.352 C 
ATOM     14  O   UNL     1       7.343  -3.515  22.109  0.00  0.00    -0.244 OA
BRANCH  13  15
ATOM     15  O   UNL     1       8.801  -4.214  23.652  0.00  0.00    -0.476 OA
ATOM     16  H   UNL     1       8.357  -5.063  23.876  0.00  0.00    +0.295 HD
ENDBRANCH  13  15
ENDBRANCH   6  13
BRANCH   7  17
ATOM     17  S   UNL     1       5.537  -2.187  25.130  0.00  0.00    -0.126 S 
BRANCH  17  18
ATOM     18  C   UNL     1       5.827  -3.074  26.690  0.00  0.00    +0.097 C 
BRANCH  18  19
ATOM     19  C   UNL     1       5.838  -4.599  26.603  0.00  0.00    +0.154 C 
BRANCH  19  20
ATOM     20  N   UNL     1       7.133  -5.049  26.054  0.00  0.00    -0.276 NA
ATOM     21  C   UNL     1       8.139  -4.776  26.803  0.00  0.00    +0.172 C 
ATOM     22  N   UNL     1       9.411  -5.119  26.491  0.00  0.00    -0.349 N 
ATOM     23  H   UNL     1      10.184  -4.666  26.961  0.00  0.00    +0.143 HD
ATOM     24  H   UNL     1       9.570  -5.398  25.530  0.00  0.00    +0.143 HD
ENDBRANCH  19  20
ENDBRANCH  18  19
ENDBRANCH  17  18
ENDBRANCH   7  17
TORSDOF 8
ENDMDL
MODEL 9
REMARK VINA RESULT:      -5.4      2.854      3.443
REMARK  Name = 
REMARK  9 active torsions:
REMARK  status: ('A' for Active; 'I' for Inactive)
REMARK    1  A    between atoms: C_4  and  S_5
REMARK    2  A    between atoms: S_5  and  C_6
REMARK    3  A    between atoms: C_6  and  C_7
REMARK    4  A    between atoms: C_7  and  N_8
REMARK    5  A    between atoms: C_11  and  C_21
REMARK    6  A    between atoms: C_15  and  C_17
REMARK    7  A    between atoms: C_17  and  C_19
REMARK    8  A    between atoms: C_17  and  O_20
REMARK    9  A    between atoms: C_21  and  O_22
REMARK                            x       y       z     vdW  Elec       q    Type
REMARK                         _______ _______ _______ _____ _____    ______ ____
ROOT
ATOM      1  C   UNL     1       8.682  -0.732  22.757  0.00  0.00    +0.101 C 
ATOM      2  C   UNL     1       9.813   0.338  22.779  0.00  0.00    +0.125 C 
ATOM      3  C   UNL     1       9.251   0.712  24.157  0.00  0.00    +0.228 C 
ATOM      4  O   UNL     1       9.550   1.447  25.075  0.00  0.00    -0.275 OA
ATOM      5  N   UNL     1       8.302  -0.270  24.125  0.00  0.00    -0.260 N 
ATOM      6  C   UNL     1       8.400  -1.349  25.002  0.00  0.00    +0.131 C 
ATOM      7  C   UNL     1       8.763  -2.480  24.365  0.00  0.00    +0.016 C 
ATOM      8  C   UNL     1       8.994  -2.217  22.896  0.00  0.00    +0.068 C 
ENDROOT
BRANCH   2   9
ATOM      9  C   UNL     1       9.753   1.417  21.714  0.00  0.00    +0.125 C 
ATOM     10  C   UNL     1       8.311   1.747  21.353  0.00  0.00    +0.038 C 
BRANCH   9  11
ATOM     11  O   UNL     1      10.387   2.577  22.249  0.00  0.00    -0.391 OA
ATOM     12  H   UNL     1      10.789   2.338  23.104  0.00  0.00    +0.210 HD
ENDBRANCH   9  11
ENDBRANCH   2   9
BRANCH   6  13
ATOM     13  C   UNL     1       8.152  -1.168  26.467  0.00  0.00    +0.352 C 
ATOM     14  O   UNL     1       7.091  -1.417  27.016  0.00  0.00    -0.244 OA
BRANCH  13  15
ATOM     15  O   UNL     1       9.174  -0.622  27.164  0.00  0.00    -0.476 OA
ATOM     16  H   UNL     1       9.353  -1.014  28.048  0.00  0.00    +0.295 HD
ENDBRANCH  13  15
ENDBRANCH   6  13
BRANCH   7  17
ATOM     17  S   UNL     1       9.221  -4.017  24.984  0.00  0.00    -0.126 S 
BRANCH  17  18
ATOM     18  C   UNL     1       7.856  -5.144  24.571  0.00  0.00    +0.097 C 
BRANCH  18  19
ATOM     19  C   UNL     1       6.582  -4.986  25.399  0.00  0.00    +0.154 C 
BRANCH  19  20
ATOM     20  N   UNL     1       6.585  -5.974  26.497  0.00  0.00    -0.276 NA
ATOM     21  C   UNL     1       5.413  -6.343  26.868  0.00  0.00    +0.172 C 
ATOM     22  N   UNL     1       5.197  -7.253  27.846  0.00  0.00    -0.349 N 
ATOM     23  H   UNL     1       4.286  -7.318  28.281  0.00  0.00    +0.143 HD
ATOM     24  H   UNL     1       5.993  -7.465  28.436  0.00  0.00    +0.143 HD
ENDBRANCH  19  20
ENDBRANCH  18  19
ENDBRANCH  17  18
ENDBRANCH   7  17
TORSDOF 8
ENDMDL
