MODEL 1
REMARK VINA RESULT:      -3.6      0.000      0.000
REMARK  Name = 
REMARK  4 active torsions:
REMARK  status: ('A' for Active; 'I' for Inactive)
REMARK    1  A    between atoms: C_1  and  C_2
REMARK    2  A    between atoms: CA_3  and  N_4
REMARK    3  A    between atoms: CA_3  and  C_5
REMARK    4  A    between atoms: C_5  and  O_6
REMARK                            x       y       z     vdW  Elec       q    Type
REMARK                         _______ _______ _______ _____ _____    ______ ____
ROOT
ATOM      1  C   UNL     1       5.541  -5.555  25.769  0.00  0.00    +0.037 C 
ATOM      2  C   UNL     1       6.858  -5.173  25.170  0.00  0.00    -0.000 C 
ATOM      3  CA  UNL     1       8.038  -5.253  25.815  0.00  0.00    +0.105 C 
ENDROOT
BRANCH   3   4
ATOM      4  N   UNL     1       8.185  -5.774  27.094  0.00  0.00    -0.353 N 
ATOM      5  H1  UNL     1       8.627  -5.081  27.705  0.00  0.00    +0.143 HD
ATOM      6  H2  UNL     1       8.689  -6.656  27.110  0.00  0.00    +0.143 HD
ENDBRANCH   3   4
BRANCH   3   7
ATOM      7  C   UNL     1       9.320  -4.877  25.106  0.00  0.00    +0.350 C 
ATOM      8  OXT UNL     1       9.353  -3.979  24.272  0.00  0.00    -0.244 OA
BRANCH   7   9
ATOM      9  O   UNL     1      10.391  -5.623  25.432  0.00  0.00    -0.476 OA
ATOM     10  H   UNL     1      10.215  -6.243  26.162  0.00  0.00    +0.295 HD
ENDBRANCH   7   9
ENDBRANCH   3   7
TORSDOF 3
ENDMDL
MODEL 2
REMARK VINA RESULT:      -3.5      6.969      7.480
REMARK  Name = 
REMARK  4 active torsions:
REMARK  status: ('A' for Active; 'I' for Inactive)
REMARK    1  A    between atoms: C_1  and  C_2
REMARK    2  A    between atoms: CA_3  and  N_4
REMARK    3  A    between atoms: CA_3  and  C_5
REMARK    4  A    between atoms: C_5  and  O_6
REMARK                            x       y       z     vdW  Elec       q    Type
REMARK                         _______ _______ _______ _____ _____    ______ ____
ROOT
ATOM      1  C   UNL     1       7.292   2.821  21.882  0.00  0.00    +0.037 C 
ATOM      2  C   UNL     1       7.948   1.480  21.985  0.00  0.00    -0.000 C 
ATOM      3  CA  UNL     1       9.272   1.269  21.862  0.00  0.00    +0.105 C 
ENDROOT
BRANCH   3   4
ATOM      4  N   UNL     1      10.203   2.287  21.699  0.00  0.00    -0.353 N 
ATOM      5  H1  UNL     1      10.552   2.291  20.735  0.00  0.00    +0.143 HD
ATOM      6  H2  UNL     1      10.966   2.241  22.368  0.00  0.00    +0.143 HD
ENDBRANCH   3   4
BRANCH   3   7
ATOM      7  C   UNL     1       9.841  -0.124  22.022  0.00  0.00    +0.350 C 
ATOM      8  OXT UNL     1      10.500  -0.438  23.005  0.00  0.00    -0.244 OA
BRANCH   7   9
ATOM      9  O   UNL     1       9.599  -0.959  20.995  0.00  0.00    -0.476 OA
ATOM     10  H   UNL     1      10.075  -0.710  20.182  0.00  0.00    +0.295 HD
ENDBRANCH   7   9
ENDBRANCH   3   7
TORSDOF 3
ENDMDL
MODEL 3
REMARK VINA RESULT:      -3.5      2.267      3.088
REMARK  Name = 
REMARK  4 active torsions:
REMARK  status: ('A' for Active; 'I' for Inactive)
REMARK    1  A    between atoms: C_1  and  C_2
REMARK    2  A    between atoms: CA_3  and  N_4
REMARK    3  A    between atoms: CA_3  and  C_5
REMARK    4  A    between atoms: C_5  and  O_6
REMARK                            x       y       z     vdW  Elec       q    Type
REMARK                         _______ _______ _______ _____ _____    ______ ____
ROOT
ATOM      1  C   UNL     1       9.763  -2.922  24.107  0.00  0.00    +0.037 C 
ATOM      2  C   UNL     1       8.680  -3.649  24.841  0.00  0.00    -0.000 C 
ATOM      3  CA  UNL     1       8.855  -4.809  25.500  0.00  0.00    +0.105 C 
ENDROOT
BRANCH   3   4
ATOM      4  N   UNL     1      10.085  -5.437  25.644  0.00  0.00    -0.353 N 
ATOM      5  H1  UNL     1      10.791  -4.958  25.076  0.00  0.00    +0.143 HD
ATOM      6  H2  UNL     1      10.054  -6.431  25.433  0.00  0.00    +0.143 HD
ENDBRANCH   3   4
BRANCH   3   7
ATOM      7  C   UNL     1       7.701  -5.445  26.244  0.00  0.00    +0.350 C 
ATOM      8  OXT UNL     1       6.596  -5.570  25.729  0.00  0.00    -0.244 OA
BRANCH   7   9
ATOM      9  O   UNL     1       7.974  -5.817  27.508  0.00  0.00    -0.476 OA
ATOM     10  H   UNL     1       8.016  -5.065  28.126  0.00  0.00    +0.295 HD
ENDBRANCH   7   9
ENDBRANCH   3   7
TORSDOF 3
ENDMDL
MODEL 4
REMARK VINA RESULT:      -3.4      6.154      6.968
REMARK  Name = 
REMARK  4 active torsions:
REMARK  status: ('A' for Active; 'I' for Inactive)
REMARK    1  A    between atoms: C_1  and  C_2
REMARK    2  A    between atoms: CA_3  and  N_4
REMARK    3  A    between atoms: CA_3  and  C_5
REMARK    4  A    between atoms: C_5  and  O_6
REMARK                            x       y       z     vdW  Elec       q    Type
REMARK                         _______ _______ _______ _____ _____    ______ ____
ROOT
ATOM      1  C   UNL     1       9.838  -1.791  23.941  0.00  0.00    +0.037 C 
ATOM      2  C   UNL     1       9.553  -0.414  23.431  0.00  0.00    -0.000 C 
ATOM      3  CA  UNL     1       9.527  -0.076  22.128  0.00  0.00    +0.105 C 
ENDROOT
BRANCH   3   4
ATOM      4  N   UNL     1       9.688  -0.986  21.092  0.00  0.00    -0.353 N 
ATOM      5  H1  UNL     1       8.787  -1.161  20.637  0.00  0.00    +0.143 HD
ATOM      6  H2  UNL     1      10.128  -1.853  21.386  0.00  0.00    +0.143 HD
ENDBRANCH   3   4
BRANCH   3   7
ATOM      7  C   UNL     1       9.189   1.340  21.715  0.00  0.00    +0.350 C 
ATOM      8  OXT UNL     1       8.039   1.677  21.461  0.00  0.00    -0.244 OA
BRANCH   7   9
ATOM      9  O   UNL     1      10.243   2.170  21.613  0.00  0.00    -0.476 OA
ATOM     10  H   UNL     1      10.345   2.548  20.721  0.00  0.00    +0.295 HD
ENDBRANCH   7   9
ENDBRANCH   3   7
TORSDOF 3
ENDMDL
MODEL 5
REMARK VINA RESULT:      -3.4     10.251     10.947
REMARK  Name = 
REMARK  4 active torsions:
REMARK  status: ('A' for Active; 'I' for Inactive)
REMARK    1  A    between atoms: C_1  and  C_2
REMARK    2  A    between atoms: CA_3  and  N_4
REMARK    3  A    between atoms: CA_3  and  C_5
REMARK    4  A    between atoms: C_5  and  O_6
REMARK                            x       y       z     vdW  Elec       q    Type
REMARK                         _______ _______ _______ _____ _____    ______ ____
ROOT
ATOM      1  C   UNL     1      10.037   2.730  23.271  0.00  0.00    +0.037 C 
ATOM      2  C   UNL     1      11.342   3.452  23.387  0.00  0.00    -0.000 C 
ATOM      3  CA  UNL     1      11.481   4.789  23.302  0.00  0.00    +0.105 C 
ENDROOT
BRANCH   3   4
ATOM      4  N   UNL     1      10.414   5.669  23.171  0.00  0.00    -0.353 N 
ATOM      5  H1  UNL     1      10.585   6.511  23.730  0.00  0.00    +0.143 HD
ATOM      6  H2  UNL     1       9.519   5.248  23.400  0.00  0.00    +0.143 HD
ENDBRANCH   3   4
BRANCH   3   7
ATOM      7  C   UNL     1      12.843   5.426  23.472  0.00  0.00    +0.350 C 
ATOM      8  OXT UNL     1      13.788   5.121  22.754  0.00  0.00    -0.244 OA
BRANCH   7   9
ATOM      9  O   UNL     1      12.936   6.309  24.483  0.00  0.00    -0.476 OA
ATOM     10  H   UNL     1      12.198   6.243  25.115  0.00  0.00    +0.295 HD
ENDBRANCH   7   9
ENDBRANCH   3   7
TORSDOF 3
ENDMDL
MODEL 6
REMARK VINA RESULT:      -3.4      6.276      7.126
REMARK  Name = 
REMARK  4 active torsions:
REMARK  status: ('A' for Active; 'I' for Inactive)
REMARK    1  A    between atoms: C_1  and  C_2
REMARK    2  A    between atoms: CA_3  and  N_4
REMARK    3  A    between atoms: CA_3  and  C_5
REMARK    4  A    between atoms: C_5  and  O_6
REMARK                            x       y       z     vdW  Elec       q    Type
REMARK                         _______ _______ _______ _____ _____    ______ ____
ROOT
ATOM      1  C   UNL     1      10.544   2.480  23.414  0.00  0.00    +0.037 C 
ATOM      2  C   UNL     1      10.216   1.039  23.179  0.00  0.00    -0.000 C 
ATOM      3  CA  UNL     1       9.464   0.587  22.156  0.00  0.00    +0.105 C 
ENDROOT
BRANCH   3   4
ATOM      4  N   UNL     1       8.963   1.401  21.149  0.00  0.00    -0.353 N 
ATOM      5  H1  UNL     1       7.965   1.574  21.303  0.00  0.00    +0.143 HD
ATOM      6  H2  UNL     1       9.135   1.035  20.217  0.00  0.00    +0.143 HD
ENDBRANCH   3   4
BRANCH   3   7
ATOM      7  C   UNL     1       9.223  -0.896  21.985  0.00  0.00    +0.350 C 
ATOM      8  OXT UNL     1       8.183  -1.424  22.360  0.00  0.00    -0.244 OA
BRANCH   7   9
ATOM      9  O   UNL     1      10.243  -1.579  21.434  0.00  0.00    -0.476 OA
ATOM     10  H   UNL     1      10.301  -2.498  21.752  0.00  0.00    +0.295 HD
ENDBRANCH   7   9
ENDBRANCH   3   7
TORSDOF 3
ENDMDL
MODEL 7
REMARK VINA RESULT:      -3.4      5.302      6.250
REMARK  Name = 
REMARK  4 active torsions:
REMARK  status: ('A' for Active; 'I' for Inactive)
REMARK    1  A    between atoms: C_1  and  C_2
REMARK    2  A    between atoms: CA_3  and  N_4
REMARK    3  A    between atoms: CA_3  and  C_5
REMARK    4  A    between atoms: C_5  and  O_6
REMARK                            x       y       z     vdW  Elec       q    Type
REMARK                         _______ _______ _______ _____ _____    ______ ____
ROOT
ATOM      1  C   UNL     1      10.185   2.292  23.231  0.00  0.00    +0.037 C 
ATOM      2  C   UNL     1      10.185   0.901  22.679  0.00  0.00    -0.000 C 
ATOM      3  CA  UNL     1      10.267  -0.214  23.430  0.00  0.00    +0.105 C 
ENDROOT
BRANCH   3   4
ATOM      4  N   UNL     1      10.285  -0.210  24.818  0.00  0.00    -0.353 N 
ATOM      5  H1  UNL     1      10.167   0.746  25.167  0.00  0.00    +0.143 HD
ATOM      6  H2  UNL     1      11.116  -0.646  25.208  0.00  0.00    +0.143 HD
ENDBRANCH   3   4
BRANCH   3   7
ATOM      7  C   UNL     1      10.220  -1.578  22.776  0.00  0.00    +0.350 C 
ATOM      8  OXT UNL     1      10.284  -2.608  23.436  0.00  0.00    -0.244 OA
BRANCH   7   9
ATOM      9  O   UNL     1      10.144  -1.563  21.432  0.00  0.00    -0.476 OA
ATOM     10  H   UNL     1      10.858  -1.047  21.017  0.00  0.00    +0.295 HD
ENDBRANCH   7   9
ENDBRANCH   3   7
TORSDOF 3
ENDMDL
MODEL 8
REMARK VINA RESULT:      -3.3      6.409      7.270
REMARK  Name = 
REMARK  4 active torsions:
REMARK  status: ('A' for Active; 'I' for Inactive)
REMARK    1  A    between atoms: C_1  and  C_2
REMARK    2  A    between atoms: CA_3  and  N_4
REMARK    3  A    between atoms: CA_3  and  C_5
REMARK    4  A    between atoms: C_5  and  O_6
REMARK                            x       y       z     vdW  Elec       q    Type
REMARK                         _______ _______ _______ _____ _____    ______ ____
ROOT
ATOM      1  C   UNL     1      10.135  -1.654  23.233  0.00  0.00    +0.037 C 
ATOM      2  C   UNL     1      10.100  -0.234  22.761  0.00  0.00    -0.000 C 
ATOM      3  CA  UNL     1      10.287   0.836  23.557  0.00  0.00    +0.105 C 
ENDROOT
BRANCH   3   4
ATOM      4  N   UNL     1      10.610   0.748  24.905  0.00  0.00    -0.353 N 
ATOM      5  H1  UNL     1      10.601   1.682  25.328  0.00  0.00    +0.143 HD
ATOM      6  H2  UNL     1      11.493   0.275  25.074  0.00  0.00    +0.143 HD
ENDBRANCH   3   4
BRANCH   3   7
ATOM      7  C   UNL     1      10.271   2.232  22.973  0.00  0.00    +0.350 C 
ATOM      8  OXT UNL     1      10.255   3.226  23.689  0.00  0.00    -0.244 OA
BRANCH   7   9
ATOM      9  O   UNL     1      10.236   2.287  21.629  0.00  0.00    -0.476 OA
ATOM     10  H   UNL     1      10.733   3.042  21.267  0.00  0.00    +0.295 HD
ENDBRANCH   7   9
ENDBRANCH   3   7
TORSDOF 3
ENDMDL
MODEL 9
REMARK VINA RESULT:      -3.3      7.618      8.381
REMARK  Name = 
REMARK  4 active torsions:
REMARK  status: ('A' for Active; 'I' for Inactive)
REMARK    1  A    between atoms: C_1  and  C_2
REMARK    2  A    between atoms: CA_3  and  N_4
REMARK    3  A    between atoms: CA_3  and  C_5
REMARK    4  A    between atoms: C_5  and  O_6
REMARK                            x       y       z     vdW  Elec       q    Type
REMARK                         _______ _______ _______ _____ _____    ______ ____
ROOT
ATOM      1  C   UNL     1       9.824  -0.652  21.810  0.00  0.00    +0.037 C 
ATOM      2  C   UNL     1       8.745   0.370  21.982  0.00  0.00    -0.000 C 
ATOM      3  CA  UNL     1       8.947   1.701  21.951  0.00  0.00    +0.105 C 
ENDROOT
BRANCH   3   4
ATOM      4  N   UNL     1      10.175   2.289  21.678  0.00  0.00    -0.353 N 
ATOM      5  H1  UNL     1      10.181   3.258  22.012  0.00  0.00    +0.143 HD
ATOM      6  H2  UNL     1      10.435   2.235  20.697  0.00  0.00    +0.143 HD
ENDBRANCH   3   4
BRANCH   3   7
ATOM      7  C   UNL     1       7.780   2.653  22.097  0.00  0.00    +0.350 C 
ATOM      8  OXT UNL     1       6.624   2.248  22.148  0.00  0.00    -0.244 OA
BRANCH   7   9
ATOM      9  O   UNL     1       8.109   3.957  22.128  0.00  0.00    -0.476 OA
ATOM     10  H   UNL     1       8.561   4.254  21.317  0.00  0.00    +0.295 HD
ENDBRANCH   7   9
ENDBRANCH   3   7
TORSDOF 3
ENDMDL
