MODEL 1
REMARK VINA RESULT:      -6.3      0.000      0.000
REMARK  Name = 
REMARK  11 active torsions:
REMARK  status: ('A' for Active; 'I' for Inactive)
REMARK    1  A    between atoms: CA_2  and  CB_3
REMARK    2  A    between atoms: CA_2  and  N_7
REMARK    3  A    between atoms: CA_2  and  C_27
REMARK    4  A    between atoms: CB_3  and  CG_4
REMARK    5  A    between atoms: CG_4  and  CD1_5
REMARK    6  A    between atoms: CG_4  and  CD2_6
REMARK    7  A    between atoms: C_8  and  C_10
REMARK    8  A    between atoms: N_16  and  S_17
REMARK    9  A    between atoms: S_17  and  C_20
REMARK   10  A    between atoms: C_23  and  C_24
REMARK   11  A    between atoms: C_27  and  O_28
REMARK                            x       y       z     vdW  Elec       q    Type
REMARK                         _______ _______ _______ _____ _____    ______ ____
ROOT
ATOM      1  C   UNK A   0       6.437  -1.627  23.201  0.00  0.00    +0.175 C 
ATOM      2  N   UNK A   0       7.804  -2.193  22.894  0.00  0.00    -0.163 NA
ATOM      3  C   UNK A   0       7.713  -3.550  22.243  0.00  0.00    +0.121 C 
ATOM      4  C   UNK A   0       7.009  -4.613  23.090  0.00  0.00    +0.086 C 
ATOM      5  S   UNK A   0       5.286  -4.165  23.444  0.00  0.00    -0.157 S 
ATOM      6  C   UNK A   0       5.613  -2.515  24.146  0.00  0.00    +0.099 C 
ENDROOT
BRANCH   1   9
ATOM      7  N   LEU A   1       6.298   0.793  22.753  0.00  0.00    -0.301 N 
ATOM      8  H   LEU A   1       6.553   0.562  21.797  0.00  0.00    +0.150 HD
ATOM      9  C   UNK A   0       6.389  -0.189  23.720  0.00  0.00    +0.233 C 
ATOM     10  O   UNK A   0       6.324   0.088  24.917  0.00  0.00    -0.274 OA
BRANCH   7  11
ATOM     11  CA  LEU A   1       6.273   2.200  23.143  0.00  0.00    +0.182 C 
BRANCH  11  12
ATOM     12  C   LEU A   1       4.813   2.651  23.190  0.00  0.00    +0.325 C 
ATOM     13  OXT LEU A   1       4.284   3.344  22.328  0.00  0.00    -0.249 OA
BRANCH  12  14
ATOM     14  O   LEU A   1       4.126   2.181  24.259  0.00  0.00    -0.479 OA
ATOM     15  H   LEU A   1       4.398   1.293  24.560  0.00  0.00    +0.295 HD
ENDBRANCH  12  14
ENDBRANCH  11  12
BRANCH  11  16
ATOM     16  CB  LEU A   1       7.086   3.069  22.171  0.00  0.00    +0.036 C 
BRANCH  16  17
ATOM     17  CG  LEU A   1       7.691   4.341  22.791  0.00  0.00    -0.015 C 
ATOM     18  CD2 LEU A   1       7.588   4.273  24.317  0.00  0.00    +0.007 C 
ATOM     19  CD1 LEU A   1       7.012   5.613  22.282  0.00  0.00    +0.007 C 
ENDBRANCH  16  17
ENDBRANCH  11  16
ENDBRANCH   7  11
ENDBRANCH   1   9
BRANCH   2  20
ATOM     20  S   UNK A   0       9.042  -2.013  24.061  0.00  0.00    +0.062 S 
ATOM     21  O   UNK A   0      10.112  -2.924  23.724  0.00  0.00    -0.153 OA
ATOM     22  O   UNK A   0       8.454  -2.004  25.379  0.00  0.00    -0.153 OA
BRANCH  20  23
ATOM     23  C   UNK A   0       9.606  -0.346  23.760  0.00  0.00    +0.106 A 
ATOM     24  C   UNK A   0       9.859   0.524  24.823  0.00  0.00    +0.029 A 
ATOM     25  C   UNK A   0      10.349   1.807  24.558  0.00  0.00    +0.005 A 
ATOM     26  C   UNK A   0      10.590   2.222  23.241  0.00  0.00    -0.050 A 
ATOM     27  C   UNK A   0      11.160   3.585  22.968  0.00  0.00    +0.044 C 
ATOM     28  C   UNK A   0      10.273   1.360  22.183  0.00  0.00    +0.005 A 
ATOM     29  C   UNK A   0       9.783   0.076  22.439  0.00  0.00    +0.029 A 
ENDBRANCH  20  23
ENDBRANCH   2  20
TORSDOF 8
ENDMDL
MODEL 2
REMARK VINA RESULT:      -6.0      2.845      6.579
REMARK  Name = 
REMARK  11 active torsions:
REMARK  status: ('A' for Active; 'I' for Inactive)
REMARK    1  A    between atoms: CA_2  and  CB_3
REMARK    2  A    between atoms: CA_2  and  N_7
REMARK    3  A    between atoms: CA_2  and  C_27
REMARK    4  A    between atoms: CB_3  and  CG_4
REMARK    5  A    between atoms: CG_4  and  CD1_5
REMARK    6  A    between atoms: CG_4  and  CD2_6
REMARK    7  A    between atoms: C_8  and  C_10
REMARK    8  A    between atoms: N_16  and  S_17
REMARK    9  A    between atoms: S_17  and  C_20
REMARK   10  A    between atoms: C_23  and  C_24
REMARK   11  A    between atoms: C_27  and  O_28
REMARK                            x       y       z     vdW  Elec       q    Type
REMARK                         _______ _______ _______ _____ _____    ______ ____
ROOT
ATOM      1  C   UNK A   0       5.814  -1.032  25.040  0.00  0.00    +0.175 C 
ATOM      2  N   UNK A   0       5.197  -2.370  24.704  0.00  0.00    -0.163 NA
ATOM      3  C   UNK A   0       4.010  -2.673  25.582  0.00  0.00    +0.121 C 
ATOM      4  C   UNK A   0       4.327  -2.732  27.079  0.00  0.00    +0.086 C 
ATOM      5  S   UNK A   0       4.955  -1.147  27.700  0.00  0.00    -0.157 S 
ATOM      6  C   UNK A   0       6.306  -0.941  26.494  0.00  0.00    +0.099 C 
ENDROOT
BRANCH   1   9
ATOM      7  N   LEU A   1       8.189  -1.040  24.383  0.00  0.00    -0.301 N 
ATOM      8  H   LEU A   1       8.370  -1.448  25.295  0.00  0.00    +0.150 HD
ATOM      9  C   UNK A   0       6.930  -0.539  24.118  0.00  0.00    +0.233 C 
ATOM     10  O   UNK A   0       6.721   0.171  23.134  0.00  0.00    -0.274 OA
BRANCH   7  11
ATOM     11  CA  LEU A   1       9.329  -0.610  23.578  0.00  0.00    +0.182 C 
BRANCH  11  12
ATOM     12  C   LEU A   1      10.082  -1.859  23.120  0.00  0.00    +0.325 C 
ATOM     13  OXT LEU A   1      10.936  -1.860  22.241  0.00  0.00    -0.249 OA
BRANCH  12  14
ATOM     14  O   LEU A   1       9.754  -2.981  23.807  0.00  0.00    -0.479 OA
ATOM     15  H   LEU A   1       8.921  -2.920  24.312  0.00  0.00    +0.295 HD
ENDBRANCH  12  14
ENDBRANCH  11  12
BRANCH  11  16
ATOM     16  CB  LEU A   1      10.254   0.330  24.367  0.00  0.00    +0.036 C 
BRANCH  16  17
ATOM     17  CG  LEU A   1      10.276   1.786  23.868  0.00  0.00    -0.015 C 
ATOM     18  CD2 LEU A   1       9.142   2.576  24.528  0.00  0.00    +0.007 C 
ATOM     19  CD1 LEU A   1      10.154   1.879  22.346  0.00  0.00    +0.007 C 
ENDBRANCH  16  17
ENDBRANCH  11  16
ENDBRANCH   7  11
ENDBRANCH   1   9
BRANCH   2  20
ATOM     20  S   UNK A   0       6.236  -3.689  24.382  0.00  0.00    +0.062 S 
ATOM     21  O   UNK A   0       7.097  -3.872  25.528  0.00  0.00    -0.153 OA
ATOM     22  O   UNK A   0       6.780  -3.552  23.052  0.00  0.00    -0.153 OA
BRANCH  20  23
ATOM     23  C   UNK A   0       5.095  -5.060  24.310  0.00  0.00    +0.106 A 
ATOM     24  C   UNK A   0       5.117  -6.057  25.289  0.00  0.00    +0.029 A 
ATOM     25  C   UNK A   0       4.177  -7.092  25.236  0.00  0.00    +0.005 A 
ATOM     26  C   UNK A   0       3.217  -7.134  24.214  0.00  0.00    -0.050 A 
ATOM     27  C   UNK A   0       2.183  -8.223  24.190  0.00  0.00    +0.044 C 
ATOM     28  C   UNK A   0       3.249  -6.161  23.206  0.00  0.00    +0.005 A 
ATOM     29  C   UNK A   0       4.185  -5.124  23.252  0.00  0.00    +0.029 A 
ENDBRANCH  20  23
ENDBRANCH   2  20
TORSDOF 8
ENDMDL
MODEL 3
REMARK VINA RESULT:      -5.9      2.708      5.965
REMARK  Name = 
REMARK  11 active torsions:
REMARK  status: ('A' for Active; 'I' for Inactive)
REMARK    1  A    between atoms: CA_2  and  CB_3
REMARK    2  A    between atoms: CA_2  and  N_7
REMARK    3  A    between atoms: CA_2  and  C_27
REMARK    4  A    between atoms: CB_3  and  CG_4
REMARK    5  A    between atoms: CG_4  and  CD1_5
REMARK    6  A    between atoms: CG_4  and  CD2_6
REMARK    7  A    between atoms: C_8  and  C_10
REMARK    8  A    between atoms: N_16  and  S_17
REMARK    9  A    between atoms: S_17  and  C_20
REMARK   10  A    between atoms: C_23  and  C_24
REMARK   11  A    between atoms: C_27  and  O_28
REMARK                            x       y       z     vdW  Elec       q    Type
REMARK                         _______ _______ _______ _____ _____    ______ ____
ROOT
ATOM      1  C   UNK A   0       7.915  -3.064  25.083  0.00  0.00    +0.175 C 
ATOM      2  N   UNK A   0       8.786  -1.914  24.633  0.00  0.00    -0.163 NA
ATOM      3  C   UNK A   0       8.900  -0.851  25.696  0.00  0.00    +0.121 C 
ATOM      4  C   UNK A   0       7.566  -0.220  26.106  0.00  0.00    +0.086 C 
ATOM      5  S   UNK A   0       6.427  -1.443  26.811  0.00  0.00    -0.157 S 
ATOM      6  C   UNK A   0       6.481  -2.635  25.433  0.00  0.00    +0.099 C 
ENDROOT
BRANCH   1   9
ATOM      7  N   LEU A   1       6.709  -4.373  23.379  0.00  0.00    -0.301 N 
ATOM      8  H   LEU A   1       5.887  -3.841  23.650  0.00  0.00    +0.150 HD
ATOM      9  C   UNK A   0       7.846  -4.278  24.156  0.00  0.00    +0.233 C 
ATOM     10  O   UNK A   0       8.780  -5.069  24.018  0.00  0.00    -0.274 OA
BRANCH   7  11
ATOM     11  CA  LEU A   1       6.533  -5.510  22.480  0.00  0.00    +0.182 C 
BRANCH  11  12
ATOM     12  C   LEU A   1       6.082  -4.973  21.122  0.00  0.00    +0.325 C 
ATOM     13  OXT LEU A   1       6.044  -5.646  20.098  0.00  0.00    -0.249 OA
BRANCH  12  14
ATOM     14  O   LEU A   1       5.679  -3.679  21.149  0.00  0.00    -0.479 OA
ATOM     15  H   LEU A   1       4.913  -3.479  20.578  0.00  0.00    +0.295 HD
ENDBRANCH  12  14
ENDBRANCH  11  12
BRANCH  11  16
ATOM     16  CB  LEU A   1       5.515  -6.517  23.038  0.00  0.00    +0.036 C 
BRANCH  16  17
ATOM     17  CG  LEU A   1       4.517  -5.934  24.055  0.00  0.00    -0.015 C 
ATOM     18  CD2 LEU A   1       4.278  -6.943  25.181  0.00  0.00    +0.007 C 
ATOM     19  CD1 LEU A   1       3.185  -5.555  23.408  0.00  0.00    +0.007 C 
ENDBRANCH  16  17
ENDBRANCH  11  16
ENDBRANCH   7  11
ENDBRANCH   1   9
BRANCH   2  20
ATOM     20  S   UNK A   0       8.619  -1.344  23.030  0.00  0.00    +0.062 S 
ATOM     21  O   UNK A   0       7.216  -1.380  22.684  0.00  0.00    -0.153 OA
ATOM     22  O   UNK A   0       9.612  -1.977  22.195  0.00  0.00    -0.153 OA
BRANCH  20  23
ATOM     23  C   UNK A   0       9.116   0.364  23.182  0.00  0.00    +0.106 A 
ATOM     24  C   UNK A   0       8.215   1.395  22.907  0.00  0.00    +0.029 A 
ATOM     25  C   UNK A   0       8.618   2.724  23.085  0.00  0.00    +0.005 A 
ATOM     26  C   UNK A   0       9.910   3.025  23.537  0.00  0.00    -0.050 A 
ATOM     27  C   UNK A   0      10.319   4.451  23.769  0.00  0.00    +0.044 C 
ATOM     28  C   UNK A   0      10.821   1.981  23.748  0.00  0.00    +0.005 A 
ATOM     29  C   UNK A   0      10.427   0.651  23.573  0.00  0.00    +0.029 A 
ENDBRANCH  20  23
ENDBRANCH   2  20
TORSDOF 8
ENDMDL
MODEL 4
REMARK VINA RESULT:      -5.7      2.483      5.779
REMARK  Name = 
REMARK  11 active torsions:
REMARK  status: ('A' for Active; 'I' for Inactive)
REMARK    1  A    between atoms: CA_2  and  CB_3
REMARK    2  A    between atoms: CA_2  and  N_7
REMARK    3  A    between atoms: CA_2  and  C_27
REMARK    4  A    between atoms: CB_3  and  CG_4
REMARK    5  A    between atoms: CG_4  and  CD1_5
REMARK    6  A    between atoms: CG_4  and  CD2_6
REMARK    7  A    between atoms: C_8  and  C_10
REMARK    8  A    between atoms: N_16  and  S_17
REMARK    9  A    between atoms: S_17  and  C_20
REMARK   10  A    between atoms: C_23  and  C_24
REMARK   11  A    between atoms: C_27  and  O_28
REMARK                            x       y       z     vdW  Elec       q    Type
REMARK                         _______ _______ _______ _____ _____    ______ ____
ROOT
ATOM      1  C   UNK A   0       5.834  -0.522  25.368  0.00  0.00    +0.175 C 
ATOM      2  N   UNK A   0       5.185  -1.798  25.854  0.00  0.00    -0.163 NA
ATOM      3  C   UNK A   0       4.105  -1.523  26.869  0.00  0.00    +0.121 C 
ATOM      4  C   UNK A   0       4.588  -0.802  28.130  0.00  0.00    +0.086 C 
ATOM      5  S   UNK A   0       5.280   0.833  27.752  0.00  0.00    -0.157 S 
ATOM      6  C   UNK A   0       6.486   0.293  26.496  0.00  0.00    +0.099 C 
ENDROOT
BRANCH   1   9
ATOM      7  N   LEU A   1       8.157  -0.416  24.553  0.00  0.00    -0.301 N 
ATOM      8  H   LEU A   1       8.361   0.096  25.407  0.00  0.00    +0.150 HD
ATOM      9  C   UNK A   0       6.838  -0.655  24.222  0.00  0.00    +0.233 C 
ATOM     10  O   UNK A   0       6.525  -1.053  23.100  0.00  0.00    -0.274 OA
BRANCH   7  11
ATOM     11  CA  LEU A   1       9.191  -0.489  23.525  0.00  0.00    +0.182 C 
BRANCH  11  12
ATOM     12  C   LEU A   1       9.868  -1.856  23.633  0.00  0.00    +0.325 C 
ATOM     13  OXT LEU A   1      10.481  -2.390  22.716  0.00  0.00    -0.249 OA
BRANCH  12  14
ATOM     14  O   LEU A   1       9.771  -2.421  24.861  0.00  0.00    -0.479 OA
ATOM     15  H   LEU A   1      10.520  -3.000  25.103  0.00  0.00    +0.295 HD
ENDBRANCH  12  14
ENDBRANCH  11  12
BRANCH  11  16
ATOM     16  CB  LEU A   1      10.217   0.645  23.675  0.00  0.00    +0.036 C 
BRANCH  16  17
ATOM     17  CG  LEU A   1      10.044   1.811  22.685  0.00  0.00    -0.015 C 
ATOM     18  CD2 LEU A   1       9.610   3.070  23.440  0.00  0.00    +0.007 C 
ATOM     19  CD1 LEU A   1       9.031   1.491  21.585  0.00  0.00    +0.007 C 
ENDBRANCH  16  17
ENDBRANCH  11  16
ENDBRANCH   7  11
ENDBRANCH   1   9
BRANCH   2  20
ATOM     20  S   UNK A   0       6.184  -3.146  26.182  0.00  0.00    +0.062 S 
ATOM     21  O   UNK A   0       5.523  -3.963  27.175  0.00  0.00    -0.153 OA
ATOM     22  O   UNK A   0       7.543  -2.697  26.368  0.00  0.00    -0.153 OA
BRANCH  20  23
ATOM     23  C   UNK A   0       6.161  -4.022  24.627  0.00  0.00    +0.106 A 
ATOM     24  C   UNK A   0       4.980  -4.134  23.890  0.00  0.00    +0.029 A 
ATOM     25  C   UNK A   0       5.003  -4.782  22.650  0.00  0.00    +0.005 A 
ATOM     26  C   UNK A   0       6.198  -5.314  22.144  0.00  0.00    -0.050 A 
ATOM     27  C   UNK A   0       6.224  -5.968  20.792  0.00  0.00    +0.044 C 
ATOM     28  C   UNK A   0       7.360  -5.247  22.924  0.00  0.00    +0.005 A 
ATOM     29  C   UNK A   0       7.345  -4.602  24.163  0.00  0.00    +0.029 A 
ENDBRANCH  20  23
ENDBRANCH   2  20
TORSDOF 8
ENDMDL
MODEL 5
REMARK VINA RESULT:      -5.6      2.703      7.210
REMARK  Name = 
REMARK  11 active torsions:
REMARK  status: ('A' for Active; 'I' for Inactive)
REMARK    1  A    between atoms: CA_2  and  CB_3
REMARK    2  A    between atoms: CA_2  and  N_7
REMARK    3  A    between atoms: CA_2  and  C_27
REMARK    4  A    between atoms: CB_3  and  CG_4
REMARK    5  A    between atoms: CG_4  and  CD1_5
REMARK    6  A    between atoms: CG_4  and  CD2_6
REMARK    7  A    between atoms: C_8  and  C_10
REMARK    8  A    between atoms: N_16  and  S_17
REMARK    9  A    between atoms: S_17  and  C_20
REMARK   10  A    between atoms: C_23  and  C_24
REMARK   11  A    between atoms: C_27  and  O_28
REMARK                            x       y       z     vdW  Elec       q    Type
REMARK                         _______ _______ _______ _____ _____    ______ ____
ROOT
ATOM      1  C   UNK A   0       7.406  -1.149  22.891  0.00  0.00    +0.175 C 
ATOM      2  N   UNK A   0       7.176  -0.095  23.949  0.00  0.00    -0.163 NA
ATOM      3  C   UNK A   0       7.457   1.291  23.427  0.00  0.00    +0.121 C 
ATOM      4  C   UNK A   0       8.893   1.505  22.940  0.00  0.00    +0.086 C 
ATOM      5  S   UNK A   0       9.310   0.408  21.556  0.00  0.00    -0.157 S 
ATOM      6  C   UNK A   0       8.847  -1.164  22.356  0.00  0.00    +0.099 C 
ENDROOT
BRANCH   1   9
ATOM      7  N   LEU A   1       8.042  -3.417  23.615  0.00  0.00    -0.301 N 
ATOM      8  H   LEU A   1       8.991  -3.159  23.360  0.00  0.00    +0.150 HD
ATOM      9  C   UNK A   0       7.006  -2.581  23.248  0.00  0.00    +0.233 C 
ATOM     10  O   UNK A   0       5.834  -2.952  23.317  0.00  0.00    -0.274 OA
BRANCH   7  11
ATOM     11  CA  LEU A   1       7.770  -4.812  23.948  0.00  0.00    +0.182 C 
BRANCH  11  12
ATOM     12  C   LEU A   1       8.762  -5.242  25.029  0.00  0.00    +0.325 C 
ATOM     13  OXT LEU A   1       9.970  -5.052  24.964  0.00  0.00    -0.249 OA
BRANCH  12  14
ATOM     14  O   LEU A   1       8.182  -5.824  26.107  0.00  0.00    -0.479 OA
ATOM     15  H   LEU A   1       8.761  -5.902  26.889  0.00  0.00    +0.295 HD
ENDBRANCH  12  14
ENDBRANCH  11  12
BRANCH  11  16
ATOM     16  CB  LEU A   1       7.879  -5.719  22.712  0.00  0.00    +0.036 C 
BRANCH  16  17
ATOM     17  CG  LEU A   1       6.544  -6.301  22.215  0.00  0.00    -0.015 C 
ATOM     18  CD2 LEU A   1       6.124  -5.600  20.921  0.00  0.00    +0.007 C 
ATOM     19  CD1 LEU A   1       5.432  -6.173  23.258  0.00  0.00    +0.007 C 
ENDBRANCH  16  17
ENDBRANCH  11  16
ENDBRANCH   7  11
ENDBRANCH   1   9
BRANCH   2  20
ATOM     20  S   UNK A   0       7.710  -0.409  25.543  0.00  0.00    +0.062 S 
ATOM     21  O   UNK A   0       7.766   0.848  26.253  0.00  0.00    -0.153 OA
ATOM     22  O   UNK A   0       8.850  -1.293  25.496  0.00  0.00    -0.153 OA
BRANCH  20  23
ATOM     23  C   UNK A   0       6.364  -1.372  26.211  0.00  0.00    +0.106 A 
ATOM     24  C   UNK A   0       6.601  -2.619  26.795  0.00  0.00    +0.029 A 
ATOM     25  C   UNK A   0       5.533  -3.328  27.356  0.00  0.00    +0.005 A 
ATOM     26  C   UNK A   0       4.235  -2.798  27.339  0.00  0.00    -0.050 A 
ATOM     27  C   UNK A   0       3.103  -3.545  27.983  0.00  0.00    +0.044 C 
ATOM     28  C   UNK A   0       4.005  -1.575  26.694  0.00  0.00    +0.005 A 
ATOM     29  C   UNK A   0       5.066  -0.861  26.131  0.00  0.00    +0.029 A 
ENDBRANCH  20  23
ENDBRANCH   2  20
TORSDOF 8
ENDMDL
MODEL 6
REMARK VINA RESULT:      -5.6      2.839      7.291
REMARK  Name = 
REMARK  11 active torsions:
REMARK  status: ('A' for Active; 'I' for Inactive)
REMARK    1  A    between atoms: CA_2  and  CB_3
REMARK    2  A    between atoms: CA_2  and  N_7
REMARK    3  A    between atoms: CA_2  and  C_27
REMARK    4  A    between atoms: CB_3  and  CG_4
REMARK    5  A    between atoms: CG_4  and  CD1_5
REMARK    6  A    between atoms: CG_4  and  CD2_6
REMARK    7  A    between atoms: C_8  and  C_10
REMARK    8  A    between atoms: N_16  and  S_17
REMARK    9  A    between atoms: S_17  and  C_20
REMARK   10  A    between atoms: C_23  and  C_24
REMARK   11  A    between atoms: C_27  and  O_28
REMARK                            x       y       z     vdW  Elec       q    Type
REMARK                         _______ _______ _______ _____ _____    ______ ____
ROOT
ATOM      1  C   UNK A   0       7.882  -1.345  22.881  0.00  0.00    +0.175 C 
ATOM      2  N   UNK A   0       7.420  -0.401  23.966  0.00  0.00    -0.163 NA
ATOM      3  C   UNK A   0       7.640   1.041  23.584  0.00  0.00    +0.121 C 
ATOM      4  C   UNK A   0       9.102   1.409  23.315  0.00  0.00    +0.086 C 
ATOM      5  S   UNK A   0       9.795   0.463  21.929  0.00  0.00    -0.157 S 
ATOM      6  C   UNK A   0       9.376  -1.200  22.550  0.00  0.00    +0.099 C 
ENDROOT
BRANCH   1   9
ATOM      7  N   LEU A   1       6.296  -3.225  22.727  0.00  0.00    -0.301 N 
ATOM      8  H   LEU A   1       5.571  -2.518  22.641  0.00  0.00    +0.150 HD
ATOM      9  C   UNK A   0       7.571  -2.828  23.081  0.00  0.00    +0.233 C 
ATOM     10  O   UNK A   0       8.419  -3.649  23.429  0.00  0.00    -0.274 OA
BRANCH   7  11
ATOM     11  CA  LEU A   1       5.889  -4.616  22.906  0.00  0.00    +0.182 C 
BRANCH  11  12
ATOM     12  C   LEU A   1       6.372  -5.408  21.690  0.00  0.00    +0.325 C 
ATOM     13  OXT LEU A   1       5.878  -5.317  20.573  0.00  0.00    -0.249 OA
BRANCH  12  14
ATOM     14  O   LEU A   1       7.439  -6.205  21.943  0.00  0.00    -0.479 OA
ATOM     15  H   LEU A   1       7.675  -6.813  21.217  0.00  0.00    +0.295 HD
ENDBRANCH  12  14
ENDBRANCH  11  12
BRANCH  11  16
ATOM     16  CB  LEU A   1       4.367  -4.741  23.073  0.00  0.00    +0.036 C 
BRANCH  16  17
ATOM     17  CG  LEU A   1       3.858  -6.173  23.318  0.00  0.00    -0.015 C 
ATOM     18  CD2 LEU A   1       2.350  -6.148  23.579  0.00  0.00    +0.007 C 
ATOM     19  CD1 LEU A   1       4.574  -6.850  24.488  0.00  0.00    +0.007 C 
ENDBRANCH  16  17
ENDBRANCH  11  16
ENDBRANCH   7  11
ENDBRANCH   1   9
BRANCH   2  20
ATOM     20  S   UNK A   0       7.767  -0.797  25.593  0.00  0.00    +0.062 S 
ATOM     21  O   UNK A   0       7.660   0.411  26.381  0.00  0.00    -0.153 OA
ATOM     22  O   UNK A   0       8.954  -1.617  25.639  0.00  0.00    -0.153 OA
BRANCH  20  23
ATOM     23  C   UNK A   0       6.406  -1.869  26.021  0.00  0.00    +0.106 A 
ATOM     24  C   UNK A   0       5.094  -1.519  25.696  0.00  0.00    +0.029 A 
ATOM     25  C   UNK A   0       4.052  -2.403  25.998  0.00  0.00    +0.005 A 
ATOM     26  C   UNK A   0       4.316  -3.633  26.618  0.00  0.00    -0.050 A 
ATOM     27  C   UNK A   0       3.198  -4.596  26.898  0.00  0.00    +0.044 C 
ATOM     28  C   UNK A   0       5.630  -3.941  26.993  0.00  0.00    +0.005 A 
ATOM     29  C   UNK A   0       6.676  -3.063  26.696  0.00  0.00    +0.029 A 
ENDBRANCH  20  23
ENDBRANCH   2  20
TORSDOF 8
ENDMDL
MODEL 7
REMARK VINA RESULT:      -5.6      2.193      3.100
REMARK  Name = 
REMARK  11 active torsions:
REMARK  status: ('A' for Active; 'I' for Inactive)
REMARK    1  A    between atoms: CA_2  and  CB_3
REMARK    2  A    between atoms: CA_2  and  N_7
REMARK    3  A    between atoms: CA_2  and  C_27
REMARK    4  A    between atoms: CB_3  and  CG_4
REMARK    5  A    between atoms: CG_4  and  CD1_5
REMARK    6  A    between atoms: CG_4  and  CD2_6
REMARK    7  A    between atoms: C_8  and  C_10
REMARK    8  A    between atoms: N_16  and  S_17
REMARK    9  A    between atoms: S_17  and  C_20
REMARK   10  A    between atoms: C_23  and  C_24
REMARK   11  A    between atoms: C_27  and  O_28
REMARK                            x       y       z     vdW  Elec       q    Type
REMARK                         _______ _______ _______ _____ _____    ______ ____
ROOT
ATOM      1  C   UNK A   0       5.404  -3.627  25.087  0.00  0.00    +0.175 C 
ATOM      2  N   UNK A   0       6.182  -4.373  24.029  0.00  0.00    -0.163 NA
ATOM      3  C   UNK A   0       5.436  -5.590  23.541  0.00  0.00    +0.121 C 
ATOM      4  C   UNK A   0       5.129  -6.623  24.629  0.00  0.00    +0.086 C 
ATOM      5  S   UNK A   0       4.071  -5.937  25.935  0.00  0.00    -0.157 S 
ATOM      6  C   UNK A   0       5.098  -4.482  26.328  0.00  0.00    +0.099 C 
ENDROOT
BRANCH   1   9
ATOM      7  N   LEU A   1       5.731  -1.211  24.726  0.00  0.00    -0.301 N 
ATOM      8  H   LEU A   1       5.454  -1.387  23.764  0.00  0.00    +0.150 HD
ATOM      9  C   UNK A   0       5.983  -2.290  25.551  0.00  0.00    +0.233 C 
ATOM     10  O   UNK A   0       6.543  -2.143  26.637  0.00  0.00    -0.274 OA
BRANCH   7  11
ATOM     11  CA  LEU A   1       6.263   0.105  25.065  0.00  0.00    +0.182 C 
BRANCH  11  12
ATOM     12  C   LEU A   1       5.253   0.802  25.978  0.00  0.00    +0.325 C 
ATOM     13  OXT LEU A   1       4.194   1.279  25.589  0.00  0.00    -0.249 OA
BRANCH  12  14
ATOM     14  O   LEU A   1       5.612   0.814  27.285  0.00  0.00    -0.479 OA
ATOM     15  H   LEU A   1       4.881   0.993  27.906  0.00  0.00    +0.295 HD
ENDBRANCH  12  14
ENDBRANCH  11  12
BRANCH  11  16
ATOM     16  CB  LEU A   1       6.535   0.944  23.806  0.00  0.00    +0.036 C 
BRANCH  16  17
ATOM     17  CG  LEU A   1       7.185   2.315  24.070  0.00  0.00    -0.015 C 
ATOM     18  CD2 LEU A   1       7.448   3.026  22.739  0.00  0.00    +0.007 C 
ATOM     19  CD1 LEU A   1       8.488   2.196  24.860  0.00  0.00    +0.007 C 
ENDBRANCH  16  17
ENDBRANCH  11  16
ENDBRANCH   7  11
ENDBRANCH   1   9
BRANCH   2  20
ATOM     20  S   UNK A   0       7.866  -4.575  24.244  0.00  0.00    +0.062 S 
ATOM     21  O   UNK A   0       8.309  -5.629  23.360  0.00  0.00    -0.153 OA
ATOM     22  O   UNK A   0       8.164  -4.609  25.656  0.00  0.00    -0.153 OA
BRANCH  20  23
ATOM     23  C   UNK A   0       8.513  -3.025  23.639  0.00  0.00    +0.106 A 
ATOM     24  C   UNK A   0       9.389  -2.265  24.419  0.00  0.00    +0.029 A 
ATOM     25  C   UNK A   0       9.920  -1.080  23.897  0.00  0.00    +0.005 A 
ATOM     26  C   UNK A   0       9.583  -0.654  22.604  0.00  0.00    -0.050 A 
ATOM     27  C   UNK A   0      10.193   0.595  22.035  0.00  0.00    +0.044 C 
ATOM     28  C   UNK A   0       8.656  -1.396  21.860  0.00  0.00    +0.005 A 
ATOM     29  C   UNK A   0       8.121  -2.580  22.373  0.00  0.00    +0.029 A 
ENDBRANCH  20  23
ENDBRANCH   2  20
TORSDOF 8
ENDMDL
MODEL 8
REMARK VINA RESULT:      -5.5      2.286      4.781
REMARK  Name = 
REMARK  11 active torsions:
REMARK  status: ('A' for Active; 'I' for Inactive)
REMARK    1  A    between atoms: CA_2  and  CB_3
REMARK    2  A    between atoms: CA_2  and  N_7
REMARK    3  A    between atoms: CA_2  and  C_27
REMARK    4  A    between atoms: CB_3  and  CG_4
REMARK    5  A    between atoms: CG_4  and  CD1_5
REMARK    6  A    between atoms: CG_4  and  CD2_6
REMARK    7  A    between atoms: C_8  and  C_10
REMARK    8  A    between atoms: N_16  and  S_17
REMARK    9  A    between atoms: S_17  and  C_20
REMARK   10  A    between atoms: C_23  and  C_24
REMARK   11  A    between atoms: C_27  and  O_28
REMARK                            x       y       z     vdW  Elec       q    Type
REMARK                         _______ _______ _______ _____ _____    ______ ____
ROOT
ATOM      1  C   UNK A   0       5.889   0.627  25.715  0.00  0.00    +0.175 C 
ATOM      2  N   UNK A   0       5.939  -0.827  25.306  0.00  0.00    -0.163 NA
ATOM      3  C   UNK A   0       4.871  -1.637  25.994  0.00  0.00    +0.121 C 
ATOM      4  C   UNK A   0       4.962  -1.638  27.523  0.00  0.00    +0.086 C 
ATOM      5  S   UNK A   0       4.778   0.031  28.213  0.00  0.00    -0.157 S 
ATOM      6  C   UNK A   0       6.082   0.837  27.226  0.00  0.00    +0.099 C 
ENDROOT
BRANCH   1   9
ATOM      7  N   LEU A   1       6.626   1.665  23.605  0.00  0.00    -0.301 N 
ATOM      8  H   LEU A   1       6.117   0.919  23.139  0.00  0.00    +0.150 HD
ATOM      9  C   UNK A   0       6.821   1.583  24.969  0.00  0.00    +0.233 C 
ATOM     10  O   UNK A   0       7.621   2.321  25.543  0.00  0.00    -0.274 OA
BRANCH   7  11
ATOM     11  CA  LEU A   1       7.482   2.529  22.797  0.00  0.00    +0.182 C 
BRANCH  11  12
ATOM     12  C   LEU A   1       6.660   3.748  22.377  0.00  0.00    +0.325 C 
ATOM     13  OXT LEU A   1       5.468   3.888  22.624  0.00  0.00    -0.249 OA
BRANCH  12  14
ATOM     14  O   LEU A   1       7.379   4.699  21.732  0.00  0.00    -0.479 OA
ATOM     15  H   LEU A   1       7.599   4.486  20.805  0.00  0.00    +0.295 HD
ENDBRANCH  12  14
ENDBRANCH  11  12
BRANCH  11  16
ATOM     16  CB  LEU A   1       8.032   1.788  21.568  0.00  0.00    +0.036 C 
BRANCH  16  17
ATOM     17  CG  LEU A   1       9.522   1.413  21.651  0.00  0.00    -0.015 C 
ATOM     18  CD2 LEU A   1       9.676  -0.109  21.588  0.00  0.00    +0.007 C 
ATOM     19  CD1 LEU A   1      10.185   1.949  22.920  0.00  0.00    +0.007 C 
ENDBRANCH  16  17
ENDBRANCH  11  16
ENDBRANCH   7  11
ENDBRANCH   1   9
BRANCH   2  20
ATOM     20  S   UNK A   0       7.467  -1.582  25.165  0.00  0.00    +0.062 S 
ATOM     21  O   UNK A   0       7.749  -2.259  26.411  0.00  0.00    -0.153 OA
ATOM     22  O   UNK A   0       8.407  -0.650  24.591  0.00  0.00    -0.153 OA
BRANCH  20  23
ATOM     23  C   UNK A   0       7.165  -2.816  23.911  0.00  0.00    +0.106 A 
ATOM     24  C   UNK A   0       7.658  -4.115  24.056  0.00  0.00    +0.029 A 
ATOM     25  C   UNK A   0       7.362  -5.075  23.081  0.00  0.00    +0.005 A 
ATOM     26  C   UNK A   0       6.575  -4.744  21.968  0.00  0.00    -0.050 A 
ATOM     27  C   UNK A   0       6.224  -5.791  20.950  0.00  0.00    +0.044 C 
ATOM     28  C   UNK A   0       6.141  -3.422  21.807  0.00  0.00    +0.005 A 
ATOM     29  C   UNK A   0       6.433  -2.457  22.776  0.00  0.00    +0.029 A 
ENDBRANCH  20  23
ENDBRANCH   2  20
TORSDOF 8
ENDMDL
MODEL 9
REMARK VINA RESULT:      -5.5      2.650      5.020
REMARK  Name = 
REMARK  11 active torsions:
REMARK  status: ('A' for Active; 'I' for Inactive)
REMARK    1  A    between atoms: CA_2  and  CB_3
REMARK    2  A    between atoms: CA_2  and  N_7
REMARK    3  A    between atoms: CA_2  and  C_27
REMARK    4  A    between atoms: CB_3  and  CG_4
REMARK    5  A    between atoms: CG_4  and  CD1_5
REMARK    6  A    between atoms: CG_4  and  CD2_6
REMARK    7  A    between atoms: C_8  and  C_10
REMARK    8  A    between atoms: N_16  and  S_17
REMARK    9  A    between atoms: S_17  and  C_20
REMARK   10  A    between atoms: C_23  and  C_24
REMARK   11  A    between atoms: C_27  and  O_28
REMARK                            x       y       z     vdW  Elec       q    Type
REMARK                         _______ _______ _______ _____ _____    ______ ____
ROOT
ATOM      1  C   UNK A   0       6.506   1.259  24.987  0.00  0.00    +0.175 C 
ATOM      2  N   UNK A   0       6.545  -0.168  24.494  0.00  0.00    -0.163 NA
ATOM      3  C   UNK A   0       5.784  -1.095  25.408  0.00  0.00    +0.121 C 
ATOM      4  C   UNK A   0       6.312  -1.142  26.845  0.00  0.00    +0.086 C 
ATOM      5  S   UNK A   0       6.209   0.478  27.657  0.00  0.00    -0.157 S 
ATOM      6  C   UNK A   0       7.109   1.431  26.390  0.00  0.00    +0.099 C 
ENDROOT
BRANCH   1   9
ATOM      7  N   LEU A   1       8.419   2.667  24.330  0.00  0.00    -0.301 N 
ATOM      8  H   LEU A   1       8.808   2.446  25.242  0.00  0.00    +0.150 HD
ATOM      9  C   UNK A   0       7.108   2.321  24.066  0.00  0.00    +0.233 C 
ATOM     10  O   UNK A   0       6.518   2.768  23.083  0.00  0.00    -0.274 OA
BRANCH   7  11
ATOM     11  CA  LEU A   1       9.079   3.692  23.526  0.00  0.00    +0.182 C 
BRANCH  11  12
ATOM     12  C   LEU A   1      10.366   3.092  22.960  0.00  0.00    +0.325 C 
ATOM     13  OXT LEU A   1      11.470   3.235  23.470  0.00  0.00    -0.249 OA
BRANCH  12  14
ATOM     14  O   LEU A   1      10.178   2.339  21.848  0.00  0.00    -0.479 OA
ATOM     15  H   LEU A   1      10.324   2.812  21.006  0.00  0.00    +0.295 HD
ENDBRANCH  12  14
ENDBRANCH  11  12
BRANCH  11  16
ATOM     16  CB  LEU A   1       9.379   4.952  24.354  0.00  0.00    +0.036 C 
BRANCH  16  17
ATOM     17  CG  LEU A   1       8.448   6.146  24.077  0.00  0.00    -0.015 C 
ATOM     18  CD2 LEU A   1       7.231   6.079  25.003  0.00  0.00    +0.007 C 
ATOM     19  CD1 LEU A   1       7.987   6.195  22.619  0.00  0.00    +0.007 C 
ENDBRANCH  16  17
ENDBRANCH  11  16
ENDBRANCH   7  11
ENDBRANCH   1   9
BRANCH   2  20
ATOM     20  S   UNK A   0       8.020  -0.779  23.881  0.00  0.00    +0.062 S 
ATOM     21  O   UNK A   0       8.945  -0.909  24.984  0.00  0.00    -0.153 OA
ATOM     22  O   UNK A   0       8.376  -0.050  22.688  0.00  0.00    -0.153 OA
BRANCH  20  23
ATOM     23  C   UNK A   0       7.556  -2.416  23.340  0.00  0.00    +0.106 A 
ATOM     24  C   UNK A   0       6.612  -2.590  22.325  0.00  0.00    +0.029 A 
ATOM     25  C   UNK A   0       6.306  -3.883  21.887  0.00  0.00    +0.005 A 
ATOM     26  C   UNK A   0       6.939  -4.999  22.454  0.00  0.00    -0.050 A 
ATOM     27  C   UNK A   0       6.638  -6.380  21.947  0.00  0.00    +0.044 C 
ATOM     28  C   UNK A   0       7.836  -4.810  23.513  0.00  0.00    +0.005 A 
ATOM     29  C   UNK A   0       8.148  -3.522  23.957  0.00  0.00    +0.029 A 
ENDBRANCH  20  23
ENDBRANCH   2  20
TORSDOF 8
ENDMDL
