MODEL 1
REMARK VINA RESULT:      -6.8      0.000      0.000
REMARK  Name = 
REMARK  7 active torsions:
REMARK  status: ('A' for Active; 'I' for Inactive)
REMARK    1  A    between atoms: C_1  and  C_2
REMARK    2  A    between atoms: C_2  and  C_3
REMARK    3  A    between atoms: C_2  and  N_4
REMARK    4  A    between atoms: N_11  and  C_12
REMARK    5  A    between atoms: C_12  and  C_13
REMARK    6  A    between atoms: C_13  and  O_14
REMARK    7  A    between atoms: N_17  and  C_18
REMARK                            x       y       z     vdW  Elec       q    Type
REMARK                         _______ _______ _______ _____ _____    ______ ____
ROOT
ATOM      1  N   UNL     1       9.460   1.073  23.327  0.00  0.00    -0.314 N 
ATOM      2  C   UNL     1       8.842  -0.052  23.778  0.00  0.00    +0.145 A 
ATOM      3  N   UNL     1       8.553  -0.438  25.029  0.00  0.00    -0.312 N 
ATOM      4  H   UNL     1       8.660   0.146  25.843  0.00  0.00    +0.170 HD
ATOM      5  C   UNL     1       7.989  -1.683  25.176  0.00  0.00    +0.196 A 
ATOM      6  N   UNL     1       7.689  -2.486  24.195  0.00  0.00    -0.195 NA
ATOM      7  C   UNL     1       7.826  -2.073  22.875  0.00  0.00    +0.186 A 
ATOM      8  N   UNL     1       7.331  -2.736  21.876  0.00  0.00    -0.226 NA
ATOM      9  N   UNL     1       7.782  -2.049  26.473  0.00  0.00    -0.313 N 
ATOM     10  H   UNL     1       8.164  -1.483  27.217  0.00  0.00    +0.149 HD
ATOM     11  C   UNL     1       8.525  -0.805  22.672  0.00  0.00    +0.150 A 
ATOM     12  N   UNL     1       8.919  -0.150  21.531  0.00  0.00    -0.230 NA
ATOM     13  C   UNL     1       9.473   0.971  21.955  0.00  0.00    +0.201 A 
ENDROOT
BRANCH   8  14
ATOM     14  C   UNL     1       6.591  -3.920  22.096  0.00  0.00    +0.068 A 
ATOM     15  C   UNL     1       5.252  -3.929  22.511  0.00  0.00    +0.047 A 
ATOM     16  C   UNL     1       4.585  -5.126  22.758  0.00  0.00    +0.043 A 
ATOM     17 CL   UNL     1       2.985  -5.091  23.392  0.00  0.00    -0.083 Cl
ATOM     18  C   UNL     1       5.210  -6.343  22.513  0.00  0.00    +0.020 A 
ATOM     19  C   UNL     1       6.517  -6.356  22.027  0.00  0.00    +0.003 A 
ATOM     20  C   UNL     1       7.202  -5.150  21.829  0.00  0.00    +0.028 A 
ENDBRANCH   8  14
BRANCH   1  22
ATOM     21  C   UNL     1      11.027   2.987  23.340  0.00  0.00    +0.030 C 
ATOM     22  C   UNL     1      10.011   2.158  24.124  0.00  0.00    +0.084 C 
ATOM     23  C   UNL     1       8.909   3.028  24.723  0.00  0.00    +0.030 C 
ENDBRANCH   1  22
BRANCH   9  24
ATOM     24  C   UNL     1       7.553  -3.447  26.839  0.00  0.00    +0.132 C 
BRANCH  24  25
ATOM     25  C   UNL     1       8.824  -4.275  26.616  0.00  0.00    +0.174 C 
BRANCH  25  26
ATOM     26  O   UNL     1       8.532  -5.664  26.791  0.00  0.00    -0.393 OA
ATOM     27  H   UNL     1       7.589  -5.696  27.037  0.00  0.00    +0.209 HD
ENDBRANCH  25  26
ENDBRANCH  24  25
ENDBRANCH   9  24
TORSDOF 5
ENDMDL
MODEL 2
REMARK VINA RESULT:      -6.5      3.370      7.094
REMARK  Name = 
REMARK  7 active torsions:
REMARK  status: ('A' for Active; 'I' for Inactive)
REMARK    1  A    between atoms: C_1  and  C_2
REMARK    2  A    between atoms: C_2  and  C_3
REMARK    3  A    between atoms: C_2  and  N_4
REMARK    4  A    between atoms: N_11  and  C_12
REMARK    5  A    between atoms: C_12  and  C_13
REMARK    6  A    between atoms: C_13  and  O_14
REMARK    7  A    between atoms: N_17  and  C_18
REMARK                            x       y       z     vdW  Elec       q    Type
REMARK                         _______ _______ _______ _____ _____    ______ ____
ROOT
ATOM      1  N   UNL     1       3.018  -6.675  24.337  0.00  0.00    -0.314 N 
ATOM      2  C   UNL     1       4.187  -6.010  24.536  0.00  0.00    +0.145 A 
ATOM      3  N   UNL     1       5.229  -6.308  25.324  0.00  0.00    -0.312 N 
ATOM      4  H   UNL     1       5.338  -7.180  25.817  0.00  0.00    +0.170 HD
ATOM      5  C   UNL     1       6.248  -5.386  25.375  0.00  0.00    +0.196 A 
ATOM      6  N   UNL     1       6.285  -4.277  24.694  0.00  0.00    -0.195 NA
ATOM      7  C   UNL     1       5.306  -3.993  23.750  0.00  0.00    +0.186 A 
ATOM      8  N   UNL     1       5.416  -3.028  22.891  0.00  0.00    -0.226 NA
ATOM      9  N   UNL     1       7.246  -5.712  26.245  0.00  0.00    -0.313 N 
ATOM     10  H   UNL     1       7.124  -6.491  26.875  0.00  0.00    +0.149 HD
ATOM     11  C   UNL     1       4.148  -4.887  23.742  0.00  0.00    +0.150 A 
ATOM     12  N   UNL     1       2.973  -4.856  23.031  0.00  0.00    -0.230 NA
ATOM     13  C   UNL     1       2.319  -5.940  23.407  0.00  0.00    +0.201 A 
ENDROOT
BRANCH   8  14
ATOM     14  C   UNL     1       6.576  -2.222  22.862  0.00  0.00    +0.068 A 
ATOM     15  C   UNL     1       6.657  -0.962  23.472  0.00  0.00    +0.047 A 
ATOM     16  C   UNL     1       7.811  -0.188  23.373  0.00  0.00    +0.043 A 
ATOM     17 CL   UNL     1       7.824   1.406  24.023  0.00  0.00    -0.083 Cl
ATOM     18  C   UNL     1       8.941  -0.690  22.737  0.00  0.00    +0.020 A 
ATOM     19  C   UNL     1       8.906  -1.971  22.188  0.00  0.00    +0.003 A 
ATOM     20  C   UNL     1       7.727  -2.726  22.246  0.00  0.00    +0.028 A 
ENDBRANCH   8  14
BRANCH   1  22
ATOM     21  C   UNL     1       1.933  -7.639  26.341  0.00  0.00    +0.030 C 
ATOM     22  C   UNL     1       2.579  -7.903  24.982  0.00  0.00    +0.084 C 
ATOM     23  C   UNL     1       1.668  -8.720  24.069  0.00  0.00    +0.030 C 
ENDBRANCH   1  22
BRANCH   9  24
ATOM     24  C   UNL     1       8.202  -4.706  26.712  0.00  0.00    +0.132 C 
BRANCH  24  25
ATOM     25  C   UNL     1       9.499  -4.781  25.900  0.00  0.00    +0.174 C 
BRANCH  25  26
ATOM     26  O   UNL     1       9.800  -6.147  25.596  0.00  0.00    -0.393 OA
ATOM     27  H   UNL     1       9.445  -6.657  26.347  0.00  0.00    +0.209 HD
ENDBRANCH  25  26
ENDBRANCH  24  25
ENDBRANCH   9  24
TORSDOF 5
ENDMDL
MODEL 3
REMARK VINA RESULT:      -6.4      4.009      7.863
REMARK  Name = 
REMARK  7 active torsions:
REMARK  status: ('A' for Active; 'I' for Inactive)
REMARK    1  A    between atoms: C_1  and  C_2
REMARK    2  A    between atoms: C_2  and  C_3
REMARK    3  A    between atoms: C_2  and  N_4
REMARK    4  A    between atoms: N_11  and  C_12
REMARK    5  A    between atoms: C_12  and  C_13
REMARK    6  A    between atoms: C_13  and  O_14
REMARK    7  A    between atoms: N_17  and  C_18
REMARK                            x       y       z     vdW  Elec       q    Type
REMARK                         _______ _______ _______ _____ _____    ______ ____
ROOT
ATOM      1  N   UNL     1       8.118  -2.224  23.362  0.00  0.00    -0.314 N 
ATOM      2  C   UNL     1       7.903  -0.883  23.311  0.00  0.00    +0.145 A 
ATOM      3  N   UNL     1       6.758  -0.193  23.208  0.00  0.00    -0.312 N 
ATOM      4  H   UNL     1       5.840  -0.603  23.275  0.00  0.00    +0.170 HD
ATOM      5  C   UNL     1       6.868   1.173  23.097  0.00  0.00    +0.196 A 
ATOM      6  N   UNL     1       7.990   1.835  23.120  0.00  0.00    -0.195 NA
ATOM      7  C   UNL     1       9.190   1.185  23.377  0.00  0.00    +0.186 A 
ATOM      8  N   UNL     1      10.291   1.818  23.638  0.00  0.00    -0.226 NA
ATOM      9  N   UNL     1       5.677   1.813  22.926  0.00  0.00    -0.313 N 
ATOM     10  H   UNL     1       4.841   1.273  22.754  0.00  0.00    +0.149 HD
ATOM     11  C   UNL     1       9.135  -0.277  23.390  0.00  0.00    +0.150 A 
ATOM     12  N   UNL     1      10.118  -1.229  23.512  0.00  0.00    -0.230 NA
ATOM     13  C   UNL     1       9.478  -2.383  23.494  0.00  0.00    +0.201 A 
ENDROOT
BRANCH   8  14
ATOM     14  C   UNL     1      10.310   3.230  23.699  0.00  0.00    +0.068 A 
ATOM     15  C   UNL     1       9.230   3.998  24.153  0.00  0.00    +0.047 A 
ATOM     16  C   UNL     1       9.285   5.390  24.148  0.00  0.00    +0.043 A 
ATOM     17 CL   UNL     1       7.890   6.298  24.589  0.00  0.00    -0.083 Cl
ATOM     18  C   UNL     1      10.451   6.045  23.771  0.00  0.00    +0.020 A 
ATOM     19  C   UNL     1      11.564   5.298  23.388  0.00  0.00    +0.003 A 
ATOM     20  C   UNL     1      11.487   3.899  23.345  0.00  0.00    +0.028 A 
ENDBRANCH   8  14
BRANCH   1  22
ATOM     21  C   UNL     1       6.537  -3.410  21.872  0.00  0.00    +0.030 C 
ATOM     22  C   UNL     1       7.123  -3.283  23.277  0.00  0.00    +0.084 C 
ATOM     23  C   UNL     1       7.676  -4.612  23.785  0.00  0.00    +0.030 C 
ENDBRANCH   1  22
BRANCH   9  24
ATOM     24  C   UNL     1       5.619   3.186  22.420  0.00  0.00    +0.132 C 
BRANCH  24  25
ATOM     25  C   UNL     1       4.209   3.760  22.589  0.00  0.00    +0.174 C 
BRANCH  25  26
ATOM     26  O   UNL     1       3.325   2.739  23.061  0.00  0.00    -0.393 OA
ATOM     27  H   UNL     1       3.367   2.797  24.033  0.00  0.00    +0.209 HD
ENDBRANCH  25  26
ENDBRANCH  24  25
ENDBRANCH   9  24
TORSDOF 5
ENDMDL
MODEL 4
REMARK VINA RESULT:      -6.4      3.190      6.691
REMARK  Name = 
REMARK  7 active torsions:
REMARK  status: ('A' for Active; 'I' for Inactive)
REMARK    1  A    between atoms: C_1  and  C_2
REMARK    2  A    between atoms: C_2  and  C_3
REMARK    3  A    between atoms: C_2  and  N_4
REMARK    4  A    between atoms: N_11  and  C_12
REMARK    5  A    between atoms: C_12  and  C_13
REMARK    6  A    between atoms: C_13  and  O_14
REMARK    7  A    between atoms: N_17  and  C_18
REMARK                            x       y       z     vdW  Elec       q    Type
REMARK                         _______ _______ _______ _____ _____    ______ ____
ROOT
ATOM      1  N   UNL     1       5.576  -5.766  23.251  0.00  0.00    -0.314 N 
ATOM      2  C   UNL     1       5.914  -4.484  23.551  0.00  0.00    +0.145 A 
ATOM      3  N   UNL     1       5.439  -3.661  24.497  0.00  0.00    -0.312 N 
ATOM      4  H   UNL     1       4.808  -3.944  25.231  0.00  0.00    +0.170 HD
ATOM      5  C   UNL     1       5.928  -2.377  24.502  0.00  0.00    +0.196 A 
ATOM      6  N   UNL     1       6.834  -1.921  23.685  0.00  0.00    -0.195 NA
ATOM      7  C   UNL     1       7.469  -2.770  22.787  0.00  0.00    +0.186 A 
ATOM      8  N   UNL     1       8.526  -2.426  22.120  0.00  0.00    -0.226 NA
ATOM      9  N   UNL     1       5.358  -1.570  25.441  0.00  0.00    -0.313 N 
ATOM     10  H   UNL     1       4.553  -1.895  25.955  0.00  0.00    +0.149 HD
ATOM     11  C   UNL     1       6.903  -4.114  22.670  0.00  0.00    +0.150 A 
ATOM     12  N   UNL     1       7.203  -5.163  21.835  0.00  0.00    -0.230 NA
ATOM     13  C   UNL     1       6.393  -6.137  22.209  0.00  0.00    +0.201 A 
ENDROOT
BRANCH   8  14
ATOM     14  C   UNL     1       9.106  -1.150  22.302  0.00  0.00    +0.068 A 
ATOM     15  C   UNL     1      10.016  -0.854  23.327  0.00  0.00    +0.047 A 
ATOM     16  C   UNL     1      10.521   0.434  23.489  0.00  0.00    +0.043 A 
ATOM     17 CL   UNL     1      11.533   0.786  24.837  0.00  0.00    -0.083 Cl
ATOM     18  C   UNL     1      10.198   1.435  22.582  0.00  0.00    +0.020 A 
ATOM     19  C   UNL     1       9.354   1.143  21.511  0.00  0.00    +0.003 A 
ATOM     20  C   UNL     1       8.807  -0.140  21.381  0.00  0.00    +0.028 A 
ENDBRANCH   8  14
BRANCH   1  22
ATOM     21  C   UNL     1       4.743  -6.672  25.397  0.00  0.00    +0.030 C 
ATOM     22  C   UNL     1       4.550  -6.580  23.885  0.00  0.00    +0.084 C 
ATOM     23  C   UNL     1       3.149  -6.099  23.519  0.00  0.00    +0.030 C 
ENDBRANCH   1  22
BRANCH   9  24
ATOM     24  C   UNL     1       5.466  -0.112  25.354  0.00  0.00    +0.132 C 
BRANCH  24  25
ATOM     25  C   UNL     1       6.489   0.410  26.368  0.00  0.00    +0.174 C 
BRANCH  25  26
ATOM     26  O   UNL     1       7.789   0.440  25.771  0.00  0.00    -0.393 OA
ATOM     27  H   UNL     1       8.098   1.357  25.883  0.00  0.00    +0.209 HD
ENDBRANCH  25  26
ENDBRANCH  24  25
ENDBRANCH   9  24
TORSDOF 5
ENDMDL
MODEL 5
REMARK VINA RESULT:      -6.3      2.944      4.181
REMARK  Name = 
REMARK  7 active torsions:
REMARK  status: ('A' for Active; 'I' for Inactive)
REMARK    1  A    between atoms: C_1  and  C_2
REMARK    2  A    between atoms: C_2  and  C_3
REMARK    3  A    between atoms: C_2  and  N_4
REMARK    4  A    between atoms: N_11  and  C_12
REMARK    5  A    between atoms: C_12  and  C_13
REMARK    6  A    between atoms: C_13  and  O_14
REMARK    7  A    between atoms: N_17  and  C_18
REMARK                            x       y       z     vdW  Elec       q    Type
REMARK                         _______ _______ _______ _____ _____    ______ ____
ROOT
ATOM      1  N   UNL     1       9.807   4.358  24.069  0.00  0.00    -0.314 N 
ATOM      2  C   UNL     1       9.132   3.217  24.371  0.00  0.00    +0.145 A 
ATOM      3  N   UNL     1       8.010   3.037  25.081  0.00  0.00    -0.312 N 
ATOM      4  H   UNL     1       7.418   3.784  25.407  0.00  0.00    +0.170 HD
ATOM      5  C   UNL     1       7.610   1.737  25.286  0.00  0.00    +0.196 A 
ATOM      6  N   UNL     1       8.220   0.687  24.815  0.00  0.00    -0.195 NA
ATOM      7  C   UNL     1       9.298   0.823  23.949  0.00  0.00    +0.186 A 
ATOM      8  N   UNL     1       9.789  -0.171  23.276  0.00  0.00    -0.226 NA
ATOM      9  N   UNL     1       6.503   1.615  26.071  0.00  0.00    -0.313 N 
ATOM     10  H   UNL     1       6.141   2.426  26.552  0.00  0.00    +0.149 HD
ATOM     11  C   UNL     1       9.825   2.179  23.793  0.00  0.00    +0.150 A 
ATOM     12  N   UNL     1      10.915   2.664  23.112  0.00  0.00    -0.230 NA
ATOM     13  C   UNL     1      10.876   3.971  23.294  0.00  0.00    +0.201 A 
ENDROOT
BRANCH   8  14
ATOM     14  C   UNL     1       9.219  -1.459  23.379  0.00  0.00    +0.068 A 
ATOM     15  C   UNL     1       9.651  -2.424  24.300  0.00  0.00    +0.047 A 
ATOM     16  C   UNL     1       9.084  -3.696  24.327  0.00  0.00    +0.043 A 
ATOM     17 CL   UNL     1       9.731  -4.893  25.382  0.00  0.00    -0.083 Cl
ATOM     18  C   UNL     1       8.014  -4.007  23.496  0.00  0.00    +0.020 A 
ATOM     19  C   UNL     1       7.519  -3.037  22.626  0.00  0.00    +0.003 A 
ATOM     20  C   UNL     1       8.126  -1.775  22.565  0.00  0.00    +0.028 A 
ENDBRANCH   8  14
BRANCH   1  22
ATOM     21  C   UNL     1      10.731   6.524  24.829  0.00  0.00    +0.030 C 
ATOM     22  C   UNL     1       9.482   5.714  24.487  0.00  0.00    +0.084 C 
ATOM     23  C   UNL     1       8.609   6.423  23.456  0.00  0.00    +0.030 C 
ENDBRANCH   1  22
BRANCH   9  24
ATOM     24  C   UNL     1       6.157   0.340  26.701  0.00  0.00    +0.132 C 
BRANCH  24  25
ATOM     25  C   UNL     1       4.968  -0.308  25.982  0.00  0.00    +0.174 C 
BRANCH  25  26
ATOM     26  O   UNL     1       5.340  -0.645  24.642  0.00  0.00    -0.393 OA
ATOM     27  H   UNL     1       4.519  -0.560  24.124  0.00  0.00    +0.209 HD
ENDBRANCH  25  26
ENDBRANCH  24  25
ENDBRANCH   9  24
TORSDOF 5
ENDMDL
MODEL 6
REMARK VINA RESULT:      -6.2      2.430      3.339
REMARK  Name = 
REMARK  7 active torsions:
REMARK  status: ('A' for Active; 'I' for Inactive)
REMARK    1  A    between atoms: C_1  and  C_2
REMARK    2  A    between atoms: C_2  and  C_3
REMARK    3  A    between atoms: C_2  and  N_4
REMARK    4  A    between atoms: N_11  and  C_12
REMARK    5  A    between atoms: C_12  and  C_13
REMARK    6  A    between atoms: C_13  and  O_14
REMARK    7  A    between atoms: N_17  and  C_18
REMARK                            x       y       z     vdW  Elec       q    Type
REMARK                         _______ _______ _______ _____ _____    ______ ____
ROOT
ATOM      1  N   UNL     1       9.760  -0.434  22.863  0.00  0.00    -0.314 N 
ATOM      2  C   UNL     1       8.798  -0.879  23.715  0.00  0.00    +0.145 A 
ATOM      3  N   UNL     1       7.790  -0.219  24.303  0.00  0.00    -0.312 N 
ATOM      4  H   UNL     1       7.528   0.729  24.085  0.00  0.00    +0.170 HD
ATOM      5  C   UNL     1       7.019  -0.933  25.190  0.00  0.00    +0.196 A 
ATOM      6  N   UNL     1       7.179  -2.195  25.468  0.00  0.00    -0.195 NA
ATOM      7  C   UNL     1       8.109  -2.961  24.776  0.00  0.00    +0.186 A 
ATOM      8  N   UNL     1       8.148  -4.255  24.848  0.00  0.00    -0.226 NA
ATOM      9  N   UNL     1       6.055  -0.192  25.807  0.00  0.00    -0.313 N 
ATOM     10  H   UNL     1       6.050   0.811  25.696  0.00  0.00    +0.149 HD
ATOM     11  C   UNL     1       9.024  -2.222  23.906  0.00  0.00    +0.150 A 
ATOM     12  N   UNL     1      10.106  -2.626  23.163  0.00  0.00    -0.230 NA
ATOM     13  C   UNL     1      10.523  -1.534  22.548  0.00  0.00    +0.201 A 
ENDROOT
BRANCH   8  14
ATOM     14  C   UNL     1       7.207  -4.959  25.633  0.00  0.00    +0.068 A 
ATOM     15  C   UNL     1       6.092  -5.618  25.097  0.00  0.00    +0.047 A 
ATOM     16  C   UNL     1       5.170  -6.258  25.922  0.00  0.00    +0.043 A 
ATOM     17 CL   UNL     1       3.747  -6.942  25.235  0.00  0.00    -0.083 Cl
ATOM     18  C   UNL     1       5.384  -6.329  27.293  0.00  0.00    +0.020 A 
ATOM     19  C   UNL     1       6.526  -5.745  27.839  0.00  0.00    +0.003 A 
ATOM     20  C   UNL     1       7.425  -5.058  27.012  0.00  0.00    +0.028 A 
ENDBRANCH   8  14
BRANCH   1  22
ATOM     21  C   UNL     1       8.763   1.438  21.589  0.00  0.00    +0.030 C 
ATOM     22  C   UNL     1       9.960   0.927  22.389  0.00  0.00    +0.084 C 
ATOM     23  C   UNL     1      10.322   1.870  23.533  0.00  0.00    +0.030 C 
ENDBRANCH   1  22
BRANCH   9  24
ATOM     24  C   UNL     1       5.402  -0.665  27.029  0.00  0.00    +0.132 C 
BRANCH  24  25
ATOM     25  C   UNL     1       4.122  -1.435  26.689  0.00  0.00    +0.174 C 
BRANCH  25  26
ATOM     26  O   UNL     1       4.388  -2.841  26.694  0.00  0.00    -0.393 OA
ATOM     27  H   UNL     1       5.245  -2.938  26.240  0.00  0.00    +0.209 HD
ENDBRANCH  25  26
ENDBRANCH  24  25
ENDBRANCH   9  24
TORSDOF 5
ENDMDL
MODEL 7
REMARK VINA RESULT:      -6.2      4.033      7.174
REMARK  Name = 
REMARK  7 active torsions:
REMARK  status: ('A' for Active; 'I' for Inactive)
REMARK    1  A    between atoms: C_1  and  C_2
REMARK    2  A    between atoms: C_2  and  C_3
REMARK    3  A    between atoms: C_2  and  N_4
REMARK    4  A    between atoms: N_11  and  C_12
REMARK    5  A    between atoms: C_12  and  C_13
REMARK    6  A    between atoms: C_13  and  O_14
REMARK    7  A    between atoms: N_17  and  C_18
REMARK                            x       y       z     vdW  Elec       q    Type
REMARK                         _______ _______ _______ _____ _____    ______ ____
ROOT
ATOM      1  N   UNL     1       8.816  -2.900  25.037  0.00  0.00    -0.314 N 
ATOM      2  C   UNL     1       8.553  -1.591  25.294  0.00  0.00    +0.145 A 
ATOM      3  N   UNL     1       8.220  -0.984  26.441  0.00  0.00    -0.312 N 
ATOM      4  H   UNL     1       8.234  -1.430  27.345  0.00  0.00    +0.170 HD
ATOM      5  C   UNL     1       7.932   0.359  26.369  0.00  0.00    +0.196 A 
ATOM      6  N   UNL     1       7.994   1.076  25.284  0.00  0.00    -0.195 NA
ATOM      7  C   UNL     1       8.480   0.532  24.101  0.00  0.00    +0.186 A 
ATOM      8  N   UNL     1       8.778   1.253  23.065  0.00  0.00    -0.226 NA
ATOM      9  N   UNL     1       7.533   0.905  27.552  0.00  0.00    -0.313 N 
ATOM     10  H   UNL     1       7.341   0.303  28.339  0.00  0.00    +0.149 HD
ATOM     11  C   UNL     1       8.691  -0.915  24.104  0.00  0.00    +0.150 A 
ATOM     12  N   UNL     1       9.061  -1.787  23.109  0.00  0.00    -0.230 NA
ATOM     13  C   UNL     1       9.129  -2.967  23.699  0.00  0.00    +0.201 A 
ENDROOT
BRANCH   8  14
ATOM     14  C   UNL     1       8.642   2.659  23.106  0.00  0.00    +0.068 A 
ATOM     15  C   UNL     1       9.615   3.515  23.642  0.00  0.00    +0.047 A 
ATOM     16  C   UNL     1       9.408   4.891  23.700  0.00  0.00    +0.043 A 
ATOM     17 CL   UNL     1      10.568   5.893  24.484  0.00  0.00    -0.083 Cl
ATOM     18  C   UNL     1       8.265   5.454  23.145  0.00  0.00    +0.020 A 
ATOM     19  C   UNL     1       7.320   4.628  22.538  0.00  0.00    +0.003 A 
ATOM     20  C   UNL     1       7.507   3.239  22.529  0.00  0.00    +0.028 A 
ENDBRANCH   8  14
BRANCH   1  22
ATOM     21  C   UNL     1       7.351  -4.575  26.119  0.00  0.00    +0.030 C 
ATOM     22  C   UNL     1       8.764  -4.012  25.974  0.00  0.00    +0.084 C 
ATOM     23  C   UNL     1       9.773  -5.098  25.610  0.00  0.00    +0.030 C 
ENDBRANCH   1  22
BRANCH   9  24
ATOM     24  C   UNL     1       6.836   2.192  27.597  0.00  0.00    +0.132 C 
BRANCH  24  25
ATOM     25  C   UNL     1       6.709   2.682  29.043  0.00  0.00    +0.174 C 
BRANCH  25  26
ATOM     26  O   UNL     1       7.943   2.468  29.735  0.00  0.00    -0.393 OA
ATOM     27  H   UNL     1       8.238   1.582  29.459  0.00  0.00    +0.209 HD
ENDBRANCH  25  26
ENDBRANCH  24  25
ENDBRANCH   9  24
TORSDOF 5
ENDMDL
MODEL 8
REMARK VINA RESULT:      -6.1      2.278      3.136
REMARK  Name = 
REMARK  7 active torsions:
REMARK  status: ('A' for Active; 'I' for Inactive)
REMARK    1  A    between atoms: C_1  and  C_2
REMARK    2  A    between atoms: C_2  and  C_3
REMARK    3  A    between atoms: C_2  and  N_4
REMARK    4  A    between atoms: N_11  and  C_12
REMARK    5  A    between atoms: C_12  and  C_13
REMARK    6  A    between atoms: C_13  and  O_14
REMARK    7  A    between atoms: N_17  and  C_18
REMARK                            x       y       z     vdW  Elec       q    Type
REMARK                         _______ _______ _______ _____ _____    ______ ____
ROOT
ATOM      1  N   UNL     1       9.471   3.377  24.032  0.00  0.00    -0.314 N 
ATOM      2  C   UNL     1       8.820   2.232  24.370  0.00  0.00    +0.145 A 
ATOM      3  N   UNL     1       7.729   2.048  25.127  0.00  0.00    -0.312 N 
ATOM      4  H   UNL     1       7.144   2.793  25.471  0.00  0.00    +0.170 HD
ATOM      5  C   UNL     1       7.349   0.747  25.358  0.00  0.00    +0.196 A 
ATOM      6  N   UNL     1       7.949  -0.301  24.871  0.00  0.00    -0.195 NA
ATOM      7  C   UNL     1       8.989  -0.164  23.960  0.00  0.00    +0.186 A 
ATOM      8  N   UNL     1       9.462  -1.159  23.276  0.00  0.00    -0.226 NA
ATOM      9  N   UNL     1       6.276   0.622  26.189  0.00  0.00    -0.313 N 
ATOM     10  H   UNL     1       5.927   1.433  26.677  0.00  0.00    +0.149 HD
ATOM     11  C   UNL     1       9.497   1.195  23.773  0.00  0.00    +0.150 A 
ATOM     12  N   UNL     1      10.555   1.684  23.044  0.00  0.00    -0.230 NA
ATOM     13  C   UNL     1      10.511   2.992  23.218  0.00  0.00    +0.201 A 
ENDROOT
BRANCH   8  14
ATOM     14  C   UNL     1       8.907  -2.451  23.412  0.00  0.00    +0.068 A 
ATOM     15  C   UNL     1       7.950  -2.978  22.534  0.00  0.00    +0.047 A 
ATOM     16  C   UNL     1       7.402  -4.242  22.742  0.00  0.00    +0.043 A 
ATOM     17 CL   UNL     1       6.136  -4.798  21.717  0.00  0.00    -0.083 Cl
ATOM     18  C   UNL     1       7.859  -5.043  23.781  0.00  0.00    +0.020 A 
ATOM     19  C   UNL     1       8.865  -4.568  24.622  0.00  0.00    +0.003 A 
ATOM     20  C   UNL     1       9.377  -3.276  24.440  0.00  0.00    +0.028 A 
ENDBRANCH   8  14
BRANCH   1  22
ATOM     21  C   UNL     1      10.315   5.695  24.219  0.00  0.00    +0.030 C 
ATOM     22  C   UNL     1       9.152   4.732  24.453  0.00  0.00    +0.084 C 
ATOM     23  C   UNL     1       7.863   5.230  23.804  0.00  0.00    +0.030 C 
ENDBRANCH   1  22
BRANCH   9  24
ATOM     24  C   UNL     1       5.967  -0.652  26.842  0.00  0.00    +0.132 C 
BRANCH  24  25
ATOM     25  C   UNL     1       4.899  -1.414  26.051  0.00  0.00    +0.174 C 
BRANCH  25  26
ATOM     26  O   UNL     1       5.527  -2.278  25.100  0.00  0.00    -0.393 OA
ATOM     27  H   UNL     1       4.971  -2.222  24.301  0.00  0.00    +0.209 HD
ENDBRANCH  25  26
ENDBRANCH  24  25
ENDBRANCH   9  24
TORSDOF 5
ENDMDL
MODEL 9
REMARK VINA RESULT:      -6.1      2.891      4.721
REMARK  Name = 
REMARK  7 active torsions:
REMARK  status: ('A' for Active; 'I' for Inactive)
REMARK    1  A    between atoms: C_1  and  C_2
REMARK    2  A    between atoms: C_2  and  C_3
REMARK    3  A    between atoms: C_2  and  N_4
REMARK    4  A    between atoms: N_11  and  C_12
REMARK    5  A    between atoms: C_12  and  C_13
REMARK    6  A    between atoms: C_13  and  O_14
REMARK    7  A    between atoms: N_17  and  C_18
REMARK                            x       y       z     vdW  Elec       q    Type
REMARK                         _______ _______ _______ _____ _____    ______ ____
ROOT
ATOM      1  N   UNL     1       8.634   4.535  25.179  0.00  0.00    -0.314 N 
ATOM      2  C   UNL     1       8.713   3.263  24.705  0.00  0.00    +0.145 A 
ATOM      3  N   UNL     1       9.494   2.742  23.749  0.00  0.00    -0.312 N 
ATOM      4  H   UNL     1      10.256   3.233  23.308  0.00  0.00    +0.170 HD
ATOM      5  C   UNL     1       9.284   1.422  23.431  0.00  0.00    +0.196 A 
ATOM      6  N   UNL     1       8.415   0.645  24.010  0.00  0.00    -0.195 NA
ATOM      7  C   UNL     1       7.688   1.090  25.107  0.00  0.00    +0.186 A 
ATOM      8  N   UNL     1       6.988   0.295  25.856  0.00  0.00    -0.226 NA
ATOM      9  N   UNL     1      10.060   0.969  22.405  0.00  0.00    -0.313 N 
ATOM     10  H   UNL     1      10.610   1.623  21.869  0.00  0.00    +0.149 HD
ATOM     11  C   UNL     1       7.796   2.517  25.409  0.00  0.00    +0.150 A 
ATOM     12  N   UNL     1       7.161   3.307  26.336  0.00  0.00    -0.230 NA
ATOM     13  C   UNL     1       7.685   4.508  26.175  0.00  0.00    +0.201 A 
ENDROOT
BRANCH   8  14
ATOM     14  C   UNL     1       6.955  -1.093  25.597  0.00  0.00    +0.068 A 
ATOM     15  C   UNL     1       7.771  -2.022  26.258  0.00  0.00    +0.047 A 
ATOM     16  C   UNL     1       7.732  -3.375  25.929  0.00  0.00    +0.043 A 
ATOM     17 CL   UNL     1       8.842  -4.462  26.671  0.00  0.00    -0.083 Cl
ATOM     18  C   UNL     1       6.816  -3.845  24.996  0.00  0.00    +0.020 A 
ATOM     19  C   UNL     1       5.943  -2.948  24.381  0.00  0.00    +0.003 A 
ATOM     20  C   UNL     1       6.021  -1.581  24.677  0.00  0.00    +0.028 A 
ENDBRANCH   8  14
BRANCH   1  22
ATOM     21  C   UNL     1       8.833   6.257  23.414  0.00  0.00    +0.030 C 
ATOM     22  C   UNL     1       9.383   5.696  24.724  0.00  0.00    +0.084 C 
ATOM     23  C   UNL     1       9.470   6.766  25.808  0.00  0.00    +0.030 C 
ENDBRANCH   1  22
BRANCH   9  24
ATOM     24  C   UNL     1       9.724  -0.262  21.687  0.00  0.00    +0.132 C 
BRANCH  24  25
ATOM     25  C   UNL     1      10.381  -1.472  22.360  0.00  0.00    +0.174 C 
BRANCH  25  26
ATOM     26  O   UNL     1       9.410  -2.177  23.139  0.00  0.00    -0.393 OA
ATOM     27  H   UNL     1       9.841  -3.018  23.380  0.00  0.00    +0.209 HD
ENDBRANCH  25  26
ENDBRANCH  24  25
ENDBRANCH   9  24
TORSDOF 5
ENDMDL
