MODEL 1
REMARK VINA RESULT:      -5.1      0.000      0.000
REMARK  Name = 
REMARK  5 active torsions:
REMARK  status: ('A' for Active; 'I' for Inactive)
REMARK    1  A    between atoms: C_1  and  C_2
REMARK    2  A    between atoms: C_3  and  O_4
REMARK    3  A    between atoms: C_5  and  C_6
REMARK    4  A    between atoms: C_5  and  C_10
REMARK    5  A    between atoms: C_11  and  C_12
REMARK                            x       y       z     vdW  Elec       q    Type
REMARK                         _______ _______ _______ _____ _____    ______ ____
ROOT
ATOM      1  C   UNL     1       9.822  -2.265  24.137  0.00  0.00    +0.052 C 
ATOM      2  C   UNL     1       9.778  -0.853  23.668  0.00  0.00    +0.042 C 
ATOM      3  C   UNL     1       9.404  -0.594  22.264  0.00  0.00    +0.220 C 
ATOM      4  O   UNL     1       9.029  -1.455  21.484  0.00  0.00    -0.280 OA
ATOM      5  S   UNL     1       9.554   1.093  21.849  0.00  0.00    -0.065 S 
ATOM      6  C   UNL     1       9.826   1.604  23.590  0.00  0.00    +0.097 C 
ATOM      7  C   UNL     1       8.560   2.323  24.076  0.00  0.00    +0.036 C 
ATOM      8  C   UNL     1       9.998   0.290  24.336  0.00  0.00    +0.121 C 
ENDROOT
BRANCH   6   9
ATOM      9  C   UNL     1      11.013   2.553  23.613  0.00  0.00    -0.002 C 
ATOM     10  C   UNL     1      11.032   3.861  23.308  0.00  0.00    -0.003 C 
BRANCH  10  11
ATOM     11  C   UNL     1      12.241   4.653  23.304  0.00  0.00    -0.008 C 
ATOM     12  C   UNL     1      12.335   5.832  23.930  0.00  0.00    +0.008 C 
ENDBRANCH  10  11
ENDBRANCH   6   9
BRANCH   8  13
ATOM     13  O   UNL     1      10.314   0.362  25.678  0.00  0.00    -0.509 OA
ATOM     14  H   UNL     1       9.761  -0.254  26.186  0.00  0.00    +0.292 HD
ENDBRANCH   8  13
TORSDOF 3
ENDMDL
MODEL 2
REMARK VINA RESULT:      -5.0      3.208      4.838
REMARK  Name = 
REMARK  5 active torsions:
REMARK  status: ('A' for Active; 'I' for Inactive)
REMARK    1  A    between atoms: C_1  and  C_2
REMARK    2  A    between atoms: C_3  and  O_4
REMARK    3  A    between atoms: C_5  and  C_6
REMARK    4  A    between atoms: C_5  and  C_10
REMARK    5  A    between atoms: C_11  and  C_12
REMARK                            x       y       z     vdW  Elec       q    Type
REMARK                         _______ _______ _______ _____ _____    ______ ____
ROOT
ATOM      1  C   UNL     1       7.214  -5.832  21.911  0.00  0.00    +0.052 C 
ATOM      2  C   UNL     1       7.308  -4.526  22.619  0.00  0.00    +0.042 C 
ATOM      3  C   UNL     1       6.403  -3.438  22.199  0.00  0.00    +0.220 C 
ATOM      4  O   UNL     1       5.510  -3.567  21.376  0.00  0.00    -0.280 OA
ATOM      5  S   UNL     1       6.754  -1.943  23.025  0.00  0.00    -0.065 S 
ATOM      6  C   UNL     1       7.918  -2.742  24.196  0.00  0.00    +0.097 C 
ATOM      7  C   UNL     1       7.242  -2.794  25.573  0.00  0.00    +0.036 C 
ATOM      8  C   UNL     1       8.086  -4.149  23.645  0.00  0.00    +0.121 C 
ENDROOT
BRANCH   6   9
ATOM      9  C   UNL     1       9.172  -1.887  24.257  0.00  0.00    -0.002 C 
ATOM     10  C   UNL     1       9.305  -0.647  24.757  0.00  0.00    -0.003 C 
BRANCH  10  11
ATOM     11  C   UNL     1      10.543   0.098  24.702  0.00  0.00    -0.008 C 
ATOM     12  C   UNL     1      10.617   1.342  24.214  0.00  0.00    +0.008 C 
ENDBRANCH  10  11
ENDBRANCH   6   9
BRANCH   8  13
ATOM     13  O   UNL     1       8.994  -4.972  24.280  0.00  0.00    -0.509 OA
ATOM     14  H   UNL     1       9.408  -5.573  23.638  0.00  0.00    +0.292 HD
ENDBRANCH   8  13
TORSDOF 3
ENDMDL
MODEL 3
REMARK VINA RESULT:      -4.9      3.459      6.516
REMARK  Name = 
REMARK  5 active torsions:
REMARK  status: ('A' for Active; 'I' for Inactive)
REMARK    1  A    between atoms: C_1  and  C_2
REMARK    2  A    between atoms: C_3  and  O_4
REMARK    3  A    between atoms: C_5  and  C_6
REMARK    4  A    between atoms: C_5  and  C_10
REMARK    5  A    between atoms: C_11  and  C_12
REMARK                            x       y       z     vdW  Elec       q    Type
REMARK                         _______ _______ _______ _____ _____    ______ ____
ROOT
ATOM      1  C   UNL     1       7.213   1.667  22.315  0.00  0.00    +0.052 C 
ATOM      2  C   UNL     1       7.854   0.336  22.497  0.00  0.00    +0.042 C 
ATOM      3  C   UNL     1       9.271   0.184  22.112  0.00  0.00    +0.220 C 
ATOM      4  O   UNL     1       9.985   1.105  21.747  0.00  0.00    -0.280 OA
ATOM      5  S   UNL     1       9.811  -1.468  22.248  0.00  0.00    -0.065 S 
ATOM      6  C   UNL     1       8.284  -2.005  23.113  0.00  0.00    +0.097 C 
ATOM      7  C   UNL     1       8.640  -2.265  24.583  0.00  0.00    +0.036 C 
ATOM      8  C   UNL     1       7.359  -0.803  23.005  0.00  0.00    +0.121 C 
ENDROOT
BRANCH   6   9
ATOM      9  C   UNL     1       7.804  -3.286  22.452  0.00  0.00    -0.002 C 
ATOM     10  C   UNL     1       7.567  -4.476  23.029  0.00  0.00    -0.003 C 
BRANCH  10  11
ATOM     11  C   UNL     1       7.172  -5.650  22.284  0.00  0.00    -0.008 C 
ATOM     12  C   UNL     1       6.374  -5.592  21.211  0.00  0.00    +0.008 C 
ENDBRANCH  10  11
ENDBRANCH   6   9
BRANCH   8  13
ATOM     13  O   UNL     1       6.077  -0.946  23.497  0.00  0.00    -0.509 OA
ATOM     14  H   UNL     1       6.098  -1.381  24.365  0.00  0.00    +0.292 HD
ENDBRANCH   8  13
TORSDOF 3
ENDMDL
MODEL 4
REMARK VINA RESULT:      -4.6      4.771      7.005
REMARK  Name = 
REMARK  5 active torsions:
REMARK  status: ('A' for Active; 'I' for Inactive)
REMARK    1  A    between atoms: C_1  and  C_2
REMARK    2  A    between atoms: C_3  and  O_4
REMARK    3  A    between atoms: C_5  and  C_6
REMARK    4  A    between atoms: C_5  and  C_10
REMARK    5  A    between atoms: C_11  and  C_12
REMARK                            x       y       z     vdW  Elec       q    Type
REMARK                         _______ _______ _______ _____ _____    ______ ____
ROOT
ATOM      1  C   UNL     1       4.211  -5.302  25.526  0.00  0.00    +0.052 C 
ATOM      2  C   UNL     1       5.445  -5.086  24.724  0.00  0.00    +0.042 C 
ATOM      3  C   UNL     1       6.747  -5.395  25.349  0.00  0.00    +0.220 C 
ATOM      4  O   UNL     1       6.875  -5.914  26.447  0.00  0.00    -0.280 OA
ATOM      5  S   UNL     1       8.085  -4.940  24.328  0.00  0.00    -0.065 S 
ATOM      6  C   UNL     1       7.003  -4.593  22.888  0.00  0.00    +0.097 C 
ATOM      7  C   UNL     1       7.214  -5.712  21.858  0.00  0.00    +0.036 C 
ATOM      8  C   UNL     1       5.596  -4.668  23.458  0.00  0.00    +0.121 C 
ENDROOT
BRANCH   6   9
ATOM      9  C   UNL     1       7.424  -3.255  22.304  0.00  0.00    -0.002 C 
ATOM     10  C   UNL     1       8.330  -2.389  22.788  0.00  0.00    -0.003 C 
BRANCH  10  11
ATOM     11  C   UNL     1       8.604  -1.108  22.178  0.00  0.00    -0.008 C 
ATOM     12  C   UNL     1       9.836  -0.724  21.823  0.00  0.00    +0.008 C 
ENDBRANCH  10  11
ENDBRANCH   6   9
BRANCH   8  13
ATOM     13  O   UNL     1       4.553  -4.355  22.610  0.00  0.00    -0.509 OA
ATOM     14  H   UNL     1       3.720  -4.718  22.955  0.00  0.00    +0.292 HD
ENDBRANCH   8  13
TORSDOF 3
ENDMDL
MODEL 5
REMARK VINA RESULT:      -4.6      4.707      6.641
REMARK  Name = 
REMARK  5 active torsions:
REMARK  status: ('A' for Active; 'I' for Inactive)
REMARK    1  A    between atoms: C_1  and  C_2
REMARK    2  A    between atoms: C_3  and  O_4
REMARK    3  A    between atoms: C_5  and  C_6
REMARK    4  A    between atoms: C_5  and  C_10
REMARK    5  A    between atoms: C_11  and  C_12
REMARK                            x       y       z     vdW  Elec       q    Type
REMARK                         _______ _______ _______ _____ _____    ______ ____
ROOT
ATOM      1  C   UNL     1       5.153  -4.349  27.012  0.00  0.00    +0.052 C 
ATOM      2  C   UNL     1       6.299  -4.459  26.069  0.00  0.00    +0.042 C 
ATOM      3  C   UNL     1       7.512  -5.169  26.523  0.00  0.00    +0.220 C 
ATOM      4  O   UNL     1       7.602  -5.763  27.586  0.00  0.00    -0.280 OA
ATOM      5  S   UNL     1       8.803  -5.069  25.355  0.00  0.00    -0.065 S 
ATOM      6  C   UNL     1       7.718  -4.343  24.065  0.00  0.00    +0.097 C 
ATOM      7  C   UNL     1       7.472  -5.416  22.996  0.00  0.00    +0.036 C 
ATOM      8  C   UNL     1       6.425  -4.035  24.803  0.00  0.00    +0.121 C 
ENDROOT
BRANCH   6   9
ATOM      9  C   UNL     1       8.450  -3.156  23.461  0.00  0.00    -0.002 C 
ATOM     10  C   UNL     1       9.644  -2.652  23.815  0.00  0.00    -0.003 C 
BRANCH  10  11
ATOM     11  C   UNL     1      10.215  -1.472  23.206  0.00  0.00    -0.008 C 
ATOM     12  C   UNL     1       9.846  -1.031  21.998  0.00  0.00    +0.008 C 
ENDBRANCH  10  11
ENDBRANCH   6   9
BRANCH   8  13
ATOM     13  O   UNL     1       5.434  -3.385  24.095  0.00  0.00    -0.509 OA
ATOM     14  H   UNL     1       5.356  -2.465  24.397  0.00  0.00    +0.292 HD
ENDBRANCH   8  13
TORSDOF 3
ENDMDL
MODEL 6
REMARK VINA RESULT:      -4.6      3.224      4.564
REMARK  Name = 
REMARK  5 active torsions:
REMARK  status: ('A' for Active; 'I' for Inactive)
REMARK    1  A    between atoms: C_1  and  C_2
REMARK    2  A    between atoms: C_3  and  O_4
REMARK    3  A    between atoms: C_5  and  C_6
REMARK    4  A    between atoms: C_5  and  C_10
REMARK    5  A    between atoms: C_11  and  C_12
REMARK                            x       y       z     vdW  Elec       q    Type
REMARK                         _______ _______ _______ _____ _____    ______ ____
ROOT
ATOM      1  C   UNL     1       9.068  -5.267  25.015  0.00  0.00    +0.052 C 
ATOM      2  C   UNL     1       8.316  -4.242  24.242  0.00  0.00    +0.042 C 
ATOM      3  C   UNL     1       7.490  -4.692  23.105  0.00  0.00    +0.220 C 
ATOM      4  O   UNL     1       7.299  -5.862  22.816  0.00  0.00    -0.280 OA
ATOM      5  S   UNL     1       6.807  -3.351  22.223  0.00  0.00    -0.065 S 
ATOM      6  C   UNL     1       7.324  -2.124  23.486  0.00  0.00    +0.097 C 
ATOM      7  C   UNL     1       6.068  -1.658  24.234  0.00  0.00    +0.036 C 
ATOM      8  C   UNL     1       8.224  -2.915  24.420  0.00  0.00    +0.121 C 
ENDROOT
BRANCH   6   9
ATOM      9  C   UNL     1       7.967  -0.955  22.758  0.00  0.00    -0.002 C 
ATOM     10  C   UNL     1       9.131  -0.937  22.087  0.00  0.00    -0.003 C 
BRANCH  10  11
ATOM     11  C   UNL     1       9.677   0.258  21.485  0.00  0.00    -0.008 C 
ATOM     12  C   UNL     1       9.708   1.437  22.117  0.00  0.00    +0.008 C 
ENDBRANCH  10  11
ENDBRANCH   6   9
BRANCH   8  13
ATOM     13  O   UNL     1       8.847  -2.219  25.437  0.00  0.00    -0.509 OA
ATOM     14  H   UNL     1       8.424  -2.420  26.288  0.00  0.00    +0.292 HD
ENDBRANCH   8  13
TORSDOF 3
ENDMDL
MODEL 7
REMARK VINA RESULT:      -4.5      2.722      3.916
REMARK  Name = 
REMARK  5 active torsions:
REMARK  status: ('A' for Active; 'I' for Inactive)
REMARK    1  A    between atoms: C_1  and  C_2
REMARK    2  A    between atoms: C_3  and  O_4
REMARK    3  A    between atoms: C_5  and  C_6
REMARK    4  A    between atoms: C_5  and  C_10
REMARK    5  A    between atoms: C_11  and  C_12
REMARK                            x       y       z     vdW  Elec       q    Type
REMARK                         _______ _______ _______ _____ _____    ______ ____
ROOT
ATOM      1  C   UNL     1       7.578  -5.015  22.981  0.00  0.00    +0.052 C 
ATOM      2  C   UNL     1       7.670  -3.636  23.532  0.00  0.00    +0.042 C 
ATOM      3  C   UNL     1       6.440  -2.822  23.587  0.00  0.00    +0.220 C 
ATOM      4  O   UNL     1       5.328  -3.238  23.304  0.00  0.00    -0.280 OA
ATOM      5  S   UNL     1       6.760  -1.190  24.114  0.00  0.00    -0.065 S 
ATOM      6  C   UNL     1       8.492  -1.572  24.585  0.00  0.00    +0.097 C 
ATOM      7  C   UNL     1       8.574  -1.578  26.118  0.00  0.00    +0.036 C 
ATOM      8  C   UNL     1       8.719  -2.975  24.045  0.00  0.00    +0.121 C 
ENDROOT
BRANCH   6   9
ATOM      9  C   UNL     1       9.378  -0.477  24.015  0.00  0.00    -0.002 C 
ATOM     10  C   UNL     1       9.724   0.689  24.586  0.00  0.00    -0.003 C 
BRANCH  10  11
ATOM     11  C   UNL     1      10.527   1.687  23.918  0.00  0.00    -0.008 C 
ATOM     12  C   UNL     1      10.310   2.061  22.651  0.00  0.00    +0.008 C 
ENDBRANCH  10  11
ENDBRANCH   6   9
BRANCH   8  13
ATOM     13  O   UNL     1       9.988  -3.502  24.173  0.00  0.00    -0.509 OA
ATOM     14  H   UNL     1      10.286  -3.869  23.324  0.00  0.00    +0.292 HD
ENDBRANCH   8  13
TORSDOF 3
ENDMDL
MODEL 8
REMARK VINA RESULT:      -4.5      5.053      8.439
REMARK  Name = 
REMARK  5 active torsions:
REMARK  status: ('A' for Active; 'I' for Inactive)
REMARK    1  A    between atoms: C_1  and  C_2
REMARK    2  A    between atoms: C_3  and  O_4
REMARK    3  A    between atoms: C_5  and  C_6
REMARK    4  A    between atoms: C_5  and  C_10
REMARK    5  A    between atoms: C_11  and  C_12
REMARK                            x       y       z     vdW  Elec       q    Type
REMARK                         _______ _______ _______ _____ _____    ______ ____
ROOT
ATOM      1  C   UNL     1       9.796  -2.628  23.757  0.00  0.00    +0.052 C 
ATOM      2  C   UNL     1       8.528  -3.339  23.438  0.00  0.00    +0.042 C 
ATOM      3  C   UNL     1       7.505  -2.622  22.651  0.00  0.00    +0.220 C 
ATOM      4  O   UNL     1       7.669  -1.518  22.155  0.00  0.00    -0.280 OA
ATOM      5  S   UNL     1       6.032  -3.544  22.502  0.00  0.00    -0.065 S 
ATOM      6  C   UNL     1       6.787  -5.058  23.212  0.00  0.00    +0.097 C 
ATOM      7  C   UNL     1       6.975  -6.070  22.074  0.00  0.00    +0.036 C 
ATOM      8  C   UNL     1       8.139  -4.590  23.724  0.00  0.00    +0.121 C 
ENDROOT
BRANCH   6   9
ATOM      9  C   UNL     1       5.826  -5.609  24.252  0.00  0.00    -0.002 C 
ATOM     10  C   UNL     1       4.961  -6.630  24.122  0.00  0.00    -0.003 C 
BRANCH  10  11
ATOM     11  C   UNL     1       4.045  -7.026  25.167  0.00  0.00    -0.008 C 
ATOM     12  C   UNL     1       4.192  -6.645  26.442  0.00  0.00    +0.008 C 
ENDBRANCH  10  11
ENDBRANCH   6   9
BRANCH   8  13
ATOM     13  O   UNL     1       8.910  -5.511  24.404  0.00  0.00    -0.509 OA
ATOM     14  H   UNL     1       8.346  -6.080  24.954  0.00  0.00    +0.292 HD
ENDBRANCH   8  13
TORSDOF 3
ENDMDL
MODEL 9
REMARK VINA RESULT:      -4.3      2.978      3.864
REMARK  Name = 
REMARK  5 active torsions:
REMARK  status: ('A' for Active; 'I' for Inactive)
REMARK    1  A    between atoms: C_1  and  C_2
REMARK    2  A    between atoms: C_3  and  O_4
REMARK    3  A    between atoms: C_5  and  C_6
REMARK    4  A    between atoms: C_5  and  C_10
REMARK    5  A    between atoms: C_11  and  C_12
REMARK                            x       y       z     vdW  Elec       q    Type
REMARK                         _______ _______ _______ _____ _____    ______ ____
ROOT
ATOM      1  C   UNL     1       9.078  -3.991  24.357  0.00  0.00    +0.052 C 
ATOM      2  C   UNL     1       9.142  -2.509  24.473  0.00  0.00    +0.042 C 
ATOM      3  C   UNL     1       8.472  -1.869  25.622  0.00  0.00    +0.220 C 
ATOM      4  O   UNL     1       7.954  -2.481  26.542  0.00  0.00    -0.280 OA
ATOM      5  S   UNL     1       8.516  -0.128  25.517  0.00  0.00    -0.065 S 
ATOM      6  C   UNL     1       9.686  -0.140  24.103  0.00  0.00    +0.097 C 
ATOM      7  C   UNL     1      11.054   0.330  24.619  0.00  0.00    +0.036 C 
ATOM      8  C   UNL     1       9.757  -1.603  23.697  0.00  0.00    +0.121 C 
ENDROOT
BRANCH   6   9
ATOM      9  C   UNL     1       9.157   0.826  23.057  0.00  0.00    -0.002 C 
ATOM     10  C   UNL     1       7.910   1.310  22.933  0.00  0.00    -0.003 C 
BRANCH  10  11
ATOM     11  C   UNL     1       7.505   2.180  21.852  0.00  0.00    -0.008 C 
ATOM     12  C   UNL     1       6.664   3.207  22.026  0.00  0.00    +0.008 C 
ENDBRANCH  10  11
ENDBRANCH   6   9
BRANCH   8  13
ATOM     13  O   UNL     1      10.506  -1.913  22.579  0.00  0.00    -0.509 OA
ATOM     14  H   UNL     1      11.252  -1.297  22.495  0.00  0.00    +0.292 HD
ENDBRANCH   8  13
TORSDOF 3
ENDMDL
