MODEL 1
REMARK VINA RESULT:      -5.5      0.000      0.000
REMARK  Name = 
REMARK  36 active torsions:
REMARK  status: ('A' for Active; 'I' for Inactive)
REMARK    1  A    between atoms: O_1  and  C_2
REMARK    2  A    between atoms: C_2  and  C_3
REMARK    3  A    between atoms: C_6  and  S_8
REMARK    4  A    between atoms: S_8  and  C_9
REMARK    5  A    between atoms: C_11  and  O_13
REMARK    6  A    between atoms: C_14  and  O_16
REMARK    7  A    between atoms: C_17  and  O_19
REMARK    8  A    between atoms: O_19  and  C_20
REMARK    9  A    between atoms: C_22  and  O_24
REMARK   10  A    between atoms: C_25  and  O_27
REMARK   11  A    between atoms: C_28  and  S_35
REMARK   12  A    between atoms: C_31  and  C_33
REMARK   13  A    between atoms: C_33  and  O_34
REMARK   14  A    between atoms: S_35  and  C_36
REMARK   15  A    between atoms: C_38  and  O_40
REMARK   16  A    between atoms: C_41  and  O_43
REMARK   17  A    between atoms: C_44  and  O_46
REMARK   18  A    between atoms: O_46  and  C_47
REMARK   19  A    between atoms: C_49  and  O_51
REMARK   20  A    between atoms: C_52  and  O_54
REMARK   21  A    between atoms: C_55  and  S_62
REMARK   22  A    between atoms: C_58  and  C_60
REMARK   23  A    between atoms: C_60  and  O_61
REMARK   24  A    between atoms: S_62  and  C_63
REMARK   25  A    between atoms: C_65  and  O_67
REMARK   26  A    between atoms: C_68  and  O_70
REMARK   27  A    between atoms: C_71  and  O_73
REMARK   28  A    between atoms: C_75  and  C_77
REMARK   29  A    between atoms: C_77  and  O_78
REMARK   30  A    between atoms: C_80  and  C_82
REMARK   31  A    between atoms: C_82  and  O_83
REMARK   32  A    between atoms: C_85  and  C_87
REMARK   33  A    between atoms: C_87  and  O_88
REMARK   34  A    between atoms: C_89  and  O_91
REMARK   35  A    between atoms: C_92  and  O_94
REMARK   36  A    between atoms: C_95  and  O_97
REMARK                            x       y       z     vdW  Elec       q    Type
REMARK                         _______ _______ _______ _____ _____    ______ ____
ROOT
ATOM      1  S   UNL     1       4.239  -6.686  23.439  0.00  0.00    -0.118 S 
ENDROOT
BRANCH   1   5
ATOM      2  C   UNL     1       0.853  -6.273  26.556  0.00  0.00    +0.183 C 
ATOM      3  C   UNL     1       0.716  -5.846  25.063  0.00  0.00    +0.176 C 
ATOM      4  O   UNL     1       1.725  -6.389  24.210  0.00  0.00    -0.355 OA
ATOM      5  C   UNL     1       3.016  -6.445  24.786  0.00  0.00    +0.207 C 
ATOM      6  C   UNL     1       2.991  -7.591  25.805  0.00  0.00    +0.184 C 
ATOM      7  C   UNL     1       2.045  -7.194  26.945  0.00  0.00    +0.178 C 
BRANCH   6   8
ATOM      8  O   UNL     1       2.540  -8.828  25.226  0.00  0.00    -0.386 OA
ATOM      9  H   UNL     1       2.264  -8.596  24.315  0.00  0.00    +0.210 HD
ENDBRANCH   6   8
BRANCH   7  10
ATOM     10  O   UNL     1       1.572  -8.391  27.607  0.00  0.00    -0.386 OA
ATOM     11  H   UNL     1       0.596  -8.353  27.595  0.00  0.00    +0.210 HD
ENDBRANCH   7  10
BRANCH   3  12
ATOM     12  C   UNL     1       0.443  -4.387  24.652  0.00  0.00    +0.190 C 
BRANCH  12  13
ATOM     13  O   UNL     1       1.226  -3.427  25.340  0.00  0.00    -0.392 OA
ATOM     14  H   UNL     1       1.295  -3.707  26.266  0.00  0.00    +0.210 HD
ENDBRANCH  12  13
ENDBRANCH   3  12
BRANCH   2  15
ATOM     15  O   UNL     1       0.610  -5.277  27.546  0.00  0.00    -0.340 OA
BRANCH  15  19
ATOM     16  C   UNL     1       3.280  -2.306  28.748  0.00  0.00    +0.111 C 
ATOM     17  C   UNL     1       3.854  -3.570  28.069  0.00  0.00    +0.162 C 
ATOM     18  O   UNL     1       2.836  -4.434  27.525  0.00  0.00    -0.342 OA
ATOM     19  C   UNL     1       1.687  -4.712  28.314  0.00  0.00    +0.282 C 
ATOM     20  C   UNL     1       1.083  -3.475  29.005  0.00  0.00    +0.200 C 
ATOM     21  C   UNL     1       2.164  -2.702  29.738  0.00  0.00    +0.163 C 
BRANCH  20  22
ATOM     22  O   UNL     1       0.443  -2.577  28.078  0.00  0.00    -0.384 OA
ATOM     23  H   UNL     1       0.850  -1.706  28.249  0.00  0.00    +0.210 HD
ENDBRANCH  20  22
BRANCH  21  24
ATOM     24  O   UNL     1       1.542  -1.539  30.320  0.00  0.00    -0.388 OA
ATOM     25  H   UNL     1       2.016  -1.385  31.159  0.00  0.00    +0.210 HD
ENDBRANCH  21  24
BRANCH  17  26
ATOM     26  C   UNL     1       4.858  -4.391  28.901  0.00  0.00    +0.188 C 
BRANCH  26  27
ATOM     27  O   UNL     1       6.011  -4.742  28.145  0.00  0.00    -0.392 OA
ATOM     28  H   UNL     1       5.710  -4.941  27.238  0.00  0.00    +0.210 HD
ENDBRANCH  26  27
ENDBRANCH  17  26
BRANCH  16  29
ATOM     29  S   UNL     1       4.438  -1.215  29.697  0.00  0.00    -0.118 S 
BRANCH  29  34
ATOM     30  C   UNL     1       5.747   2.285  28.168  0.00  0.00    +0.176 C 
ATOM     31  C   UNL     1       6.025   1.907  26.700  0.00  0.00    +0.176 C 
ATOM     32  C   UNL     1       4.925   0.928  26.237  0.00  0.00    +0.177 C 
ATOM     33  C   UNL     1       4.824  -0.255  27.197  0.00  0.00    +0.184 C 
ATOM     34  C   UNL     1       4.592   0.263  28.633  0.00  0.00    +0.207 C 
ATOM     35  O   UNL     1       5.678   1.110  29.009  0.00  0.00    -0.355 OA
BRANCH  33  36
ATOM     36  O   UNL     1       6.033  -1.037  27.083  0.00  0.00    -0.386 OA
ATOM     37  H   UNL     1       5.770  -1.927  26.829  0.00  0.00    +0.210 HD
ENDBRANCH  33  36
BRANCH  32  38
ATOM     38  O   UNL     1       5.155   0.493  24.893  0.00  0.00    -0.386 OA
ATOM     39  H   UNL     1       5.834  -0.213  24.940  0.00  0.00    +0.210 HD
ENDBRANCH  32  38
BRANCH  31  40
ATOM     40  O   UNL     1       6.031   3.091  25.895  0.00  0.00    -0.386 OA
ATOM     41  H   UNL     1       6.465   2.885  25.046  0.00  0.00    +0.210 HD
ENDBRANCH  31  40
BRANCH  30  42
ATOM     42  C   UNL     1       6.804   3.266  28.697  0.00  0.00    +0.190 C 
BRANCH  42  43
ATOM     43  O   UNL     1       6.482   4.580  28.235  0.00  0.00    -0.392 OA
ATOM     44  H   UNL     1       6.033   5.040  28.966  0.00  0.00    +0.210 HD
ENDBRANCH  42  43
ENDBRANCH  30  42
ENDBRANCH  29  34
ENDBRANCH  16  29
ENDBRANCH  15  19
ENDBRANCH   2  15
ENDBRANCH   1   5
BRANCH   1  45
ATOM     45  C   UNL     1       5.530  -5.471  23.968  0.00  0.00    +0.111 C 
ATOM     46  C   UNL     1       6.858  -5.640  23.177  0.00  0.00    +0.162 C 
ATOM     47  O   UNL     1       7.874  -4.726  23.665  0.00  0.00    -0.342 OA
ATOM     48  C   UNL     1       7.515  -3.322  23.610  0.00  0.00    +0.282 C 
ATOM     49  C   UNL     1       6.238  -3.127  24.456  0.00  0.00    +0.200 C 
ATOM     50  C   UNL     1       5.118  -3.989  23.860  0.00  0.00    +0.163 C 
BRANCH  49  51
ATOM     51  O   UNL     1       6.484  -3.497  25.824  0.00  0.00    -0.384 OA
ATOM     52  H   UNL     1       5.705  -3.996  26.141  0.00  0.00    +0.210 HD
ENDBRANCH  49  51
BRANCH  50  53
ATOM     53  O   UNL     1       3.911  -3.622  24.505  0.00  0.00    -0.388 OA
ATOM     54  H   UNL     1       4.101  -3.478  25.456  0.00  0.00    +0.210 HD
ENDBRANCH  50  53
BRANCH  48  55
ATOM     55  O   UNL     1       8.645  -2.577  24.086  0.00  0.00    -0.340 OA
BRANCH  55  56
ATOM     56  C   UNL     1       8.812  -1.245  23.568  0.00  0.00    +0.183 C 
ATOM     57  C   UNL     1       8.562  -0.225  24.700  0.00  0.00    +0.176 C 
ATOM     58  O   UNL     1       8.702   1.142  24.257  0.00  0.00    -0.355 OA
ATOM     59  C   UNL     1       9.942   1.456  23.624  0.00  0.00    +0.207 C 
ATOM     60  C   UNL     1      10.231   0.497  22.446  0.00  0.00    +0.184 C 
ATOM     61  C   UNL     1      10.197  -0.959  22.944  0.00  0.00    +0.178 C 
BRANCH  60  62
ATOM     62  O   UNL     1       9.241   0.593  21.399  0.00  0.00    -0.386 OA
ATOM     63  H   UNL     1       9.693   0.968  20.615  0.00  0.00    +0.210 HD
ENDBRANCH  60  62
BRANCH  61  64
ATOM     64  O   UNL     1      10.456  -1.835  21.835  0.00  0.00    -0.386 OA
ATOM     65  H   UNL     1      10.102  -1.384  21.047  0.00  0.00    +0.210 HD
ENDBRANCH  61  64
BRANCH  59  66
ATOM     66  S   UNL     1       9.883   3.178  22.978  0.00  0.00    -0.118 S 
BRANCH  66  67
ATOM     67  C   UNL     1       8.396   3.876  23.872  0.00  0.00    +0.111 C 
ATOM     68  C   UNL     1       7.234   4.165  22.878  0.00  0.00    +0.162 C 
ATOM     69  O   UNL     1       7.553   5.257  21.991  0.00  0.00    -0.342 OA
ATOM     70  C   UNL     1       7.806   6.488  22.672  0.00  0.00    +0.279 C 
ATOM     71  C   UNL     1       8.966   6.365  23.674  0.00  0.00    +0.200 C 
ATOM     72  C   UNL     1       8.700   5.188  24.631  0.00  0.00    +0.163 C 
BRANCH  70  73
ATOM     73  O   UNL     1       6.641   6.941  23.352  0.00  0.00    -0.365 OA
ATOM     74  H   UNL     1       6.325   7.722  22.860  0.00  0.00    +0.213 HD
ENDBRANCH  70  73
BRANCH  71  75
ATOM     75  O   UNL     1      10.214   6.208  22.992  0.00  0.00    -0.384 OA
ATOM     76  H   UNL     1      10.108   5.455  22.373  0.00  0.00    +0.210 HD
ENDBRANCH  71  75
BRANCH  72  77
ATOM     77  O   UNL     1       7.611   5.493  25.519  0.00  0.00    -0.388 OA
ATOM     78  H   UNL     1       7.447   6.460  25.491  0.00  0.00    +0.210 HD
ENDBRANCH  72  77
BRANCH  68  79
ATOM     79  C   UNL     1       6.778   2.958  22.045  0.00  0.00    +0.188 C 
BRANCH  79  80
ATOM     80  O   UNL     1       6.044   2.050  22.858  0.00  0.00    -0.392 OA
ATOM     81  H   UNL     1       6.631   1.299  23.054  0.00  0.00    +0.210 HD
ENDBRANCH  79  80
ENDBRANCH  68  79
ENDBRANCH  66  67
ENDBRANCH  59  66
BRANCH  57  82
ATOM     82  C   UNL     1       9.415  -0.484  25.953  0.00  0.00    +0.190 C 
BRANCH  82  83
ATOM     83  O   UNL     1       8.655  -0.264  27.143  0.00  0.00    -0.392 OA
ATOM     84  H   UNL     1       8.212  -1.097  27.371  0.00  0.00    +0.210 HD
ENDBRANCH  82  83
ENDBRANCH  57  82
ENDBRANCH  55  56
ENDBRANCH  48  55
BRANCH  46  85
ATOM     85  C   UNL     1       6.741  -5.529  21.640  0.00  0.00    +0.188 C 
BRANCH  85  86
ATOM     86  O   UNL     1       6.937  -6.813  21.048  0.00  0.00    -0.392 OA
ATOM     87  H   UNL     1       6.297  -6.892  20.314  0.00  0.00    +0.210 HD
ENDBRANCH  85  86
ENDBRANCH  46  85
ENDBRANCH   1  45
TORSDOF 36
ENDMDL
MODEL 2
REMARK VINA RESULT:      -4.3      2.247      3.810
REMARK  Name = 
REMARK  36 active torsions:
REMARK  status: ('A' for Active; 'I' for Inactive)
REMARK    1  A    between atoms: O_1  and  C_2
REMARK    2  A    between atoms: C_2  and  C_3
REMARK    3  A    between atoms: C_6  and  S_8
REMARK    4  A    between atoms: S_8  and  C_9
REMARK    5  A    between atoms: C_11  and  O_13
REMARK    6  A    between atoms: C_14  and  O_16
REMARK    7  A    between atoms: C_17  and  O_19
REMARK    8  A    between atoms: O_19  and  C_20
REMARK    9  A    between atoms: C_22  and  O_24
REMARK   10  A    between atoms: C_25  and  O_27
REMARK   11  A    between atoms: C_28  and  S_35
REMARK   12  A    between atoms: C_31  and  C_33
REMARK   13  A    between atoms: C_33  and  O_34
REMARK   14  A    between atoms: S_35  and  C_36
REMARK   15  A    between atoms: C_38  and  O_40
REMARK   16  A    between atoms: C_41  and  O_43
REMARK   17  A    between atoms: C_44  and  O_46
REMARK   18  A    between atoms: O_46  and  C_47
REMARK   19  A    between atoms: C_49  and  O_51
REMARK   20  A    between atoms: C_52  and  O_54
REMARK   21  A    between atoms: C_55  and  S_62
REMARK   22  A    between atoms: C_58  and  C_60
REMARK   23  A    between atoms: C_60  and  O_61
REMARK   24  A    between atoms: S_62  and  C_63
REMARK   25  A    between atoms: C_65  and  O_67
REMARK   26  A    between atoms: C_68  and  O_70
REMARK   27  A    between atoms: C_71  and  O_73
REMARK   28  A    between atoms: C_75  and  C_77
REMARK   29  A    between atoms: C_77  and  O_78
REMARK   30  A    between atoms: C_80  and  C_82
REMARK   31  A    between atoms: C_82  and  O_83
REMARK   32  A    between atoms: C_85  and  C_87
REMARK   33  A    between atoms: C_87  and  O_88
REMARK   34  A    between atoms: C_89  and  O_91
REMARK   35  A    between atoms: C_92  and  O_94
REMARK   36  A    between atoms: C_95  and  O_97
REMARK                            x       y       z     vdW  Elec       q    Type
REMARK                         _______ _______ _______ _____ _____    ______ ____
ROOT
ATOM      1  S   UNL     1       7.329  -5.008  27.073  0.00  0.00    -0.118 S 
ENDROOT
BRANCH   1   5
ATOM      2  C   UNL     1       3.140  -6.517  25.836  0.00  0.00    +0.183 C 
ATOM      3  C   UNL     1       4.358  -6.440  24.865  0.00  0.00    +0.176 C 
ATOM      4  O   UNL     1       5.617  -6.302  25.524  0.00  0.00    -0.355 OA
ATOM      5  C   UNL     1       5.598  -5.459  26.661  0.00  0.00    +0.207 C 
ATOM      6  C   UNL     1       4.885  -6.240  27.772  0.00  0.00    +0.184 C 
ATOM      7  C   UNL     1       3.418  -6.417  27.364  0.00  0.00    +0.178 C 
BRANCH   6   8
ATOM      8  O   UNL     1       5.474  -7.533  27.997  0.00  0.00    -0.386 OA
ATOM      9  H   UNL     1       4.931  -7.939  28.703  0.00  0.00    +0.210 HD
ENDBRANCH   6   8
BRANCH   7  10
ATOM     10  O   UNL     1       2.867  -7.560  28.060  0.00  0.00    -0.386 OA
ATOM     11  H   UNL     1       3.479  -8.306  27.906  0.00  0.00    +0.210 HD
ENDBRANCH   7  10
BRANCH   3  12
ATOM     12  C   UNL     1       4.346  -5.545  23.611  0.00  0.00    +0.190 C 
BRANCH  12  13
ATOM     13  O   UNL     1       3.064  -5.347  23.043  0.00  0.00    -0.392 OA
ATOM     14  H   UNL     1       3.144  -4.668  22.354  0.00  0.00    +0.210 HD
ENDBRANCH  12  13
ENDBRANCH   3  12
BRANCH   2  15
ATOM     15  O   UNL     1       1.962  -5.806  25.466  0.00  0.00    -0.340 OA
BRANCH  15  19
ATOM     16  C   UNL     1       1.455  -2.402  27.824  0.00  0.00    +0.111 C 
ATOM     17  C   UNL     1       1.614  -3.765  28.536  0.00  0.00    +0.162 C 
ATOM     18  O   UNL     1       1.974  -4.834  27.639  0.00  0.00    -0.342 OA
ATOM     19  C   UNL     1       1.288  -4.943  26.399  0.00  0.00    +0.282 C 
ATOM     20  C   UNL     1       1.112  -3.605  25.658  0.00  0.00    +0.200 C 
ATOM     21  C   UNL     1       0.538  -2.557  26.593  0.00  0.00    +0.163 C 
BRANCH  20  22
ATOM     22  O   UNL     1       2.351  -3.097  25.125  0.00  0.00    -0.384 OA
ATOM     23  H   UNL     1       2.935  -2.993  25.901  0.00  0.00    +0.210 HD
ENDBRANCH  20  22
BRANCH  21  24
ATOM     24  O   UNL     1       0.443  -1.325  25.851  0.00  0.00    -0.388 OA
ATOM     25  H   UNL     1      -0.509  -1.204  25.671  0.00  0.00    +0.210 HD
ENDBRANCH  21  24
BRANCH  17  26
ATOM     26  C   UNL     1       0.444  -4.200  29.439  0.00  0.00    +0.188 C 
BRANCH  26  27
ATOM     27  O   UNL     1       0.572  -5.555  29.856  0.00  0.00    -0.392 OA
ATOM     28  H   UNL     1       1.460  -5.651  30.250  0.00  0.00    +0.210 HD
ENDBRANCH  26  27
ENDBRANCH  17  26
BRANCH  16  29
ATOM     29  S   UNL     1       0.770  -0.980  28.793  0.00  0.00    -0.118 S 
BRANCH  29  34
ATOM     30  C   UNL     1       4.353   0.750  28.105  0.00  0.00    +0.176 C 
ATOM     31  C   UNL     1       3.942   2.094  27.473  0.00  0.00    +0.176 C 
ATOM     32  C   UNL     1       2.676   2.600  28.196  0.00  0.00    +0.177 C 
ATOM     33  C   UNL     1       1.589   1.527  28.187  0.00  0.00    +0.184 C 
ATOM     34  C   UNL     1       2.145   0.224  28.803  0.00  0.00    +0.207 C 
ATOM     35  O   UNL     1       3.273  -0.211  28.045  0.00  0.00    -0.355 OA
BRANCH  33  36
ATOM     36  O   UNL     1       1.143   1.344  26.826  0.00  0.00    -0.386 OA
ATOM     37  H   UNL     1       0.989   0.401  26.705  0.00  0.00    +0.210 HD
ENDBRANCH  33  36
BRANCH  32  38
ATOM     38  O   UNL     1       2.207   3.823  27.619  0.00  0.00    -0.386 OA
ATOM     39  H   UNL     1       1.353   4.028  28.053  0.00  0.00    +0.210 HD
ENDBRANCH  32  38
BRANCH  31  40
ATOM     40  O   UNL     1       5.017   3.031  27.601  0.00  0.00    -0.386 OA
ATOM     41  H   UNL     1       4.638   3.924  27.699  0.00  0.00    +0.210 HD
ENDBRANCH  31  40
BRANCH  30  42
ATOM     42  C   UNL     1       5.615   0.185  27.435  0.00  0.00    +0.190 C 
BRANCH  42  43
ATOM     43  O   UNL     1       5.296  -0.181  26.090  0.00  0.00    -0.392 OA
ATOM     44  H   UNL     1       6.026   0.127  25.527  0.00  0.00    +0.210 HD
ENDBRANCH  42  43
ENDBRANCH  30  42
ENDBRANCH  29  34
ENDBRANCH  16  29
ENDBRANCH  15  19
ENDBRANCH   2  15
ENDBRANCH   1   5
BRANCH   1  45
ATOM     45  C   UNL     1       7.685  -3.837  25.686  0.00  0.00    +0.111 C 
ATOM     46  C   UNL     1       7.815  -2.366  26.175  0.00  0.00    +0.162 C 
ATOM     47  O   UNL     1       8.018  -1.463  25.057  0.00  0.00    -0.342 OA
ATOM     48  C   UNL     1       9.179  -1.750  24.238  0.00  0.00    +0.282 C 
ATOM     49  C   UNL     1       9.025  -3.183  23.684  0.00  0.00    +0.200 C 
ATOM     50  C   UNL     1       8.948  -4.161  24.864  0.00  0.00    +0.163 C 
BRANCH  49  51
ATOM     51  O   UNL     1       7.841  -3.280  22.873  0.00  0.00    -0.384 OA
ATOM     52  H   UNL     1       7.151  -3.719  23.407  0.00  0.00    +0.210 HD
ENDBRANCH  49  51
BRANCH  50  53
ATOM     53  O   UNL     1       9.038  -5.472  24.336  0.00  0.00    -0.388 OA
ATOM     54  H   UNL     1       8.304  -6.005  24.708  0.00  0.00    +0.210 HD
ENDBRANCH  50  53
BRANCH  48  55
ATOM     55  O   UNL     1       9.242  -0.740  23.222  0.00  0.00    -0.340 OA
BRANCH  55  56
ATOM     56  C   UNL     1       8.452   0.445  23.431  0.00  0.00    +0.183 C 
ATOM     57  C   UNL     1       9.337   1.691  23.211  0.00  0.00    +0.176 C 
ATOM     58  O   UNL     1       8.617   2.926  23.413  0.00  0.00    -0.355 OA
ATOM     59  C   UNL     1       7.424   3.072  22.643  0.00  0.00    +0.207 C 
ATOM     60  C   UNL     1       6.469   1.875  22.857  0.00  0.00    +0.184 C 
ATOM     61  C   UNL     1       7.203   0.562  22.529  0.00  0.00    +0.178 C 
BRANCH  60  62
ATOM     62  O   UNL     1       6.021   1.760  24.225  0.00  0.00    -0.386 OA
ATOM     63  H   UNL     1       5.423   0.984  24.264  0.00  0.00    +0.210 HD
ENDBRANCH  60  62
BRANCH  61  64
ATOM     64  O   UNL     1       6.304  -0.538  22.743  0.00  0.00    -0.386 OA
ATOM     65  H   UNL     1       5.406  -0.183  22.611  0.00  0.00    +0.210 HD
ENDBRANCH  61  64
BRANCH  59  66
ATOM     66  S   UNL     1       6.554   4.613  23.146  0.00  0.00    -0.118 S 
BRANCH  66  67
ATOM     67  C   UNL     1       6.554   4.467  25.011  0.00  0.00    +0.111 C 
ATOM     68  C   UNL     1       5.891   5.713  25.667  0.00  0.00    +0.162 C 
ATOM     69  O   UNL     1       6.694   6.897  25.489  0.00  0.00    -0.342 OA
ATOM     70  C   UNL     1       7.998   6.794  26.065  0.00  0.00    +0.279 C 
ATOM     71  C   UNL     1       8.795   5.614  25.482  0.00  0.00    +0.200 C 
ATOM     72  C   UNL     1       7.971   4.319  25.612  0.00  0.00    +0.163 C 
BRANCH  70  73
ATOM     73  O   UNL     1       7.918   6.655  27.480  0.00  0.00    -0.365 OA
ATOM     74  H   UNL     1       7.200   7.248  27.771  0.00  0.00    +0.213 HD
ENDBRANCH  70  73
BRANCH  71  75
ATOM     75  O   UNL     1       9.155   5.868  24.120  0.00  0.00    -0.384 OA
ATOM     76  H   UNL     1       8.987   6.819  23.953  0.00  0.00    +0.210 HD
ENDBRANCH  71  75
BRANCH  72  77
ATOM     77  O   UNL     1       7.871   3.919  26.988  0.00  0.00    -0.388 OA
ATOM     78  H   UNL     1       7.043   3.405  27.105  0.00  0.00    +0.210 HD
ENDBRANCH  72  77
BRANCH  68  79
ATOM     79  C   UNL     1       4.457   6.003  25.203  0.00  0.00    +0.188 C 
BRANCH  79  80
ATOM     80  O   UNL     1       3.638   4.855  25.389  0.00  0.00    -0.392 OA
ATOM     81  H   UNL     1       3.922   4.430  26.218  0.00  0.00    +0.210 HD
ENDBRANCH  79  80
ENDBRANCH  68  79
ENDBRANCH  66  67
ENDBRANCH  59  66
BRANCH  57  82
ATOM     82  C   UNL     1      10.058   1.693  21.853  0.00  0.00    +0.190 C 
BRANCH  82  83
ATOM     83  O   UNL     1      10.889   2.848  21.718  0.00  0.00    -0.392 OA
ATOM     84  H   UNL     1      11.808   2.545  21.639  0.00  0.00    +0.210 HD
ENDBRANCH  82  83
ENDBRANCH  57  82
ENDBRANCH  55  56
ENDBRANCH  48  55
BRANCH  46  85
ATOM     85  C   UNL     1       8.886  -2.114  27.261  0.00  0.00    +0.188 C 
BRANCH  85  86
ATOM     86  O   UNL     1       9.088  -0.711  27.422  0.00  0.00    -0.392 OA
ATOM     87  H   UNL     1       8.205  -0.296  27.458  0.00  0.00    +0.210 HD
ENDBRANCH  85  86
ENDBRANCH  46  85
ENDBRANCH   1  45
TORSDOF 36
ENDMDL
MODEL 3
REMARK VINA RESULT:      -4.2      2.044      5.812
REMARK  Name = 
REMARK  36 active torsions:
REMARK  status: ('A' for Active; 'I' for Inactive)
REMARK    1  A    between atoms: O_1  and  C_2
REMARK    2  A    between atoms: C_2  and  C_3
REMARK    3  A    between atoms: C_6  and  S_8
REMARK    4  A    between atoms: S_8  and  C_9
REMARK    5  A    between atoms: C_11  and  O_13
REMARK    6  A    between atoms: C_14  and  O_16
REMARK    7  A    between atoms: C_17  and  O_19
REMARK    8  A    between atoms: O_19  and  C_20
REMARK    9  A    between atoms: C_22  and  O_24
REMARK   10  A    between atoms: C_25  and  O_27
REMARK   11  A    between atoms: C_28  and  S_35
REMARK   12  A    between atoms: C_31  and  C_33
REMARK   13  A    between atoms: C_33  and  O_34
REMARK   14  A    between atoms: S_35  and  C_36
REMARK   15  A    between atoms: C_38  and  O_40
REMARK   16  A    between atoms: C_41  and  O_43
REMARK   17  A    between atoms: C_44  and  O_46
REMARK   18  A    between atoms: O_46  and  C_47
REMARK   19  A    between atoms: C_49  and  O_51
REMARK   20  A    between atoms: C_52  and  O_54
REMARK   21  A    between atoms: C_55  and  S_62
REMARK   22  A    between atoms: C_58  and  C_60
REMARK   23  A    between atoms: C_60  and  O_61
REMARK   24  A    between atoms: S_62  and  C_63
REMARK   25  A    between atoms: C_65  and  O_67
REMARK   26  A    between atoms: C_68  and  O_70
REMARK   27  A    between atoms: C_71  and  O_73
REMARK   28  A    between atoms: C_75  and  C_77
REMARK   29  A    between atoms: C_77  and  O_78
REMARK   30  A    between atoms: C_80  and  C_82
REMARK   31  A    between atoms: C_82  and  O_83
REMARK   32  A    between atoms: C_85  and  C_87
REMARK   33  A    between atoms: C_87  and  O_88
REMARK   34  A    between atoms: C_89  and  O_91
REMARK   35  A    between atoms: C_92  and  O_94
REMARK   36  A    between atoms: C_95  and  O_97
REMARK                            x       y       z     vdW  Elec       q    Type
REMARK                         _______ _______ _______ _____ _____    ______ ____
ROOT
ATOM      1  S   UNL     1       0.584  -4.394  27.742  0.00  0.00    -0.118 S 
ENDROOT
BRANCH   1   5
ATOM      2  C   UNL     1       4.067  -6.915  26.050  0.00  0.00    +0.183 C 
ATOM      3  C   UNL     1       3.409  -7.166  27.441  0.00  0.00    +0.176 C 
ATOM      4  O   UNL     1       2.141  -6.530  27.605  0.00  0.00    -0.355 OA
ATOM      5  C   UNL     1       2.050  -5.239  27.031  0.00  0.00    +0.207 C 
ATOM      6  C   UNL     1       1.968  -5.440  25.513  0.00  0.00    +0.184 C 
ATOM      7  C   UNL     1       3.307  -6.013  25.035  0.00  0.00    +0.178 C 
BRANCH   6   8
ATOM      8  O   UNL     1       0.908  -6.338  25.137  0.00  0.00    -0.386 OA
ATOM      9  H   UNL     1       0.507  -5.935  24.339  0.00  0.00    +0.210 HD
ENDBRANCH   6   8
BRANCH   7  10
ATOM     10  O   UNL     1       3.105  -6.709  23.783  0.00  0.00    -0.386 OA
ATOM     11  H   UNL     1       3.990  -6.959  23.452  0.00  0.00    +0.210 HD
ENDBRANCH   7  10
BRANCH   3  12
ATOM     12  C   UNL     1       4.205  -7.046  28.755  0.00  0.00    +0.190 C 
BRANCH  12  13
ATOM     13  O   UNL     1       5.547  -7.492  28.671  0.00  0.00    -0.392 OA
ATOM     14  H   UNL     1       5.734  -7.699  27.742  0.00  0.00    +0.210 HD
ENDBRANCH  12  13
ENDBRANCH   3  12
BRANCH   2  15
ATOM     15  O   UNL     1       5.471  -6.671  26.025  0.00  0.00    -0.340 OA
BRANCH  15  19
ATOM     16  C   UNL     1       7.520  -3.123  26.806  0.00  0.00    +0.111 C 
ATOM     17  C   UNL     1       5.999  -3.044  26.547  0.00  0.00    +0.162 C 
ATOM     18  O   UNL     1       5.367  -4.338  26.482  0.00  0.00    -0.342 OA
ATOM     19  C   UNL     1       5.996  -5.366  25.729  0.00  0.00    +0.282 C 
ATOM     20  C   UNL     1       7.514  -5.478  25.962  0.00  0.00    +0.200 C 
ATOM     21  C   UNL     1       8.170  -4.117  25.821  0.00  0.00    +0.163 C 
BRANCH  20  22
ATOM     22  O   UNL     1       7.839  -5.996  27.267  0.00  0.00    -0.384 OA
ATOM     23  H   UNL     1       8.515  -5.387  27.619  0.00  0.00    +0.210 HD
ENDBRANCH  20  22
BRANCH  21  24
ATOM     24  O   UNL     1       9.574  -4.286  26.097  0.00  0.00    -0.388 OA
ATOM     25  H   UNL     1      10.038  -3.842  25.361  0.00  0.00    +0.210 HD
ENDBRANCH  21  24
BRANCH  17  26
ATOM     26  C   UNL     1       5.558  -2.177  25.352  0.00  0.00    +0.188 C 
BRANCH  26  27
ATOM     27  O   UNL     1       5.782  -0.792  25.591  0.00  0.00    -0.392 OA
ATOM     28  H   UNL     1       5.951  -0.689  26.547  0.00  0.00    +0.210 HD
ENDBRANCH  26  27
ENDBRANCH  17  26
BRANCH  16  29
ATOM     29  S   UNL     1       8.514  -1.564  26.687  0.00  0.00    -0.118 S 
BRANCH  29  34
ATOM     30  C   UNL     1       8.696  -2.177  22.700  0.00  0.00    +0.176 C 
ATOM     31  C   UNL     1       8.947  -0.752  22.170  0.00  0.00    +0.176 C 
ATOM     32  C   UNL     1       9.903  -0.036  23.146  0.00  0.00    +0.177 C 
ATOM     33  C   UNL     1       9.362  -0.104  24.572  0.00  0.00    +0.184 C 
ATOM     34  C   UNL     1       9.112  -1.578  24.959  0.00  0.00    +0.207 C 
ATOM     35  O   UNL     1       8.174  -2.152  24.049  0.00  0.00    -0.355 OA
BRANCH  33  36
ATOM     36  O   UNL     1       8.159   0.693  24.641  0.00  0.00    -0.386 OA
ATOM     37  H   UNL     1       8.375   1.559  24.282  0.00  0.00    +0.210 HD
ENDBRANCH  33  36
BRANCH  32  38
ATOM     38  O   UNL     1      10.135   1.318  22.740  0.00  0.00    -0.386 OA
ATOM     39  H   UNL     1       9.261   1.760  22.731  0.00  0.00    +0.210 HD
ENDBRANCH  32  38
BRANCH  31  40
ATOM     40  O   UNL     1       9.512  -0.824  20.855  0.00  0.00    -0.386 OA
ATOM     41  H   UNL     1       9.563   0.080  20.492  0.00  0.00    +0.210 HD
ENDBRANCH  31  40
BRANCH  30  42
ATOM     42  C   UNL     1       7.751  -2.956  21.771  0.00  0.00    +0.190 C 
BRANCH  42  43
ATOM     43  O   UNL     1       6.960  -3.845  22.563  0.00  0.00    -0.392 OA
ATOM     44  H   UNL     1       6.907  -3.464  23.457  0.00  0.00    +0.210 HD
ENDBRANCH  42  43
ENDBRANCH  30  42
ENDBRANCH  29  34
ENDBRANCH  16  29
ENDBRANCH  15  19
ENDBRANCH   2  15
ENDBRANCH   1   5
BRANCH   1  45
ATOM     45  C   UNL     1       1.296  -2.709  28.015  0.00  0.00    +0.111 C 
ATOM     46  C   UNL     1       2.041  -2.597  29.376  0.00  0.00    +0.162 C 
ATOM     47  O   UNL     1       2.523  -1.246  29.595  0.00  0.00    -0.342 OA
ATOM     48  C   UNL     1       3.414  -0.737  28.572  0.00  0.00    +0.282 C 
ATOM     49  C   UNL     1       2.658  -0.771  27.226  0.00  0.00    +0.200 C 
ATOM     50  C   UNL     1       2.266  -2.222  26.920  0.00  0.00    +0.163 C 
BRANCH  49  51
ATOM     51  O   UNL     1       1.488   0.063  27.289  0.00  0.00    -0.384 OA
ATOM     52  H   UNL     1       1.546   0.595  28.107  0.00  0.00    +0.210 HD
ENDBRANCH  49  51
BRANCH  50  53
ATOM     53  O   UNL     1       1.783  -2.260  25.588  0.00  0.00    -0.388 OA
ATOM     54  H   UNL     1       2.059  -3.109  25.185  0.00  0.00    +0.210 HD
ENDBRANCH  50  53
BRANCH  48  55
ATOM     55  O   UNL     1       3.816   0.580  28.977  0.00  0.00    -0.340 OA
BRANCH  55  56
ATOM     56  C   UNL     1       4.811   1.235  28.170  0.00  0.00    +0.183 C 
ATOM     57  C   UNL     1       4.111   2.190  27.179  0.00  0.00    +0.176 C 
ATOM     58  O   UNL     1       5.045   2.882  26.321  0.00  0.00    -0.355 OA
ATOM     59  C   UNL     1       6.079   3.599  26.995  0.00  0.00    +0.207 C 
ATOM     60  C   UNL     1       6.853   2.683  27.972  0.00  0.00    +0.184 C 
ATOM     61  C   UNL     1       5.869   2.035  28.962  0.00  0.00    +0.178 C 
BRANCH  60  62
ATOM     62  O   UNL     1       7.527   1.598  27.298  0.00  0.00    -0.386 OA
ATOM     63  H   UNL     1       6.938   0.818  27.357  0.00  0.00    +0.210 HD
ENDBRANCH  60  62
BRANCH  61  64
ATOM     64  O   UNL     1       6.604   1.181  29.854  0.00  0.00    -0.386 OA
ATOM     65  H   UNL     1       6.723   1.689  30.677  0.00  0.00    +0.210 HD
ENDBRANCH  61  64
BRANCH  59  66
ATOM     66  S   UNL     1       7.264   4.273  25.760  0.00  0.00    -0.118 S 
BRANCH  66  67
ATOM     67  C   UNL     1       6.114   5.033  24.495  0.00  0.00    +0.111 C 
ATOM     68  C   UNL     1       6.269   4.337  23.112  0.00  0.00    +0.162 C 
ATOM     69  O   UNL     1       7.552   4.619  22.515  0.00  0.00    -0.342 OA
ATOM     70  C   UNL     1       7.778   6.011  22.284  0.00  0.00    +0.279 C 
ATOM     71  C   UNL     1       7.691   6.833  23.582  0.00  0.00    +0.200 C 
ATOM     72  C   UNL     1       6.351   6.547  24.286  0.00  0.00    +0.163 C 
BRANCH  70  73
ATOM     73  O   UNL     1       6.849   6.526  21.336  0.00  0.00    -0.365 OA
ATOM     74  H   UNL     1       6.924   7.497  21.382  0.00  0.00    +0.213 HD
ENDBRANCH  70  73
BRANCH  71  75
ATOM     75  O   UNL     1       8.801   6.550  24.439  0.00  0.00    -0.384 OA
ATOM     76  H   UNL     1       8.893   5.575  24.473  0.00  0.00    +0.210 HD
ENDBRANCH  71  75
BRANCH  72  77
ATOM     77  O   UNL     1       5.257   7.107  23.541  0.00  0.00    -0.388 OA
ATOM     78  H   UNL     1       5.608   7.486  22.707  0.00  0.00    +0.210 HD
ENDBRANCH  72  77
BRANCH  68  79
ATOM     79  C   UNL     1       6.044   2.818  23.123  0.00  0.00    +0.188 C 
BRANCH  79  80
ATOM     80  O   UNL     1       5.037   2.464  22.182  0.00  0.00    -0.392 OA
ATOM     81  H   UNL     1       5.482   2.033  21.431  0.00  0.00    +0.210 HD
ENDBRANCH  79  80
ENDBRANCH  68  79
ENDBRANCH  66  67
ENDBRANCH  59  66
BRANCH  57  82
ATOM     82  C   UNL     1       3.157   3.183  27.861  0.00  0.00    +0.190 C 
BRANCH  82  83
ATOM     83  O   UNL     1       2.966   4.346  27.053  0.00  0.00    -0.392 OA
ATOM     84  H   UNL     1       3.766   4.470  26.516  0.00  0.00    +0.210 HD
ENDBRANCH  82  83
ENDBRANCH  57  82
ENDBRANCH  55  56
ENDBRANCH  48  55
BRANCH  46  85
ATOM     85  C   UNL     1       3.189  -3.610  29.595  0.00  0.00    +0.188 C 
BRANCH  85  86
ATOM     86  O   UNL     1       2.759  -4.639  30.485  0.00  0.00    -0.392 OA
ATOM     87  H   UNL     1       3.008  -5.492  30.080  0.00  0.00    +0.210 HD
ENDBRANCH  85  86
ENDBRANCH  46  85
ENDBRANCH   1  45
TORSDOF 36
ENDMDL
MODEL 4
REMARK VINA RESULT:      -4.1      1.845      3.380
REMARK  Name = 
REMARK  36 active torsions:
REMARK  status: ('A' for Active; 'I' for Inactive)
REMARK    1  A    between atoms: O_1  and  C_2
REMARK    2  A    between atoms: C_2  and  C_3
REMARK    3  A    between atoms: C_6  and  S_8
REMARK    4  A    between atoms: S_8  and  C_9
REMARK    5  A    between atoms: C_11  and  O_13
REMARK    6  A    between atoms: C_14  and  O_16
REMARK    7  A    between atoms: C_17  and  O_19
REMARK    8  A    between atoms: O_19  and  C_20
REMARK    9  A    between atoms: C_22  and  O_24
REMARK   10  A    between atoms: C_25  and  O_27
REMARK   11  A    between atoms: C_28  and  S_35
REMARK   12  A    between atoms: C_31  and  C_33
REMARK   13  A    between atoms: C_33  and  O_34
REMARK   14  A    between atoms: S_35  and  C_36
REMARK   15  A    between atoms: C_38  and  O_40
REMARK   16  A    between atoms: C_41  and  O_43
REMARK   17  A    between atoms: C_44  and  O_46
REMARK   18  A    between atoms: O_46  and  C_47
REMARK   19  A    between atoms: C_49  and  O_51
REMARK   20  A    between atoms: C_52  and  O_54
REMARK   21  A    between atoms: C_55  and  S_62
REMARK   22  A    between atoms: C_58  and  C_60
REMARK   23  A    between atoms: C_60  and  O_61
REMARK   24  A    between atoms: S_62  and  C_63
REMARK   25  A    between atoms: C_65  and  O_67
REMARK   26  A    between atoms: C_68  and  O_70
REMARK   27  A    between atoms: C_71  and  O_73
REMARK   28  A    between atoms: C_75  and  C_77
REMARK   29  A    between atoms: C_77  and  O_78
REMARK   30  A    between atoms: C_80  and  C_82
REMARK   31  A    between atoms: C_82  and  O_83
REMARK   32  A    between atoms: C_85  and  C_87
REMARK   33  A    between atoms: C_87  and  O_88
REMARK   34  A    between atoms: C_89  and  O_91
REMARK   35  A    between atoms: C_92  and  O_94
REMARK   36  A    between atoms: C_95  and  O_97
REMARK                            x       y       z     vdW  Elec       q    Type
REMARK                         _______ _______ _______ _____ _____    ______ ____
ROOT
ATOM      1  S   UNL     1       5.398  -6.261  26.811  0.00  0.00    -0.118 S 
ENDROOT
BRANCH   1   5
ATOM      2  C   UNL     1       1.004  -4.933  27.345  0.00  0.00    +0.183 C 
ATOM      3  C   UNL     1       1.698  -5.102  25.960  0.00  0.00    +0.176 C 
ATOM      4  O   UNL     1       2.909  -5.858  26.006  0.00  0.00    -0.355 OA
ATOM      5  C   UNL     1       3.713  -5.615  27.145  0.00  0.00    +0.207 C 
ATOM      6  C   UNL     1       3.015  -6.299  28.327  0.00  0.00    +0.184 C 
ATOM      7  C   UNL     1       1.694  -5.567  28.589  0.00  0.00    +0.178 C 
BRANCH   6   8
ATOM      8  O   UNL     1       2.745  -7.688  28.073  0.00  0.00    -0.386 OA
ATOM      9  H   UNL     1       2.245  -7.699  27.231  0.00  0.00    +0.210 HD
ENDBRANCH   6   8
BRANCH   7  10
ATOM     10  O   UNL     1       0.786  -6.459  29.278  0.00  0.00    -0.386 OA
ATOM     11  H   UNL     1       0.666  -7.240  28.702  0.00  0.00    +0.210 HD
ENDBRANCH   7  10
BRANCH   3  12
ATOM     12  C   UNL     1       1.881  -3.920  24.989  0.00  0.00    +0.190 C 
BRANCH  12  13
ATOM     13  O   UNL     1       2.651  -4.219  23.838  0.00  0.00    -0.392 OA
ATOM     14  H   UNL     1       2.473  -5.140  23.591  0.00  0.00    +0.210 HD
ENDBRANCH  12  13
ENDBRANCH   3  12
BRANCH   2  15
ATOM     15  O   UNL     1       0.443  -3.658  27.646  0.00  0.00    -0.340 OA
BRANCH  15  19
ATOM     16  C   UNL     1       1.884  -0.061  29.189  0.00  0.00    +0.111 C 
ATOM     17  C   UNL     1       1.111  -0.023  27.851  0.00  0.00    +0.162 C 
ATOM     18  O   UNL     1       0.498  -1.283  27.514  0.00  0.00    -0.342 OA
ATOM     19  C   UNL     1       1.257  -2.473  27.671  0.00  0.00    +0.282 C 
ATOM     20  C   UNL     1       2.040  -2.550  28.996  0.00  0.00    +0.200 C 
ATOM     21  C   UNL     1       2.835  -1.276  29.211  0.00  0.00    +0.163 C 
BRANCH  20  22
ATOM     22  O   UNL     1       1.184  -2.740  30.138  0.00  0.00    -0.384 OA
ATOM     23  H   UNL     1       0.557  -3.439  29.870  0.00  0.00    +0.210 HD
ENDBRANCH  20  22
BRANCH  21  24
ATOM     24  O   UNL     1       3.503  -1.396  30.483  0.00  0.00    -0.388 OA
ATOM     25  H   UNL     1       2.927  -1.968  31.025  0.00  0.00    +0.210 HD
ENDBRANCH  21  24
BRANCH  17  26
ATOM     26  C   UNL     1       1.881   0.534  26.638  0.00  0.00    +0.188 C 
BRANCH  26  27
ATOM     27  O   UNL     1       1.232   1.668  26.073  0.00  0.00    -0.392 OA
ATOM     28  H   UNL     1       0.786   1.368  25.259  0.00  0.00    +0.210 HD
ENDBRANCH  26  27
ENDBRANCH  17  26
BRANCH  16  29
ATOM     29  S   UNL     1       2.920   1.405  29.648  0.00  0.00    -0.118 S 
BRANCH  29  34
ATOM     30  C   UNL     1       5.954  -0.363  27.655  0.00  0.00    +0.176 C 
ATOM     31  C   UNL     1       6.806   0.849  27.231  0.00  0.00    +0.176 C 
ATOM     32  C   UNL     1       6.790   1.876  28.383  0.00  0.00    +0.177 C 
ATOM     33  C   UNL     1       5.355   2.209  28.784  0.00  0.00    +0.184 C 
ATOM     34  C   UNL     1       4.604   0.907  29.138  0.00  0.00    +0.207 C 
ATOM     35  O   UNL     1       4.610   0.037  28.007  0.00  0.00    -0.355 OA
BRANCH  33  36
ATOM     36  O   UNL     1       4.732   2.923  27.693  0.00  0.00    -0.386 OA
ATOM     37  H   UNL     1       3.997   3.419  28.066  0.00  0.00    +0.210 HD
ENDBRANCH  33  36
BRANCH  32  38
ATOM     38  O   UNL     1       7.521   3.056  28.031  0.00  0.00    -0.386 OA
ATOM     39  H   UNL     1       8.320   2.757  27.550  0.00  0.00    +0.210 HD
ENDBRANCH  32  38
BRANCH  31  40
ATOM     40  O   UNL     1       8.141   0.418  26.944  0.00  0.00    -0.386 OA
ATOM     41  H   UNL     1       8.165   0.072  26.033  0.00  0.00    +0.210 HD
ENDBRANCH  31  40
BRANCH  30  42
ATOM     42  C   UNL     1       5.928  -1.434  26.554  0.00  0.00    +0.190 C 
BRANCH  42  43
ATOM     43  O   UNL     1       4.945  -1.069  25.582  0.00  0.00    -0.392 OA
ATOM     44  H   UNL     1       4.772  -0.118  25.693  0.00  0.00    +0.210 HD
ENDBRANCH  42  43
ENDBRANCH  30  42
ENDBRANCH  29  34
ENDBRANCH  16  29
ENDBRANCH  15  19
ENDBRANCH   2  15
ENDBRANCH   1   5
BRANCH   1  45
ATOM     45  C   UNL     1       5.949  -5.048  25.528  0.00  0.00    +0.111 C 
ATOM     46  C   UNL     1       7.328  -4.415  25.870  0.00  0.00    +0.162 C 
ATOM     47  O   UNL     1       7.699  -3.414  24.887  0.00  0.00    -0.342 OA
ATOM     48  C   UNL     1       7.770  -3.891  23.520  0.00  0.00    +0.282 C 
ATOM     49  C   UNL     1       6.382  -4.453  23.143  0.00  0.00    +0.200 C 
ATOM     50  C   UNL     1       6.045  -5.608  24.095  0.00  0.00    +0.163 C 
BRANCH  49  51
ATOM     51  O   UNL     1       5.384  -3.422  23.230  0.00  0.00    -0.384 OA
ATOM     52  H   UNL     1       4.620  -3.789  23.716  0.00  0.00    +0.210 HD
ENDBRANCH  49  51
BRANCH  50  53
ATOM     53  O   UNL     1       4.887  -6.250  23.591  0.00  0.00    -0.388 OA
ATOM     54  H   UNL     1       4.799  -6.024  22.641  0.00  0.00    +0.210 HD
ENDBRANCH  50  53
BRANCH  48  55
ATOM     55  O   UNL     1       8.187  -2.785  22.707  0.00  0.00    -0.340 OA
BRANCH  55  56
ATOM     56  C   UNL     1       8.145  -1.480  23.309  0.00  0.00    +0.183 C 
ATOM     57  C   UNL     1       9.580  -1.045  23.679  0.00  0.00    +0.176 C 
ATOM     58  O   UNL     1       9.623   0.258  24.301  0.00  0.00    -0.355 OA
ATOM     59  C   UNL     1       9.002   1.310  23.561  0.00  0.00    +0.207 C 
ATOM     60  C   UNL     1       7.541   0.955  23.200  0.00  0.00    +0.184 C 
ATOM     61  C   UNL     1       7.506  -0.379  22.433  0.00  0.00    +0.178 C 
BRANCH  60  62
ATOM     62  O   UNL     1       6.709   0.776  24.367  0.00  0.00    -0.386 OA
ATOM     63  H   UNL     1       6.425   1.669  24.654  0.00  0.00    +0.210 HD
ENDBRANCH  60  62
BRANCH  61  64
ATOM     64  O   UNL     1       6.142  -0.696  22.116  0.00  0.00    -0.386 OA
ATOM     65  H   UNL     1       6.172  -1.512  21.582  0.00  0.00    +0.210 HD
ENDBRANCH  61  64
BRANCH  59  66
ATOM     66  S   UNL     1       9.000   2.849  24.569  0.00  0.00    -0.118 S 
BRANCH  66  67
ATOM     67  C   UNL     1       8.477   4.133  23.312  0.00  0.00    +0.111 C 
ATOM     68  C   UNL     1       8.858   5.565  23.788  0.00  0.00    +0.162 C 
ATOM     69  O   UNL     1       8.077   5.971  24.930  0.00  0.00    -0.342 OA
ATOM     70  C   UNL     1       6.671   6.000  24.677  0.00  0.00    +0.279 C 
ATOM     71  C   UNL     1       6.137   4.629  24.228  0.00  0.00    +0.200 C 
ATOM     72  C   UNL     1       6.957   4.124  23.026  0.00  0.00    +0.163 C 
BRANCH  70  73
ATOM     73  O   UNL     1       6.353   6.977  23.692  0.00  0.00    -0.365 OA
ATOM     74  H   UNL     1       6.461   6.537  22.829  0.00  0.00    +0.213 HD
ENDBRANCH  70  73
BRANCH  71  75
ATOM     75  O   UNL     1       6.166   3.692  25.309  0.00  0.00    -0.384 OA
ATOM     76  H   UNL     1       5.311   3.215  25.295  0.00  0.00    +0.210 HD
ENDBRANCH  71  75
BRANCH  72  77
ATOM     77  O   UNL     1       6.683   4.913  21.857  0.00  0.00    -0.388 OA
ATOM     78  H   UNL     1       7.478   5.449  21.648  0.00  0.00    +0.210 HD
ENDBRANCH  72  77
BRANCH  68  79
ATOM     79  C   UNL     1      10.348   5.769  24.099  0.00  0.00    +0.188 C 
BRANCH  79  80
ATOM     80  O   UNL     1      11.111   5.725  22.899  0.00  0.00    -0.392 OA
ATOM     81  H   UNL     1      12.014   6.014  23.121  0.00  0.00    +0.210 HD
ENDBRANCH  79  80
ENDBRANCH  68  79
ENDBRANCH  66  67
ENDBRANCH  59  66
BRANCH  57  82
ATOM     82  C   UNL     1      10.562  -1.119  22.498  0.00  0.00    +0.190 C 
BRANCH  82  83
ATOM     83  O   UNL     1       9.861  -1.218  21.256  0.00  0.00    -0.392 OA
ATOM     84  H   UNL     1       9.186  -0.520  21.240  0.00  0.00    +0.210 HD
ENDBRANCH  82  83
ENDBRANCH  57  82
ENDBRANCH  55  56
ENDBRANCH  48  55
BRANCH  46  85
ATOM     85  C   UNL     1       8.491  -5.413  26.073  0.00  0.00    +0.188 C 
BRANCH  85  86
ATOM     86  O   UNL     1       9.416  -4.888  27.025  0.00  0.00    -0.392 OA
ATOM     87  H   UNL     1      10.309  -5.155  26.735  0.00  0.00    +0.210 HD
ENDBRANCH  85  86
ENDBRANCH  46  85
ENDBRANCH   1  45
TORSDOF 36
ENDMDL
MODEL 5
REMARK VINA RESULT:      -4.1      2.002      5.924
REMARK  Name = 
REMARK  36 active torsions:
REMARK  status: ('A' for Active; 'I' for Inactive)
REMARK    1  A    between atoms: O_1  and  C_2
REMARK    2  A    between atoms: C_2  and  C_3
REMARK    3  A    between atoms: C_6  and  S_8
REMARK    4  A    between atoms: S_8  and  C_9
REMARK    5  A    between atoms: C_11  and  O_13
REMARK    6  A    between atoms: C_14  and  O_16
REMARK    7  A    between atoms: C_17  and  O_19
REMARK    8  A    between atoms: O_19  and  C_20
REMARK    9  A    between atoms: C_22  and  O_24
REMARK   10  A    between atoms: C_25  and  O_27
REMARK   11  A    between atoms: C_28  and  S_35
REMARK   12  A    between atoms: C_31  and  C_33
REMARK   13  A    between atoms: C_33  and  O_34
REMARK   14  A    between atoms: S_35  and  C_36
REMARK   15  A    between atoms: C_38  and  O_40
REMARK   16  A    between atoms: C_41  and  O_43
REMARK   17  A    between atoms: C_44  and  O_46
REMARK   18  A    between atoms: O_46  and  C_47
REMARK   19  A    between atoms: C_49  and  O_51
REMARK   20  A    between atoms: C_52  and  O_54
REMARK   21  A    between atoms: C_55  and  S_62
REMARK   22  A    between atoms: C_58  and  C_60
REMARK   23  A    between atoms: C_60  and  O_61
REMARK   24  A    between atoms: S_62  and  C_63
REMARK   25  A    between atoms: C_65  and  O_67
REMARK   26  A    between atoms: C_68  and  O_70
REMARK   27  A    between atoms: C_71  and  O_73
REMARK   28  A    between atoms: C_75  and  C_77
REMARK   29  A    between atoms: C_77  and  O_78
REMARK   30  A    between atoms: C_80  and  C_82
REMARK   31  A    between atoms: C_82  and  O_83
REMARK   32  A    between atoms: C_85  and  C_87
REMARK   33  A    between atoms: C_87  and  O_88
REMARK   34  A    between atoms: C_89  and  O_91
REMARK   35  A    between atoms: C_92  and  O_94
REMARK   36  A    between atoms: C_95  and  O_97
REMARK                            x       y       z     vdW  Elec       q    Type
REMARK                         _______ _______ _______ _____ _____    ______ ____
ROOT
ATOM      1  S   UNL     1       0.738  -4.213  27.430  0.00  0.00    -0.118 S 
ENDROOT
BRANCH   1   5
ATOM      2  C   UNL     1       4.575  -6.770  27.133  0.00  0.00    +0.183 C 
ATOM      3  C   UNL     1       4.060  -6.126  28.456  0.00  0.00    +0.176 C 
ATOM      4  O   UNL     1       2.698  -5.701  28.403  0.00  0.00    -0.355 OA
ATOM      5  C   UNL     1       2.307  -5.127  27.169  0.00  0.00    +0.207 C 
ATOM      6  C   UNL     1       2.186  -6.282  26.168  0.00  0.00    +0.184 C 
ATOM      7  C   UNL     1       3.588  -6.857  25.932  0.00  0.00    +0.178 C 
BRANCH   6   8
ATOM      8  O   UNL     1       1.320  -7.328  26.641  0.00  0.00    -0.386 OA
ATOM      9  H   UNL     1       1.180  -7.911  25.867  0.00  0.00    +0.210 HD
ENDBRANCH   6   8
BRANCH   7  10
ATOM     10  O   UNL     1       3.469  -8.221  25.466  0.00  0.00    -0.386 OA
ATOM     11  H   UNL     1       4.261  -8.698  25.782  0.00  0.00    +0.210 HD
ENDBRANCH   7  10
BRANCH   3  12
ATOM     12  C   UNL     1       4.883  -5.078  29.228  0.00  0.00    +0.190 C 
BRANCH  12  13
ATOM     13  O   UNL     1       5.473  -4.079  28.415  0.00  0.00    -0.392 OA
ATOM     14  H   UNL     1       4.790  -3.742  27.814  0.00  0.00    +0.210 HD
ENDBRANCH  12  13
ENDBRANCH   3  12
BRANCH   2  15
ATOM     15  O   UNL     1       5.893  -6.432  26.710  0.00  0.00    -0.340 OA
BRANCH  15  19
ATOM     16  C   UNL     1       6.839  -3.578  23.819  0.00  0.00    +0.111 C 
ATOM     17  C   UNL     1       5.432  -4.216  23.780  0.00  0.00    +0.162 C 
ATOM     18  O   UNL     1       5.150  -5.037  24.931  0.00  0.00    -0.342 OA
ATOM     19  C   UNL     1       6.147  -5.943  25.382  0.00  0.00    +0.282 C 
ATOM     20  C   UNL     1       7.564  -5.342  25.437  0.00  0.00    +0.200 C 
ATOM     21  C   UNL     1       7.897  -4.659  24.124  0.00  0.00    +0.163 C 
BRANCH  20  22
ATOM     22  O   UNL     1       7.718  -4.376  26.495  0.00  0.00    -0.384 OA
ATOM     23  H   UNL     1       8.599  -3.982  26.349  0.00  0.00    +0.210 HD
ENDBRANCH  20  22
BRANCH  21  24
ATOM     24  O   UNL     1       9.211  -4.083  24.261  0.00  0.00    -0.388 OA
ATOM     25  H   UNL     1       9.188  -3.259  23.736  0.00  0.00    +0.210 HD
ENDBRANCH  21  24
BRANCH  17  26
ATOM     26  C   UNL     1       5.063  -4.969  22.487  0.00  0.00    +0.188 C 
BRANCH  26  27
ATOM     27  O   UNL     1       4.703  -6.321  22.746  0.00  0.00    -0.392 OA
ATOM     28  H   UNL     1       3.807  -6.311  23.133  0.00  0.00    +0.210 HD
ENDBRANCH  26  27
ENDBRANCH  17  26
BRANCH  16  29
ATOM     29  S   UNL     1       7.442  -2.687  22.311  0.00  0.00    -0.118 S 
BRANCH  29  34
ATOM     30  C   UNL     1       8.989   0.300  24.544  0.00  0.00    +0.176 C 
ATOM     31  C   UNL     1       9.701   1.157  23.480  0.00  0.00    +0.176 C 
ATOM     32  C   UNL     1       8.828   1.169  22.207  0.00  0.00    +0.177 C 
ATOM     33  C   UNL     1       8.502  -0.257  21.769  0.00  0.00    +0.184 C 
ATOM     34  C   UNL     1       7.837  -1.016  22.938  0.00  0.00    +0.207 C 
ATOM     35  O   UNL     1       8.727  -1.036  24.054  0.00  0.00    -0.355 OA
BRANCH  33  36
ATOM     36  O   UNL     1       9.724  -0.889  21.329  0.00  0.00    -0.386 OA
ATOM     37  H   UNL     1      10.358  -0.807  22.048  0.00  0.00    +0.210 HD
ENDBRANCH  33  36
BRANCH  32  38
ATOM     38  O   UNL     1       9.462   1.906  21.155  0.00  0.00    -0.386 OA
ATOM     39  H   UNL     1      10.321   2.215  21.509  0.00  0.00    +0.210 HD
ENDBRANCH  32  38
BRANCH  31  40
ATOM     40  O   UNL     1       9.892   2.484  23.985  0.00  0.00    -0.386 OA
ATOM     41  H   UNL     1       9.348   2.590  24.788  0.00  0.00    +0.210 HD
ENDBRANCH  31  40
BRANCH  30  42
ATOM     42  C   UNL     1       9.801   0.247  25.847  0.00  0.00    +0.190 C 
BRANCH  42  43
ATOM     43  O   UNL     1      11.177   0.480  25.539  0.00  0.00    -0.392 OA
ATOM     44  H   UNL     1      11.705  -0.040  26.169  0.00  0.00    +0.210 HD
ENDBRANCH  42  43
ENDBRANCH  30  42
ENDBRANCH  29  34
ENDBRANCH  16  29
ENDBRANCH  15  19
ENDBRANCH   2  15
ENDBRANCH   1   5
BRANCH   1  45
ATOM     45  C   UNL     1       1.404  -2.498  27.627  0.00  0.00    +0.111 C 
ATOM     46  C   UNL     1       1.042  -1.880  29.008  0.00  0.00    +0.162 C 
ATOM     47  O   UNL     1       1.512  -0.511  29.105  0.00  0.00    -0.342 OA
ATOM     48  C   UNL     1       2.938  -0.335  28.913  0.00  0.00    +0.282 C 
ATOM     49  C   UNL     1       3.297  -0.875  27.512  0.00  0.00    +0.200 C 
ATOM     50  C   UNL     1       2.929  -2.363  27.450  0.00  0.00    +0.163 C 
BRANCH  49  51
ATOM     51  O   UNL     1       2.592  -0.140  26.497  0.00  0.00    -0.384 OA
ATOM     52  H   UNL     1       1.919   0.410  26.943  0.00  0.00    +0.210 HD
ENDBRANCH  49  51
BRANCH  50  53
ATOM     53  O   UNL     1       3.474  -2.886  26.251  0.00  0.00    -0.388 OA
ATOM     54  H   UNL     1       3.555  -3.858  26.348  0.00  0.00    +0.210 HD
ENDBRANCH  50  53
BRANCH  48  55
ATOM     55  O   UNL     1       3.220   1.061  29.085  0.00  0.00    -0.340 OA
BRANCH  55  56
ATOM     56  C   UNL     1       4.307   1.606  28.317  0.00  0.00    +0.183 C 
ATOM     57  C   UNL     1       3.828   2.887  27.598  0.00  0.00    +0.176 C 
ATOM     58  O   UNL     1       4.864   3.492  26.793  0.00  0.00    -0.355 OA
ATOM     59  C   UNL     1       6.081   3.781  27.480  0.00  0.00    +0.207 C 
ATOM     60  C   UNL     1       6.641   2.524  28.185  0.00  0.00    +0.184 C 
ATOM     61  C   UNL     1       5.575   1.944  29.132  0.00  0.00    +0.178 C 
BRANCH  60  62
ATOM     62  O   UNL     1       6.976   1.470  27.255  0.00  0.00    -0.386 OA
ATOM     63  H   UNL     1       7.370   0.743  27.781  0.00  0.00    +0.210 HD
ENDBRANCH  60  62
BRANCH  61  64
ATOM     64  O   UNL     1       6.109   0.772  29.769  0.00  0.00    -0.386 OA
ATOM     65  H   UNL     1       5.343   0.205  29.974  0.00  0.00    +0.210 HD
ENDBRANCH  61  64
BRANCH  59  66
ATOM     66  S   UNL     1       7.335   4.386  26.277  0.00  0.00    -0.118 S 
BRANCH  66  67
ATOM     67  C   UNL     1       6.260   5.100  24.923  0.00  0.00    +0.111 C 
ATOM     68  C   UNL     1       6.277   4.190  23.661  0.00  0.00    +0.162 C 
ATOM     69  O   UNL     1       7.567   4.201  23.015  0.00  0.00    -0.342 OA
ATOM     70  C   UNL     1       7.971   5.498  22.572  0.00  0.00    +0.279 C 
ATOM     71  C   UNL     1       8.036   6.509  23.731  0.00  0.00    +0.200 C 
ATOM     72  C   UNL     1       6.692   6.518  24.484  0.00  0.00    +0.163 C 
BRANCH  70  73
ATOM     73  O   UNL     1       7.091   5.988  21.567  0.00  0.00    -0.365 OA
ATOM     74  H   UNL     1       6.676   5.204  21.164  0.00  0.00    +0.213 HD
ENDBRANCH  70  73
BRANCH  71  75
ATOM     75  O   UNL     1       9.123   6.207  24.610  0.00  0.00    -0.384 OA
ATOM     76  H   UNL     1       9.292   5.244  24.534  0.00  0.00    +0.210 HD
ENDBRANCH  71  75
BRANCH  72  77
ATOM     77  O   UNL     1       5.661   7.106  23.674  0.00  0.00    -0.388 OA
ATOM     78  H   UNL     1       5.848   6.902  22.732  0.00  0.00    +0.210 HD
ENDBRANCH  72  77
BRANCH  68  79
ATOM     79  C   UNL     1       5.850   2.735  23.905  0.00  0.00    +0.188 C 
BRANCH  79  80
ATOM     80  O   UNL     1       5.745   2.040  22.668  0.00  0.00    -0.392 OA
ATOM     81  H   UNL     1       5.423   1.143  22.868  0.00  0.00    +0.210 HD
ENDBRANCH  79  80
ENDBRANCH  68  79
ENDBRANCH  66  67
ENDBRANCH  59  66
BRANCH  57  82
ATOM     82  C   UNL     1       3.199   3.919  28.547  0.00  0.00    +0.190 C 
BRANCH  82  83
ATOM     83  O   UNL     1       2.332   4.805  27.836  0.00  0.00    -0.392 OA
ATOM     84  H   UNL     1       1.904   4.297  27.128  0.00  0.00    +0.210 HD
ENDBRANCH  82  83
ENDBRANCH  57  82
ENDBRANCH  55  56
ENDBRANCH  48  55
BRANCH  46  85
ATOM     85  C   UNL     1       1.505  -2.687  30.243  0.00  0.00    +0.188 C 
BRANCH  85  86
ATOM     86  O   UNL     1       2.886  -3.022  30.110  0.00  0.00    -0.392 OA
ATOM     87  H   UNL     1       3.391  -2.377  30.641  0.00  0.00    +0.210 HD
ENDBRANCH  85  86
ENDBRANCH  46  85
ENDBRANCH   1  45
TORSDOF 36
ENDMDL
MODEL 6
REMARK VINA RESULT:      -4.1      2.100      6.346
REMARK  Name = 
REMARK  36 active torsions:
REMARK  status: ('A' for Active; 'I' for Inactive)
REMARK    1  A    between atoms: O_1  and  C_2
REMARK    2  A    between atoms: C_2  and  C_3
REMARK    3  A    between atoms: C_6  and  S_8
REMARK    4  A    between atoms: S_8  and  C_9
REMARK    5  A    between atoms: C_11  and  O_13
REMARK    6  A    between atoms: C_14  and  O_16
REMARK    7  A    between atoms: C_17  and  O_19
REMARK    8  A    between atoms: O_19  and  C_20
REMARK    9  A    between atoms: C_22  and  O_24
REMARK   10  A    between atoms: C_25  and  O_27
REMARK   11  A    between atoms: C_28  and  S_35
REMARK   12  A    between atoms: C_31  and  C_33
REMARK   13  A    between atoms: C_33  and  O_34
REMARK   14  A    between atoms: S_35  and  C_36
REMARK   15  A    between atoms: C_38  and  O_40
REMARK   16  A    between atoms: C_41  and  O_43
REMARK   17  A    between atoms: C_44  and  O_46
REMARK   18  A    between atoms: O_46  and  C_47
REMARK   19  A    between atoms: C_49  and  O_51
REMARK   20  A    between atoms: C_52  and  O_54
REMARK   21  A    between atoms: C_55  and  S_62
REMARK   22  A    between atoms: C_58  and  C_60
REMARK   23  A    between atoms: C_60  and  O_61
REMARK   24  A    between atoms: S_62  and  C_63
REMARK   25  A    between atoms: C_65  and  O_67
REMARK   26  A    between atoms: C_68  and  O_70
REMARK   27  A    between atoms: C_71  and  O_73
REMARK   28  A    between atoms: C_75  and  C_77
REMARK   29  A    between atoms: C_77  and  O_78
REMARK   30  A    between atoms: C_80  and  C_82
REMARK   31  A    between atoms: C_82  and  O_83
REMARK   32  A    between atoms: C_85  and  C_87
REMARK   33  A    between atoms: C_87  and  O_88
REMARK   34  A    between atoms: C_89  and  O_91
REMARK   35  A    between atoms: C_92  and  O_94
REMARK   36  A    between atoms: C_95  and  O_97
REMARK                            x       y       z     vdW  Elec       q    Type
REMARK                         _______ _______ _______ _____ _____    ______ ____
ROOT
ATOM      1  S   UNL     1       2.603  -4.195  29.256  0.00  0.00    -0.118 S 
ENDROOT
BRANCH   1   5
ATOM      2  C   UNL     1       2.910   0.407  28.981  0.00  0.00    +0.183 C 
ATOM      3  C   UNL     1       3.206  -0.556  27.791  0.00  0.00    +0.176 C 
ATOM      4  O   UNL     1       2.705  -1.880  27.978  0.00  0.00    -0.355 OA
ATOM      5  C   UNL     1       2.822  -2.374  29.300  0.00  0.00    +0.207 C 
ATOM      6  C   UNL     1       1.759  -1.647  30.134  0.00  0.00    +0.184 C 
ATOM      7  C   UNL     1       2.145  -0.165  30.210  0.00  0.00    +0.178 C 
BRANCH   6   8
ATOM      8  O   UNL     1       0.443  -1.765  29.566  0.00  0.00    -0.386 OA
ATOM      9  H   UNL     1      -0.106  -2.153  30.279  0.00  0.00    +0.210 HD
ENDBRANCH   6   8
BRANCH   7  10
ATOM     10  O   UNL     1       0.961   0.619  30.485  0.00  0.00    -0.386 OA
ATOM     11  H   UNL     1       1.062   1.463  30.003  0.00  0.00    +0.210 HD
ENDBRANCH   7  10
BRANCH   3  12
ATOM     12  C   UNL     1       4.596  -0.634  27.130  0.00  0.00    +0.190 C 
BRANCH  12  13
ATOM     13  O   UNL     1       4.574  -0.615  25.714  0.00  0.00    -0.392 OA
ATOM     14  H   UNL     1       3.658  -0.752  25.428  0.00  0.00    +0.210 HD
ENDBRANCH  12  13
ENDBRANCH   3  12
BRANCH   2  15
ATOM     15  O   UNL     1       3.949   1.300  29.374  0.00  0.00    -0.340 OA
BRANCH  15  19
ATOM     16  C   UNL     1       6.136   4.692  28.324  0.00  0.00    +0.111 C 
ATOM     17  C   UNL     1       4.626   4.858  28.610  0.00  0.00    +0.162 C 
ATOM     18  O   UNL     1       4.017   3.667  29.147  0.00  0.00    -0.342 OA
ATOM     19  C   UNL     1       4.325   2.416  28.550  0.00  0.00    +0.282 C 
ATOM     20  C   UNL     1       5.822   2.212  28.253  0.00  0.00    +0.200 C 
ATOM     21  C   UNL     1       6.378   3.409  27.504  0.00  0.00    +0.163 C 
BRANCH  20  22
ATOM     22  O   UNL     1       6.607   2.030  29.448  0.00  0.00    -0.384 OA
ATOM     23  H   UNL     1       6.127   2.523  30.141  0.00  0.00    +0.210 HD
ENDBRANCH  20  22
BRANCH  21  24
ATOM     24  O   UNL     1       7.785   3.173  27.300  0.00  0.00    -0.388 OA
ATOM     25  H   UNL     1       7.865   2.861  26.378  0.00  0.00    +0.210 HD
ENDBRANCH  21  24
BRANCH  17  26
ATOM     26  C   UNL     1       3.774   5.415  27.452  0.00  0.00    +0.188 C 
BRANCH  26  27
ATOM     27  O   UNL     1       2.451   5.730  27.873  0.00  0.00    -0.392 OA
ATOM     28  H   UNL     1       1.980   4.884  27.997  0.00  0.00    +0.210 HD
ENDBRANCH  26  27
ENDBRANCH  17  26
BRANCH  16  29
ATOM     29  S   UNL     1       7.013   6.049  27.418  0.00  0.00    -0.118 S 
BRANCH  29  34
ATOM     30  C   UNL     1       5.944   5.973  23.525  0.00  0.00    +0.176 C 
ATOM     31  C   UNL     1       7.314   5.976  22.818  0.00  0.00    +0.176 C 
ATOM     32  C   UNL     1       8.281   5.097  23.638  0.00  0.00    +0.177 C 
ATOM     33  C   UNL     1       8.310   5.549  25.096  0.00  0.00    +0.184 C 
ATOM     34  C   UNL     1       6.875   5.543  25.667  0.00  0.00    +0.207 C 
ATOM     35  O   UNL     1       6.058   6.424  24.895  0.00  0.00    -0.355 OA
BRANCH  33  36
ATOM     36  O   UNL     1       8.920   6.856  25.155  0.00  0.00    -0.386 OA
ATOM     37  H   UNL     1       9.674   6.842  24.557  0.00  0.00    +0.210 HD
ENDBRANCH  33  36
BRANCH  32  38
ATOM     38  O   UNL     1       9.593   5.101  23.064  0.00  0.00    -0.386 OA
ATOM     39  H   UNL     1      10.157   4.558  23.652  0.00  0.00    +0.210 HD
ENDBRANCH  32  38
BRANCH  31  40
ATOM     40  O   UNL     1       7.165   5.474  21.486  0.00  0.00    -0.386 OA
ATOM     41  H   UNL     1       6.240   5.187  21.366  0.00  0.00    +0.210 HD
ENDBRANCH  31  40
BRANCH  30  42
ATOM     42  C   UNL     1       4.923   6.829  22.759  0.00  0.00    +0.190 C 
BRANCH  42  43
ATOM     43  O   UNL     1       4.139   5.970  21.926  0.00  0.00    -0.392 OA
ATOM     44  H   UNL     1       3.209   6.227  22.044  0.00  0.00    +0.210 HD
ENDBRANCH  42  43
ENDBRANCH  30  42
ENDBRANCH  29  34
ENDBRANCH  16  29
ENDBRANCH  15  19
ENDBRANCH   2  15
ENDBRANCH   1   5
BRANCH   1  45
ATOM     45  C   UNL     1       3.381  -4.564  27.619  0.00  0.00    +0.111 C 
ATOM     46  C   UNL     1       4.930  -4.666  27.711  0.00  0.00    +0.162 C 
ATOM     47  O   UNL     1       5.516  -4.880  26.401  0.00  0.00    -0.342 OA
ATOM     48  C   UNL     1       5.047  -6.061  25.703  0.00  0.00    +0.282 C 
ATOM     49  C   UNL     1       3.517  -5.935  25.537  0.00  0.00    +0.200 C 
ATOM     50  C   UNL     1       2.877  -5.847  26.929  0.00  0.00    +0.163 C 
BRANCH  49  51
ATOM     51  O   UNL     1       3.193  -4.769  24.760  0.00  0.00    -0.384 OA
ATOM     52  H   UNL     1       2.826  -4.099  25.370  0.00  0.00    +0.210 HD
ENDBRANCH  49  51
BRANCH  50  53
ATOM     53  O   UNL     1       1.475  -5.964  26.760  0.00  0.00    -0.388 OA
ATOM     54  H   UNL     1       1.272  -6.888  26.503  0.00  0.00    +0.210 HD
ENDBRANCH  50  53
BRANCH  48  55
ATOM     55  O   UNL     1       5.761  -6.130  24.461  0.00  0.00    -0.340 OA
BRANCH  55  56
ATOM     56  C   UNL     1       6.196  -4.884  23.889  0.00  0.00    +0.183 C 
ATOM     57  C   UNL     1       7.380  -4.333  24.713  0.00  0.00    +0.176 C 
ATOM     58  O   UNL     1       7.871  -3.073  24.207  0.00  0.00    -0.355 OA
ATOM     59  C   UNL     1       8.234  -3.068  22.827  0.00  0.00    +0.207 C 
ATOM     60  C   UNL     1       7.071  -3.566  21.938  0.00  0.00    +0.184 C 
ATOM     61  C   UNL     1       6.623  -4.962  22.405  0.00  0.00    +0.178 C 
BRANCH  60  62
ATOM     62  O   UNL     1       5.906  -2.716  22.022  0.00  0.00    -0.386 OA
ATOM     63  H   UNL     1       5.403  -3.001  22.813  0.00  0.00    +0.210 HD
ENDBRANCH  60  62
BRANCH  61  64
ATOM     64  O   UNL     1       5.536  -5.403  21.576  0.00  0.00    -0.386 OA
ATOM     65  H   UNL     1       5.205  -4.608  21.120  0.00  0.00    +0.210 HD
ENDBRANCH  61  64
BRANCH  59  66
ATOM     66  S   UNL     1       8.673  -1.357  22.314  0.00  0.00    -0.118 S 
BRANCH  66  67
ATOM     67  C   UNL     1       8.109  -0.354  23.788  0.00  0.00    +0.111 C 
ATOM     68  C   UNL     1       7.839   1.125  23.386  0.00  0.00    +0.162 C 
ATOM     69  O   UNL     1       9.060   1.813  23.043  0.00  0.00    -0.342 OA
ATOM     70  C   UNL     1      10.006   1.861  24.112  0.00  0.00    +0.279 C 
ATOM     71  C   UNL     1      10.400   0.456  24.597  0.00  0.00    +0.200 C 
ATOM     72  C   UNL     1       9.132  -0.344  24.948  0.00  0.00    +0.163 C 
BRANCH  70  73
ATOM     73  O   UNL     1       9.497   2.614  25.208  0.00  0.00    -0.365 OA
ATOM     74  H   UNL     1       8.800   3.189  24.841  0.00  0.00    +0.213 HD
ENDBRANCH  70  73
BRANCH  71  75
ATOM     75  O   UNL     1      11.187  -0.222  23.612  0.00  0.00    -0.384 OA
ATOM     76  H   UNL     1      10.761  -0.057  22.745  0.00  0.00    +0.210 HD
ENDBRANCH  71  75
BRANCH  72  77
ATOM     77  O   UNL     1       8.511   0.183  26.132  0.00  0.00    -0.388 OA
ATOM     78  H   UNL     1       7.927   0.928  25.874  0.00  0.00    +0.210 HD
ENDBRANCH  72  77
BRANCH  68  79
ATOM     79  C   UNL     1       6.821   1.313  22.252  0.00  0.00    +0.188 C 
BRANCH  79  80
ATOM     80  O   UNL     1       7.025   2.565  21.610  0.00  0.00    -0.392 OA
ATOM     81  H   UNL     1       6.919   2.420  20.653  0.00  0.00    +0.210 HD
ENDBRANCH  79  80
ENDBRANCH  68  79
ENDBRANCH  66  67
ENDBRANCH  59  66
BRANCH  57  82
ATOM     82  C   UNL     1       8.528  -5.341  24.879  0.00  0.00    +0.190 C 
BRANCH  82  83
ATOM     83  O   UNL     1       8.568  -5.857  26.211  0.00  0.00    -0.392 OA
ATOM     84  H   UNL     1       7.738  -6.337  26.369  0.00  0.00    +0.210 HD
ENDBRANCH  82  83
ENDBRANCH  57  82
ENDBRANCH  55  56
ENDBRANCH  48  55
BRANCH  46  85
ATOM     85  C   UNL     1       5.473  -5.713  28.711  0.00  0.00    +0.188 C 
BRANCH  85  86
ATOM     86  O   UNL     1       5.992  -5.052  29.865  0.00  0.00    -0.392 OA
ATOM     87  H   UNL     1       6.810  -4.595  29.591  0.00  0.00    +0.210 HD
ENDBRANCH  85  86
ENDBRANCH  46  85
ENDBRANCH   1  45
TORSDOF 36
ENDMDL
MODEL 7
REMARK VINA RESULT:      -3.9      2.278     10.545
REMARK  Name = 
REMARK  36 active torsions:
REMARK  status: ('A' for Active; 'I' for Inactive)
REMARK    1  A    between atoms: O_1  and  C_2
REMARK    2  A    between atoms: C_2  and  C_3
REMARK    3  A    between atoms: C_6  and  S_8
REMARK    4  A    between atoms: S_8  and  C_9
REMARK    5  A    between atoms: C_11  and  O_13
REMARK    6  A    between atoms: C_14  and  O_16
REMARK    7  A    between atoms: C_17  and  O_19
REMARK    8  A    between atoms: O_19  and  C_20
REMARK    9  A    between atoms: C_22  and  O_24
REMARK   10  A    between atoms: C_25  and  O_27
REMARK   11  A    between atoms: C_28  and  S_35
REMARK   12  A    between atoms: C_31  and  C_33
REMARK   13  A    between atoms: C_33  and  O_34
REMARK   14  A    between atoms: S_35  and  C_36
REMARK   15  A    between atoms: C_38  and  O_40
REMARK   16  A    between atoms: C_41  and  O_43
REMARK   17  A    between atoms: C_44  and  O_46
REMARK   18  A    between atoms: O_46  and  C_47
REMARK   19  A    between atoms: C_49  and  O_51
REMARK   20  A    between atoms: C_52  and  O_54
REMARK   21  A    between atoms: C_55  and  S_62
REMARK   22  A    between atoms: C_58  and  C_60
REMARK   23  A    between atoms: C_60  and  O_61
REMARK   24  A    between atoms: S_62  and  C_63
REMARK   25  A    between atoms: C_65  and  O_67
REMARK   26  A    between atoms: C_68  and  O_70
REMARK   27  A    between atoms: C_71  and  O_73
REMARK   28  A    between atoms: C_75  and  C_77
REMARK   29  A    between atoms: C_77  and  O_78
REMARK   30  A    between atoms: C_80  and  C_82
REMARK   31  A    between atoms: C_82  and  O_83
REMARK   32  A    between atoms: C_85  and  C_87
REMARK   33  A    between atoms: C_87  and  O_88
REMARK   34  A    between atoms: C_89  and  O_91
REMARK   35  A    between atoms: C_92  and  O_94
REMARK   36  A    between atoms: C_95  and  O_97
REMARK                            x       y       z     vdW  Elec       q    Type
REMARK                         _______ _______ _______ _____ _____    ______ ____
ROOT
ATOM      1  S   UNL     1       5.938   6.787  26.884  0.00  0.00    -0.118 S 
ENDROOT
BRANCH   1   5
ATOM      2  C   UNL     1       8.739   5.502  23.441  0.00  0.00    +0.183 C 
ATOM      3  C   UNL     1       7.601   6.556  23.287  0.00  0.00    +0.176 C 
ATOM      4  O   UNL     1       7.112   7.066  24.528  0.00  0.00    -0.355 OA
ATOM      5  C   UNL     1       7.015   6.105  25.563  0.00  0.00    +0.207 C 
ATOM      6  C   UNL     1       8.448   5.816  26.027  0.00  0.00    +0.184 C 
ATOM      7  C   UNL     1       9.187   5.117  24.881  0.00  0.00    +0.178 C 
BRANCH   6   8
ATOM      8  O   UNL     1       9.158   7.014  26.388  0.00  0.00    -0.386 OA
ATOM      9  H   UNL     1       9.711   6.759  27.155  0.00  0.00    +0.210 HD
ENDBRANCH   6   8
BRANCH   7  10
ATOM     10  O   UNL     1      10.611   5.317  25.043  0.00  0.00    -0.386 OA
ATOM     11  H   UNL     1      10.751   5.622  25.961  0.00  0.00    +0.210 HD
ENDBRANCH   7  10
BRANCH   3  12
ATOM     12  C   UNL     1       6.414   6.343  22.329  0.00  0.00    +0.190 C 
BRANCH  12  13
ATOM     13  O   UNL     1       5.617   5.210  22.625  0.00  0.00    -0.392 OA
ATOM     14  H   UNL     1       5.327   5.282  23.548  0.00  0.00    +0.210 HD
ENDBRANCH  12  13
ENDBRANCH   3  12
BRANCH   2  15
ATOM     15  O   UNL     1       8.701   4.368  22.579  0.00  0.00    -0.340 OA
BRANCH  15  19
ATOM     16  C   UNL     1       7.390   0.426  22.199  0.00  0.00    +0.111 C 
ATOM     17  C   UNL     1       6.382   1.484  22.703  0.00  0.00    +0.162 C 
ATOM     18  O   UNL     1       6.882   2.833  22.611  0.00  0.00    -0.342 OA
ATOM     19  C   UNL     1       8.211   3.097  23.040  0.00  0.00    +0.282 C 
ATOM     20  C   UNL     1       9.246   2.065  22.556  0.00  0.00    +0.200 C 
ATOM     21  C   UNL     1       8.766   0.657  22.857  0.00  0.00    +0.163 C 
BRANCH  20  22
ATOM     22  O   UNL     1       9.501   2.155  21.141  0.00  0.00    -0.384 OA
ATOM     23  H   UNL     1       9.559   3.112  20.956  0.00  0.00    +0.210 HD
ENDBRANCH  20  22
BRANCH  21  24
ATOM     24  O   UNL     1       9.755  -0.254  22.339  0.00  0.00    -0.388 OA
ATOM     25  H   UNL     1      10.465  -0.274  23.009  0.00  0.00    +0.210 HD
ENDBRANCH  21  24
BRANCH  17  26
ATOM     26  C   UNL     1       5.777   1.236  24.098  0.00  0.00    +0.188 C 
BRANCH  26  27
ATOM     27  O   UNL     1       6.759   1.325  25.124  0.00  0.00    -0.392 OA
ATOM     28  H   UNL     1       6.294   1.572  25.946  0.00  0.00    +0.210 HD
ENDBRANCH  26  27
ENDBRANCH  17  26
BRANCH  16  29
ATOM     29  S   UNL     1       6.992  -1.363  22.466  0.00  0.00    -0.118 S 
BRANCH  29  34
ATOM     30  C   UNL     1       8.659  -1.857  26.111  0.00  0.00    +0.176 C 
ATOM     31  C   UNL     1       8.831  -3.387  26.178  0.00  0.00    +0.176 C 
ATOM     32  C   UNL     1       9.247  -3.887  24.779  0.00  0.00    +0.177 C 
ATOM     33  C   UNL     1       8.262  -3.398  23.720  0.00  0.00    +0.184 C 
ATOM     34  C   UNL     1       8.149  -1.859  23.792  0.00  0.00    +0.207 C 
ATOM     35  O   UNL     1       7.703  -1.479  25.093  0.00  0.00    -0.355 OA
BRANCH  33  36
ATOM     36  O   UNL     1       6.993  -4.052  23.943  0.00  0.00    -0.386 OA
ATOM     37  H   UNL     1       7.061  -4.933  23.563  0.00  0.00    +0.210 HD
ENDBRANCH  33  36
BRANCH  32  38
ATOM     38  O   UNL     1       9.371  -5.313  24.758  0.00  0.00    -0.386 OA
ATOM     39  H   UNL     1       9.468  -5.572  23.818  0.00  0.00    +0.210 HD
ENDBRANCH  32  38
BRANCH  31  40
ATOM     40  O   UNL     1       9.823  -3.713  27.158  0.00  0.00    -0.386 OA
ATOM     41  H   UNL     1      10.704  -3.569  26.764  0.00  0.00    +0.210 HD
ENDBRANCH  31  40
BRANCH  30  42
ATOM     42  C   UNL     1       8.247  -1.285  27.476  0.00  0.00    +0.190 C 
BRANCH  42  43
ATOM     43  O   UNL     1       8.226   0.143  27.388  0.00  0.00    -0.392 OA
ATOM     44  H   UNL     1       7.459   0.385  26.841  0.00  0.00    +0.210 HD
ENDBRANCH  42  43
ENDBRANCH  30  42
ENDBRANCH  29  34
ENDBRANCH  16  29
ENDBRANCH  15  19
ENDBRANCH   2  15
ENDBRANCH   1   5
BRANCH   1  45
ATOM     45  C   UNL     1       4.908   5.294  27.249  0.00  0.00    +0.111 C 
ATOM     46  C   UNL     1       5.746   4.135  27.862  0.00  0.00    +0.162 C 
ATOM     47  O   UNL     1       4.929   2.954  28.067  0.00  0.00    -0.342 OA
ATOM     48  C   UNL     1       3.771   3.147  28.918  0.00  0.00    +0.282 C 
ATOM     49  C   UNL     1       2.891   4.243  28.278  0.00  0.00    +0.200 C 
ATOM     50  C   UNL     1       3.709   5.538  28.186  0.00  0.00    +0.163 C 
BRANCH  49  51
ATOM     51  O   UNL     1       2.452   3.832  26.972  0.00  0.00    -0.384 OA
ATOM     52  H   UNL     1       3.183   4.002  26.346  0.00  0.00    +0.210 HD
ENDBRANCH  49  51
BRANCH  50  53
ATOM     53  O   UNL     1       2.820   6.577  27.815  0.00  0.00    -0.388 OA
ATOM     54  H   UNL     1       2.126   6.648  28.503  0.00  0.00    +0.210 HD
ENDBRANCH  50  53
BRANCH  48  55
ATOM     55  O   UNL     1       3.117   1.876  29.038  0.00  0.00    -0.340 OA
BRANCH  55  56
ATOM     56  C   UNL     1       3.817   0.731  28.520  0.00  0.00    +0.183 C 
ATOM     57  C   UNL     1       3.880  -0.361  29.610  0.00  0.00    +0.176 C 
ATOM     58  O   UNL     1       4.580  -1.545  29.170  0.00  0.00    -0.355 OA
ATOM     59  C   UNL     1       4.090  -2.131  27.964  0.00  0.00    +0.207 C 
ATOM     60  C   UNL     1       4.047  -1.098  26.814  0.00  0.00    +0.184 C 
ATOM     61  C   UNL     1       3.203   0.116  27.242  0.00  0.00    +0.178 C 
BRANCH  60  62
ATOM     62  O   UNL     1       5.355  -0.586  26.479  0.00  0.00    -0.386 OA
ATOM     63  H   UNL     1       5.980  -1.338  26.548  0.00  0.00    +0.210 HD
ENDBRANCH  60  62
BRANCH  61  64
ATOM     64  O   UNL     1       3.182   1.069  26.167  0.00  0.00    -0.386 OA
ATOM     65  H   UNL     1       3.499   1.910  26.546  0.00  0.00    +0.210 HD
ENDBRANCH  61  64
BRANCH  59  66
ATOM     66  S   UNL     1       5.192  -3.518  27.464  0.00  0.00    -0.118 S 
BRANCH  66  67
ATOM     67  C   UNL     1       4.074  -5.000  27.688  0.00  0.00    +0.111 C 
ATOM     68  C   UNL     1       4.901  -6.318  27.737  0.00  0.00    +0.162 C 
ATOM     69  O   UNL     1       5.496  -6.620  26.459  0.00  0.00    -0.342 OA
ATOM     70  C   UNL     1       4.540  -6.793  25.411  0.00  0.00    +0.279 C 
ATOM     71  C   UNL     1       3.663  -5.543  25.219  0.00  0.00    +0.200 C 
ATOM     72  C   UNL     1       3.023  -5.149  26.563  0.00  0.00    +0.163 C 
BRANCH  70  73
ATOM     73  O   UNL     1       3.707  -7.919  25.665  0.00  0.00    -0.365 OA
ATOM     74  H   UNL     1       3.039  -7.928  24.955  0.00  0.00    +0.213 HD
ENDBRANCH  70  73
BRANCH  71  75
ATOM     75  O   UNL     1       4.427  -4.465  24.670  0.00  0.00    -0.384 OA
ATOM     76  H   UNL     1       5.154  -4.281  25.300  0.00  0.00    +0.210 HD
ENDBRANCH  71  75
BRANCH  72  77
ATOM     77  O   UNL     1       2.032  -6.113  26.955  0.00  0.00    -0.388 OA
ATOM     78  H   UNL     1       1.228  -5.974  26.410  0.00  0.00    +0.210 HD
ENDBRANCH  72  77
BRANCH  68  79
ATOM     79  C   UNL     1       5.987  -6.361  28.821  0.00  0.00    +0.188 C 
BRANCH  79  80
ATOM     80  O   UNL     1       7.278  -6.363  28.223  0.00  0.00    -0.392 OA
ATOM     81  H   UNL     1       7.273  -5.685  27.525  0.00  0.00    +0.210 HD
ENDBRANCH  79  80
ENDBRANCH  68  79
ENDBRANCH  66  67
ENDBRANCH  59  66
BRANCH  57  82
ATOM     82  C   UNL     1       2.504  -0.722  30.191  0.00  0.00    +0.190 C 
BRANCH  82  83
ATOM     83  O   UNL     1       1.747   0.454  30.482  0.00  0.00    -0.392 OA
ATOM     84  H   UNL     1       2.200   0.930  31.198  0.00  0.00    +0.210 HD
ENDBRANCH  82  83
ENDBRANCH  57  82
ENDBRANCH  55  56
ENDBRANCH  48  55
BRANCH  46  85
ATOM     85  C   UNL     1       6.514   4.479  29.159  0.00  0.00    +0.188 C 
BRANCH  85  86
ATOM     86  O   UNL     1       7.524   3.499  29.395  0.00  0.00    -0.392 OA
ATOM     87  H   UNL     1       8.295   3.745  28.849  0.00  0.00    +0.210 HD
ENDBRANCH  85  86
ENDBRANCH  46  85
ENDBRANCH   1  45
TORSDOF 36
ENDMDL
MODEL 8
REMARK VINA RESULT:      -3.8      2.338      6.857
REMARK  Name = 
REMARK  36 active torsions:
REMARK  status: ('A' for Active; 'I' for Inactive)
REMARK    1  A    between atoms: O_1  and  C_2
REMARK    2  A    between atoms: C_2  and  C_3
REMARK    3  A    between atoms: C_6  and  S_8
REMARK    4  A    between atoms: S_8  and  C_9
REMARK    5  A    between atoms: C_11  and  O_13
REMARK    6  A    between atoms: C_14  and  O_16
REMARK    7  A    between atoms: C_17  and  O_19
REMARK    8  A    between atoms: O_19  and  C_20
REMARK    9  A    between atoms: C_22  and  O_24
REMARK   10  A    between atoms: C_25  and  O_27
REMARK   11  A    between atoms: C_28  and  S_35
REMARK   12  A    between atoms: C_31  and  C_33
REMARK   13  A    between atoms: C_33  and  O_34
REMARK   14  A    between atoms: S_35  and  C_36
REMARK   15  A    between atoms: C_38  and  O_40
REMARK   16  A    between atoms: C_41  and  O_43
REMARK   17  A    between atoms: C_44  and  O_46
REMARK   18  A    between atoms: O_46  and  C_47
REMARK   19  A    between atoms: C_49  and  O_51
REMARK   20  A    between atoms: C_52  and  O_54
REMARK   21  A    between atoms: C_55  and  S_62
REMARK   22  A    between atoms: C_58  and  C_60
REMARK   23  A    between atoms: C_60  and  O_61
REMARK   24  A    between atoms: S_62  and  C_63
REMARK   25  A    between atoms: C_65  and  O_67
REMARK   26  A    between atoms: C_68  and  O_70
REMARK   27  A    between atoms: C_71  and  O_73
REMARK   28  A    between atoms: C_75  and  C_77
REMARK   29  A    between atoms: C_77  and  O_78
REMARK   30  A    between atoms: C_80  and  C_82
REMARK   31  A    between atoms: C_82  and  O_83
REMARK   32  A    between atoms: C_85  and  C_87
REMARK   33  A    between atoms: C_87  and  O_88
REMARK   34  A    between atoms: C_89  and  O_91
REMARK   35  A    between atoms: C_92  and  O_94
REMARK   36  A    between atoms: C_95  and  O_97
REMARK                            x       y       z     vdW  Elec       q    Type
REMARK                         _______ _______ _______ _____ _____    ______ ____
ROOT
ATOM      1  S   UNL     1       2.794  -3.011  30.360  0.00  0.00    -0.118 S 
ENDROOT
BRANCH   1   5
ATOM      2  C   UNL     1       2.715   1.303  28.706  0.00  0.00    +0.183 C 
ATOM      3  C   UNL     1       3.054   0.049  27.844  0.00  0.00    +0.176 C 
ATOM      4  O   UNL     1       2.668  -1.188  28.445  0.00  0.00    -0.355 OA
ATOM      5  C   UNL     1       2.864  -1.251  29.845  0.00  0.00    +0.207 C 
ATOM      6  C   UNL     1       1.771  -0.382  30.479  0.00  0.00    +0.184 C 
ATOM      7  C   UNL     1       2.036   1.077  30.088  0.00  0.00    +0.178 C 
BRANCH   6   8
ATOM      8  O   UNL     1       0.453  -0.757  30.043  0.00  0.00    -0.386 OA
ATOM      9  H   UNL     1       0.462  -0.634  29.072  0.00  0.00    +0.210 HD
ENDBRANCH   6   8
BRANCH   7  10
ATOM     10  O   UNL     1       0.800   1.824  30.179  0.00  0.00    -0.386 OA
ATOM     11  H   UNL     1       0.203   1.314  30.762  0.00  0.00    +0.210 HD
ENDBRANCH   7  10
BRANCH   3  12
ATOM     12  C   UNL     1       4.425  -0.129  27.165  0.00  0.00    +0.190 C 
BRANCH  12  13
ATOM     13  O   UNL     1       4.428  -1.038  26.078  0.00  0.00    -0.392 OA
ATOM     14  H   UNL     1       5.290  -1.481  26.063  0.00  0.00    +0.210 HD
ENDBRANCH  12  13
ENDBRANCH   3  12
BRANCH   2  15
ATOM     15  O   UNL     1       3.688   2.343  28.760  0.00  0.00    -0.340 OA
BRANCH  15  19
ATOM     16  C   UNL     1       3.642   5.604  26.160  0.00  0.00    +0.111 C 
ATOM     17  C   UNL     1       3.063   4.262  25.656  0.00  0.00    +0.162 C 
ATOM     18  O   UNL     1       2.953   3.267  26.693  0.00  0.00    -0.342 OA
ATOM     19  C   UNL     1       4.046   3.090  27.584  0.00  0.00    +0.282 C 
ATOM     20  C   UNL     1       4.649   4.406  28.110  0.00  0.00    +0.200 C 
ATOM     21  C   UNL     1       4.937   5.350  26.958  0.00  0.00    +0.163 C 
BRANCH  20  22
ATOM     22  O   UNL     1       3.780   5.085  29.037  0.00  0.00    -0.384 OA
ATOM     23  H   UNL     1       4.195   5.956  29.180  0.00  0.00    +0.210 HD
ENDBRANCH  20  22
BRANCH  21  24
ATOM     24  O   UNL     1       5.454   6.571  27.523  0.00  0.00    -0.388 OA
ATOM     25  H   UNL     1       6.025   6.955  26.830  0.00  0.00    +0.210 HD
ENDBRANCH  21  24
BRANCH  17  26
ATOM     26  C   UNL     1       3.736   3.657  24.408  0.00  0.00    +0.188 C 
BRANCH  26  27
ATOM     27  O   UNL     1       3.326   2.314  24.185  0.00  0.00    -0.392 OA
ATOM     28  H   UNL     1       4.098   1.744  24.363  0.00  0.00    +0.210 HD
ENDBRANCH  26  27
ENDBRANCH  17  26
BRANCH  16  29
ATOM     29  S   UNL     1       4.062   6.904  24.908  0.00  0.00    -0.118 S 
BRANCH  29  34
ATOM     30  C   UNL     1       7.672   5.103  24.743  0.00  0.00    +0.176 C 
ATOM     31  C   UNL     1       7.934   5.051  23.225  0.00  0.00    +0.176 C 
ATOM     32  C   UNL     1       7.406   6.361  22.601  0.00  0.00    +0.177 C 
ATOM     33  C   UNL     1       5.949   6.592  22.994  0.00  0.00    +0.184 C 
ATOM     34  C   UNL     1       5.821   6.574  24.533  0.00  0.00    +0.207 C 
ATOM     35  O   UNL     1       6.270   5.313  25.028  0.00  0.00    -0.355 OA
BRANCH  33  36
ATOM     36  O   UNL     1       5.141   5.574  22.364  0.00  0.00    -0.386 OA
ATOM     37  H   UNL     1       4.336   5.492  22.884  0.00  0.00    +0.210 HD
ENDBRANCH  33  36
BRANCH  32  38
ATOM     38  O   UNL     1       7.569   6.354  21.178  0.00  0.00    -0.386 OA
ATOM     39  H   UNL     1       6.745   5.977  20.804  0.00  0.00    +0.210 HD
ENDBRANCH  32  38
BRANCH  31  40
ATOM     40  O   UNL     1       9.337   4.897  22.987  0.00  0.00    -0.386 OA
ATOM     41  H   UNL     1       9.469   4.119  22.413  0.00  0.00    +0.210 HD
ENDBRANCH  31  40
BRANCH  30  42
ATOM     42  C   UNL     1       8.178   3.828  25.436  0.00  0.00    +0.190 C 
BRANCH  42  43
ATOM     43  O   UNL     1       7.242   2.774  25.196  0.00  0.00    -0.392 OA
ATOM     44  H   UNL     1       7.724   2.059  24.745  0.00  0.00    +0.210 HD
ENDBRANCH  42  43
ENDBRANCH  30  42
ENDBRANCH  29  34
ENDBRANCH  16  29
ENDBRANCH  15  19
ENDBRANCH   2  15
ENDBRANCH   1   5
BRANCH   1  45
ATOM     45  C   UNL     1       3.439  -3.812  28.821  0.00  0.00    +0.111 C 
ATOM     46  C   UNL     1       4.835  -4.463  29.036  0.00  0.00    +0.162 C 
ATOM     47  O   UNL     1       5.347  -5.016  27.796  0.00  0.00    -0.342 OA
ATOM     48  C   UNL     1       4.498  -6.009  27.168  0.00  0.00    +0.282 C 
ATOM     49  C   UNL     1       3.132  -5.350  26.880  0.00  0.00    +0.200 C 
ATOM     50  C   UNL     1       2.520  -4.887  28.208  0.00  0.00    +0.163 C 
BRANCH  49  51
ATOM     51  O   UNL     1       3.293  -4.237  25.984  0.00  0.00    -0.384 OA
ATOM     52  H   UNL     1       3.879  -4.524  25.257  0.00  0.00    +0.210 HD
ENDBRANCH  49  51
BRANCH  50  53
ATOM     53  O   UNL     1       1.182  -4.499  27.947  0.00  0.00    -0.388 OA
ATOM     54  H   UNL     1       0.587  -5.203  28.282  0.00  0.00    +0.210 HD
ENDBRANCH  50  53
BRANCH  48  55
ATOM     55  O   UNL     1       5.180  -6.467  25.992  0.00  0.00    -0.340 OA
BRANCH  55  56
ATOM     56  C   UNL     1       5.588  -5.466  25.043  0.00  0.00    +0.183 C 
ATOM     57  C   UNL     1       6.818  -4.714  25.597  0.00  0.00    +0.176 C 
ATOM     58  O   UNL     1       7.286  -3.680  24.704  0.00  0.00    -0.355 OA
ATOM     59  C   UNL     1       7.572  -4.106  23.372  0.00  0.00    +0.207 C 
ATOM     60  C   UNL     1       6.359  -4.827  22.740  0.00  0.00    +0.184 C 
ATOM     61  C   UNL     1       5.932  -6.003  23.636  0.00  0.00    +0.178 C 
BRANCH  60  62
ATOM     62  O   UNL     1       5.204  -3.968  22.619  0.00  0.00    -0.386 OA
ATOM     63  H   UNL     1       5.505  -3.150  22.171  0.00  0.00    +0.210 HD
ENDBRANCH  60  62
BRANCH  61  64
ATOM     64  O   UNL     1       4.799  -6.654  23.039  0.00  0.00    -0.386 OA
ATOM     65  H   UNL     1       4.083  -5.993  23.028  0.00  0.00    +0.210 HD
ENDBRANCH  61  64
BRANCH  59  66
ATOM     66  S   UNL     1       7.989  -2.643  22.336  0.00  0.00    -0.118 S 
BRANCH  66  67
ATOM     67  C   UNL     1       8.385  -1.353  23.631  0.00  0.00    +0.111 C 
ATOM     68  C   UNL     1       7.755   0.021  23.259  0.00  0.00    +0.162 C 
ATOM     69  O   UNL     1       8.387   0.599  22.099  0.00  0.00    -0.342 OA
ATOM     70  C   UNL     1       9.785   0.841  22.273  0.00  0.00    +0.279 C 
ATOM     71  C   UNL     1      10.554  -0.447  22.614  0.00  0.00    +0.200 C 
ATOM     72  C   UNL     1       9.903  -1.132  23.830  0.00  0.00    +0.163 C 
BRANCH  70  73
ATOM     73  O   UNL     1      10.010   1.809  23.293  0.00  0.00    -0.365 OA
ATOM     74  H   UNL     1       9.128   2.098  23.591  0.00  0.00    +0.213 HD
ENDBRANCH  70  73
BRANCH  71  75
ATOM     75  O   UNL     1      10.602  -1.325  21.485  0.00  0.00    -0.384 OA
ATOM     76  H   UNL     1      10.093  -2.127  21.727  0.00  0.00    +0.210 HD
ENDBRANCH  71  75
BRANCH  72  77
ATOM     77  O   UNL     1      10.125  -0.365  25.024  0.00  0.00    -0.388 OA
ATOM     78  H   UNL     1       9.266  -0.243  25.482  0.00  0.00    +0.210 HD
ENDBRANCH  72  77
BRANCH  68  79
ATOM     79  C   UNL     1       6.234  -0.001  23.045  0.00  0.00    +0.188 C 
BRANCH  79  80
ATOM     80  O   UNL     1       5.592   0.842  23.993  0.00  0.00    -0.392 OA
ATOM     81  H   UNL     1       4.975   1.412  23.501  0.00  0.00    +0.210 HD
ENDBRANCH  79  80
ENDBRANCH  68  79
ENDBRANCH  66  67
ENDBRANCH  59  66
BRANCH  57  82
ATOM     82  C   UNL     1       7.970  -5.647  26.004  0.00  0.00    +0.190 C 
BRANCH  82  83
ATOM     83  O   UNL     1       7.934  -5.922  27.406  0.00  0.00    -0.392 OA
ATOM     84  H   UNL     1       7.547  -5.150  27.851  0.00  0.00    +0.210 HD
ENDBRANCH  82  83
ENDBRANCH  57  82
ENDBRANCH  55  56
ENDBRANCH  48  55
BRANCH  46  85
ATOM     85  C   UNL     1       4.913  -5.523  30.159  0.00  0.00    +0.188 C 
BRANCH  85  86
ATOM     86  O   UNL     1       6.253  -5.995  30.283  0.00  0.00    -0.392 OA
ATOM     87  H   UNL     1       6.811  -5.430  29.715  0.00  0.00    +0.210 HD
ENDBRANCH  85  86
ENDBRANCH  46  85
ENDBRANCH   1  45
TORSDOF 36
ENDMDL
MODEL 9
REMARK VINA RESULT:      -3.6      1.622      2.616
REMARK  Name = 
REMARK  36 active torsions:
REMARK  status: ('A' for Active; 'I' for Inactive)
REMARK    1  A    between atoms: O_1  and  C_2
REMARK    2  A    between atoms: C_2  and  C_3
REMARK    3  A    between atoms: C_6  and  S_8
REMARK    4  A    between atoms: S_8  and  C_9
REMARK    5  A    between atoms: C_11  and  O_13
REMARK    6  A    between atoms: C_14  and  O_16
REMARK    7  A    between atoms: C_17  and  O_19
REMARK    8  A    between atoms: O_19  and  C_20
REMARK    9  A    between atoms: C_22  and  O_24
REMARK   10  A    between atoms: C_25  and  O_27
REMARK   11  A    between atoms: C_28  and  S_35
REMARK   12  A    between atoms: C_31  and  C_33
REMARK   13  A    between atoms: C_33  and  O_34
REMARK   14  A    between atoms: S_35  and  C_36
REMARK   15  A    between atoms: C_38  and  O_40
REMARK   16  A    between atoms: C_41  and  O_43
REMARK   17  A    between atoms: C_44  and  O_46
REMARK   18  A    between atoms: O_46  and  C_47
REMARK   19  A    between atoms: C_49  and  O_51
REMARK   20  A    between atoms: C_52  and  O_54
REMARK   21  A    between atoms: C_55  and  S_62
REMARK   22  A    between atoms: C_58  and  C_60
REMARK   23  A    between atoms: C_60  and  O_61
REMARK   24  A    between atoms: S_62  and  C_63
REMARK   25  A    between atoms: C_65  and  O_67
REMARK   26  A    between atoms: C_68  and  O_70
REMARK   27  A    between atoms: C_71  and  O_73
REMARK   28  A    between atoms: C_75  and  C_77
REMARK   29  A    between atoms: C_77  and  O_78
REMARK   30  A    between atoms: C_80  and  C_82
REMARK   31  A    between atoms: C_82  and  O_83
REMARK   32  A    between atoms: C_85  and  C_87
REMARK   33  A    between atoms: C_87  and  O_88
REMARK   34  A    between atoms: C_89  and  O_91
REMARK   35  A    between atoms: C_92  and  O_94
REMARK   36  A    between atoms: C_95  and  O_97
REMARK                            x       y       z     vdW  Elec       q    Type
REMARK                         _______ _______ _______ _____ _____    ______ ____
ROOT
ATOM      1  S   UNL     1       4.803  -6.246  24.351  0.00  0.00    -0.118 S 
ENDROOT
BRANCH   1   5
ATOM      2  C   UNL     1       2.624  -5.750  28.396  0.00  0.00    +0.183 C 
ATOM      3  C   UNL     1       2.379  -6.938  27.417  0.00  0.00    +0.176 C 
ATOM      4  O   UNL     1       3.396  -7.093  26.427  0.00  0.00    -0.355 OA
ATOM      5  C   UNL     1       3.905  -5.878  25.909  0.00  0.00    +0.207 C 
ATOM      6  C   UNL     1       4.793  -5.274  27.003  0.00  0.00    +0.184 C 
ATOM      7  C   UNL     1       3.896  -4.878  28.181  0.00  0.00    +0.178 C 
BRANCH   6   8
ATOM      8  O   UNL     1       5.799  -6.195  27.461  0.00  0.00    -0.386 OA
ATOM      9  H   UNL     1       6.562  -5.634  27.709  0.00  0.00    +0.210 HD
ENDBRANCH   6   8
BRANCH   7  10
ATOM     10  O   UNL     1       4.692  -4.830  29.388  0.00  0.00    -0.386 OA
ATOM     11  H   UNL     1       4.549  -3.949  29.787  0.00  0.00    +0.210 HD
ENDBRANCH   7  10
BRANCH   3  12
ATOM     12  C   UNL     1       1.005  -7.193  26.769  0.00  0.00    +0.190 C 
BRANCH  12  13
ATOM     13  O   UNL     1       0.492  -6.097  26.032  0.00  0.00    -0.392 OA
ATOM     14  H   UNL     1       0.966  -6.058  25.187  0.00  0.00    +0.210 HD
ENDBRANCH  12  13
ENDBRANCH   3  12
BRANCH   2  15
ATOM     15  O   UNL     1       1.497  -4.958  28.759  0.00  0.00    -0.340 OA
BRANCH  15  19
ATOM     16  C   UNL     1       2.647  -1.172  27.439  0.00  0.00    +0.111 C 
ATOM     17  C   UNL     1       3.193  -1.667  28.798  0.00  0.00    +0.162 C 
ATOM     18  O   UNL     1       2.889  -3.052  29.060  0.00  0.00    -0.342 OA
ATOM     19  C   UNL     1       1.575  -3.522  28.795  0.00  0.00    +0.282 C 
ATOM     20  C   UNL     1       0.998  -3.052  27.447  0.00  0.00    +0.200 C 
ATOM     21  C   UNL     1       1.158  -1.550  27.302  0.00  0.00    +0.163 C 
BRANCH  20  22
ATOM     22  O   UNL     1       1.637  -3.680  26.319  0.00  0.00    -0.384 OA
ATOM     23  H   UNL     1       1.020  -4.383  26.040  0.00  0.00    +0.210 HD
ENDBRANCH  20  22
BRANCH  21  24
ATOM     24  O   UNL     1       0.642  -1.186  26.006  0.00  0.00    -0.388 OA
ATOM     25  H   UNL     1      -0.068  -1.830  25.821  0.00  0.00    +0.210 HD
ENDBRANCH  21  24
BRANCH  17  26
ATOM     26  C   UNL     1       2.841  -0.804  30.026  0.00  0.00    +0.188 C 
BRANCH  26  27
ATOM     27  O   UNL     1       1.438  -0.599  30.145  0.00  0.00    -0.392 OA
ATOM     28  H   UNL     1       1.013  -1.080  29.409  0.00  0.00    +0.210 HD
ENDBRANCH  26  27
ENDBRANCH  17  26
BRANCH  16  29
ATOM     29  S   UNL     1       2.750   0.638  27.059  0.00  0.00    -0.118 S 
BRANCH  29  34
ATOM     30  C   UNL     1       6.362   1.259  28.754  0.00  0.00    +0.176 C 
ATOM     31  C   UNL     1       6.444   2.798  28.775  0.00  0.00    +0.176 C 
ATOM     32  C   UNL     1       5.042   3.351  29.107  0.00  0.00    +0.177 C 
ATOM     33  C   UNL     1       4.000   2.776  28.150  0.00  0.00    +0.184 C 
ATOM     34  C   UNL     1       4.055   1.234  28.192  0.00  0.00    +0.207 C 
ATOM     35  O   UNL     1       5.362   0.798  27.816  0.00  0.00    -0.355 OA
BRANCH  33  36
ATOM     36  O   UNL     1       4.259   3.299  26.828  0.00  0.00    -0.386 OA
ATOM     37  H   UNL     1       5.085   2.907  26.529  0.00  0.00    +0.210 HD
ENDBRANCH  33  36
BRANCH  32  38
ATOM     38  O   UNL     1       5.036   4.782  29.087  0.00  0.00    -0.386 OA
ATOM     39  H   UNL     1       5.326   5.051  28.191  0.00  0.00    +0.210 HD
ENDBRANCH  32  38
BRANCH  31  40
ATOM     40  O   UNL     1       7.405   3.212  29.753  0.00  0.00    -0.386 OA
ATOM     41  H   UNL     1       8.141   2.571  29.752  0.00  0.00    +0.210 HD
ENDBRANCH  31  40
BRANCH  30  42
ATOM     42  C   UNL     1       7.729   0.635  28.434  0.00  0.00    +0.190 C 
BRANCH  42  43
ATOM     43  O   UNL     1       8.582   0.792  29.571  0.00  0.00    -0.392 OA
ATOM     44  H   UNL     1       8.337   0.102  30.211  0.00  0.00    +0.210 HD
ENDBRANCH  42  43
ENDBRANCH  30  42
ENDBRANCH  29  34
ENDBRANCH  16  29
ENDBRANCH  15  19
ENDBRANCH   2  15
ENDBRANCH   1   5
BRANCH   1  45
ATOM     45  C   UNL     1       6.004  -4.839  24.344  0.00  0.00    +0.111 C 
ATOM     46  C   UNL     1       7.240  -5.123  23.442  0.00  0.00    +0.162 C 
ATOM     47  O   UNL     1       8.198  -4.036  23.516  0.00  0.00    -0.342 OA
ATOM     48  C   UNL     1       7.681  -2.734  23.142  0.00  0.00    +0.282 C 
ATOM     49  C   UNL     1       6.500  -2.406  24.082  0.00  0.00    +0.200 C 
ATOM     50  C   UNL     1       5.420  -3.481  23.906  0.00  0.00    +0.163 C 
BRANCH  49  51
ATOM     51  O   UNL     1       6.947  -2.361  25.448  0.00  0.00    -0.384 OA
ATOM     52  H   UNL     1       6.673  -3.195  25.878  0.00  0.00    +0.210 HD
ENDBRANCH  49  51
BRANCH  50  53
ATOM     53  O   UNL     1       4.265  -3.039  24.598  0.00  0.00    -0.388 OA
ATOM     54  H   UNL     1       3.479  -3.248  24.050  0.00  0.00    +0.210 HD
ENDBRANCH  50  53
BRANCH  48  55
ATOM     55  O   UNL     1       8.769  -1.803  23.233  0.00  0.00    -0.340 OA
BRANCH  55  56
ATOM     56  C   UNL     1       8.469  -0.422  22.967  0.00  0.00    +0.183 C 
ATOM     57  C   UNL     1       8.429   0.355  24.302  0.00  0.00    +0.176 C 
ATOM     58  O   UNL     1       8.122   1.754  24.121  0.00  0.00    -0.355 OA
ATOM     59  C   UNL     1       8.971   2.454  23.211  0.00  0.00    +0.207 C 
ATOM     60  C   UNL     1       9.017   1.752  21.834  0.00  0.00    +0.184 C 
ATOM     61  C   UNL     1       9.457   0.288  22.014  0.00  0.00    +0.178 C 
BRANCH  60  62
ATOM     62  O   UNL     1       7.726   1.712  21.188  0.00  0.00    -0.386 OA
ATOM     63  H   UNL     1       7.427   2.640  21.094  0.00  0.00    +0.210 HD
ENDBRANCH  60  62
BRANCH  61  64
ATOM     64  O   UNL     1       9.485  -0.351  20.728  0.00  0.00    -0.386 OA
ATOM     65  H   UNL     1       9.783  -1.265  20.887  0.00  0.00    +0.210 HD
ENDBRANCH  61  64
BRANCH  59  66
ATOM     66  S   UNL     1       8.339   4.166  22.975  0.00  0.00    -0.118 S 
BRANCH  66  67
ATOM     67  C   UNL     1       7.001   4.267  24.278  0.00  0.00    +0.111 C 
ATOM     68  C   UNL     1       5.603   4.471  23.625  0.00  0.00    +0.162 C 
ATOM     69  O   UNL     1       5.486   5.773  23.016  0.00  0.00    -0.342 OA
ATOM     70  C   UNL     1       5.652   6.851  23.940  0.00  0.00    +0.279 C 
ATOM     71  C   UNL     1       7.018   6.802  24.644  0.00  0.00    +0.200 C 
ATOM     72  C   UNL     1       7.218   5.417  25.288  0.00  0.00    +0.163 C 
BRANCH  70  73
ATOM     73  O   UNL     1       4.617   6.846  24.917  0.00  0.00    -0.365 OA
ATOM     74  H   UNL     1       3.793   7.058  24.441  0.00  0.00    +0.213 HD
ENDBRANCH  70  73
BRANCH  71  75
ATOM     75  O   UNL     1       8.075   7.107  23.729  0.00  0.00    -0.384 OA
ATOM     76  H   UNL     1       7.908   8.013  23.394  0.00  0.00    +0.210 HD
ENDBRANCH  71  75
BRANCH  72  77
ATOM     77  O   UNL     1       6.334   5.247  26.409  0.00  0.00    -0.388 OA
ATOM     78  H   UNL     1       6.832   5.436  27.232  0.00  0.00    +0.210 HD
ENDBRANCH  72  77
BRANCH  68  79
ATOM     79  C   UNL     1       5.203   3.400  22.601  0.00  0.00    +0.188 C 
BRANCH  79  80
ATOM     80  O   UNL     1       5.355   2.102  23.163  0.00  0.00    -0.392 OA
ATOM     81  H   UNL     1       5.177   2.178  24.117  0.00  0.00    +0.210 HD
ENDBRANCH  79  80
ENDBRANCH  68  79
ENDBRANCH  66  67
ENDBRANCH  59  66
BRANCH  57  82
ATOM     82  C   UNL     1       9.700   0.178  25.148  0.00  0.00    +0.190 C 
BRANCH  82  83
ATOM     83  O   UNL     1       9.486  -0.763  26.202  0.00  0.00    -0.392 OA
ATOM     84  H   UNL     1      10.218  -1.401  26.184  0.00  0.00    +0.210 HD
ENDBRANCH  82  83
ENDBRANCH  57  82
ENDBRANCH  55  56
ENDBRANCH  48  55
BRANCH  46  85
ATOM     85  C   UNL     1       6.928  -5.454  21.965  0.00  0.00    +0.188 C 
BRANCH  85  86
ATOM     86  O   UNL     1       6.462  -6.799  21.861  0.00  0.00    -0.392 OA
ATOM     87  H   UNL     1       7.251  -7.372  21.803  0.00  0.00    +0.210 HD
ENDBRANCH  85  86
ENDBRANCH  46  85
ENDBRANCH   1  45
TORSDOF 36
ENDMDL
