MODEL 1
REMARK VINA RESULT:      -8.0      0.000      0.000
REMARK  Name = 
REMARK  10 active torsions:
REMARK  status: ('A' for Active; 'I' for Inactive)
REMARK    1  A    between atoms: C_1  and  C_2
REMARK    2  A    between atoms: C_2  and  C_3
REMARK    3  A    between atoms: C_2  and  C_4
REMARK    4  A    between atoms: C_4  and  C_5
REMARK    5  A    between atoms: C_5  and  N_7
REMARK    6  A    between atoms: C_5  and  C_19
REMARK    7  A    between atoms: C_8  and  C_10
REMARK    8  A    between atoms: N_21  and  C_22
REMARK    9  A    between atoms: N_27  and  S_31
REMARK   10  A    between atoms: S_31  and  C_34
REMARK                            x       y       z     vdW  Elec       q    Type
REMARK                         _______ _______ _______ _____ _____    ______ ____
ROOT
ATOM      1  C   UNL     1       7.234  -5.345  26.547  0.00  0.00    +0.234 C 
ATOM      2  N   UNL     1       5.900  -5.633  26.828  0.00  0.00    -0.304 N 
ATOM      3  H   UNL     1       5.298  -5.866  26.038  0.00  0.00    +0.149 HD
ATOM      4  O   UNL     1       8.053  -5.267  27.471  0.00  0.00    -0.274 OA
ENDROOT
BRANCH   2   5
ATOM      5  C   UNL     1       5.439  -5.885  28.224  0.00  0.00    +0.141 C 
ATOM      6  C   UNL     1       5.005  -4.641  29.014  0.00  0.00    +0.169 C 
ATOM      7  O   UNL     1       5.052  -4.618  30.244  0.00  0.00    -0.294 OA
ATOM      8  C   UNL     1       4.278  -3.563  28.245  0.00  0.00    +0.185 C 
ATOM      9  N   UNL     1       3.021  -4.003  27.614  0.00  0.00    -0.168 NA
ATOM     10  C   UNL     1       2.306  -5.166  28.154  0.00  0.00    +0.110 C 
ATOM     11  C   UNL     1       2.944  -6.462  27.655  0.00  0.00    +0.019 C 
ATOM     12  C   UNL     1       4.247  -6.870  28.353  0.00  0.00    +0.031 C 
BRANCH   9  13
ATOM     13  S   UNL     1       2.357  -3.092  26.356  0.00  0.00    +0.078 S 
ATOM     14  O   UNL     1       3.406  -2.208  25.882  0.00  0.00    -0.151 OA
ATOM     15  O   UNL     1       1.085  -2.546  26.787  0.00  0.00    -0.151 OA
BRANCH  13  16
ATOM     16  C   UNL     1       2.021  -4.253  25.011  0.00  0.00    +0.194 A 
ATOM     17  N   UNL     1       0.717  -4.339  24.637  0.00  0.00    -0.236 NA
ATOM     18  C   UNL     1       0.467  -5.102  23.544  0.00  0.00    +0.113 A 
ATOM     19  C   UNL     1       1.450  -5.753  22.809  0.00  0.00    +0.020 A 
ATOM     20  C   UNL     1       2.772  -5.643  23.228  0.00  0.00    +0.005 A 
ATOM     21  C   UNL     1       3.070  -4.881  24.355  0.00  0.00    +0.049 A 
ENDBRANCH  13  16
ENDBRANCH   9  13
ENDBRANCH   2   5
BRANCH   1  22
ATOM     22  C   UNL     1       7.629  -4.971  25.045  0.00  0.00    +0.159 C 
BRANCH  22  23
ATOM     23  N   UNL     1       8.085  -3.584  24.781  0.00  0.00    -0.298 N 
ATOM     24  H   UNL     1       7.379  -2.868  24.649  0.00  0.00    +0.150 HD
ATOM     25  C   UNL     1       9.347  -3.245  24.340  0.00  0.00    +0.280 C 
ATOM     26  O   UNL     1      10.260  -4.069  24.393  0.00  0.00    -0.267 OA
BRANCH  25  27
ATOM     27  C   UNL     1       9.531  -1.871  23.854  0.00  0.00    +0.190 A 
ATOM     28  O   UNL     1      10.122  -0.892  24.633  0.00  0.00    -0.450 OA
ATOM     29  C   UNL     1      10.175   0.259  23.880  0.00  0.00    +0.136 A 
ATOM     30  C   UNL     1      10.692   1.502  24.271  0.00  0.00    +0.047 A 
ATOM     31  C   UNL     1      10.700   2.530  23.312  0.00  0.00    +0.004 A 
ATOM     32  C   UNL     1      10.208   2.315  22.024  0.00  0.00    +0.001 A 
ATOM     33  C   UNL     1       9.664   1.072  21.664  0.00  0.00    +0.011 A 
ATOM     34  C   UNL     1       9.645   0.026  22.617  0.00  0.00    +0.021 A 
ATOM     35  C   UNL     1       9.181  -1.315  22.633  0.00  0.00    +0.063 A 
ENDBRANCH  25  27
ENDBRANCH  22  23
BRANCH  22  36
ATOM     36  C   UNL     1       6.415  -5.277  24.098  0.00  0.00    +0.034 C 
BRANCH  36  38
ATOM     37  C   UNL     1       6.204  -6.044  21.666  0.00  0.00    +0.007 C 
ATOM     38  C   UNL     1       6.622  -4.910  22.602  0.00  0.00    -0.015 C 
ATOM     39  C   UNL     1       5.864  -3.634  22.193  0.00  0.00    +0.007 C 
ENDBRANCH  36  38
ENDBRANCH  22  36
ENDBRANCH   1  22
TORSDOF 8
ENDMDL
MODEL 2
REMARK VINA RESULT:      -7.9      1.653      2.632
REMARK  Name = 
REMARK  10 active torsions:
REMARK  status: ('A' for Active; 'I' for Inactive)
REMARK    1  A    between atoms: C_1  and  C_2
REMARK    2  A    between atoms: C_2  and  C_3
REMARK    3  A    between atoms: C_2  and  C_4
REMARK    4  A    between atoms: C_4  and  C_5
REMARK    5  A    between atoms: C_5  and  N_7
REMARK    6  A    between atoms: C_5  and  C_19
REMARK    7  A    between atoms: C_8  and  C_10
REMARK    8  A    between atoms: N_21  and  C_22
REMARK    9  A    between atoms: N_27  and  S_31
REMARK   10  A    between atoms: S_31  and  C_34
REMARK                            x       y       z     vdW  Elec       q    Type
REMARK                         _______ _______ _______ _____ _____    ______ ____
ROOT
ATOM      1  C   UNL     1       7.051  -5.572  26.301  0.00  0.00    +0.234 C 
ATOM      2  N   UNL     1       5.697  -5.741  26.580  0.00  0.00    -0.304 N 
ATOM      3  H   UNL     1       5.068  -5.853  25.785  0.00  0.00    +0.149 HD
ATOM      4  O   UNL     1       7.881  -5.645  27.215  0.00  0.00    -0.274 OA
ENDROOT
BRANCH   2   5
ATOM      5  C   UNL     1       5.223  -6.044  27.961  0.00  0.00    +0.141 C 
ATOM      6  C   UNL     1       5.121  -4.839  28.907  0.00  0.00    +0.169 C 
ATOM      7  O   UNL     1       5.202  -4.977  30.129  0.00  0.00    -0.294 OA
ATOM      8  C   UNL     1       4.656  -3.534  28.304  0.00  0.00    +0.185 C 
ATOM      9  N   UNL     1       3.314  -3.586  27.695  0.00  0.00    -0.168 NA
ATOM     10  C   UNL     1       2.354  -4.604  28.139  0.00  0.00    +0.110 C 
ATOM     11  C   UNL     1       2.649  -5.943  27.464  0.00  0.00    +0.019 C 
ATOM     12  C   UNL     1       3.833  -6.728  28.042  0.00  0.00    +0.031 C 
BRANCH   9  13
ATOM     13  S   UNL     1       2.858  -2.398  26.584  0.00  0.00    +0.078 S 
ATOM     14  O   UNL     1       1.949  -1.503  27.278  0.00  0.00    -0.151 OA
ATOM     15  O   UNL     1       2.448  -3.036  25.349  0.00  0.00    -0.151 OA
BRANCH  13  16
ATOM     16  C   UNL     1       4.348  -1.437  26.229  0.00  0.00    +0.194 A 
ATOM     17  N   UNL     1       5.030  -1.822  25.117  0.00  0.00    -0.236 NA
ATOM     18  C   UNL     1       6.072  -1.029  24.761  0.00  0.00    +0.113 A 
ATOM     19  C   UNL     1       6.442   0.122  25.446  0.00  0.00    +0.020 A 
ATOM     20  C   UNL     1       5.721   0.478  26.582  0.00  0.00    +0.005 A 
ATOM     21  C   UNL     1       4.653  -0.317  26.989  0.00  0.00    +0.049 A 
ENDBRANCH  13  16
ENDBRANCH   9  13
ENDBRANCH   2   5
BRANCH   1  22
ATOM     22  C   UNL     1       7.471  -5.133  24.823  0.00  0.00    +0.159 C 
BRANCH  22  23
ATOM     23  N   UNL     1       7.927  -3.734  24.626  0.00  0.00    -0.298 N 
ATOM     24  H   UNL     1       7.225  -3.030  24.420  0.00  0.00    +0.150 HD
ATOM     25  C   UNL     1       9.223  -3.366  24.337  0.00  0.00    +0.280 C 
ATOM     26  O   UNL     1      10.141  -4.173  24.487  0.00  0.00    -0.267 OA
BRANCH  25  27
ATOM     27  C   UNL     1       9.434  -1.984  23.889  0.00  0.00    +0.190 A 
ATOM     28  O   UNL     1       9.906  -1.001  24.741  0.00  0.00    -0.450 OA
ATOM     29  C   UNL     1      10.024   0.159  24.010  0.00  0.00    +0.136 A 
ATOM     30  C   UNL     1      10.464   1.408  24.471  0.00  0.00    +0.047 A 
ATOM     31  C   UNL     1      10.564   2.446  23.528  0.00  0.00    +0.004 A 
ATOM     32  C   UNL     1      10.234   2.236  22.189  0.00  0.00    +0.001 A 
ATOM     33  C   UNL     1       9.764   0.986  21.756  0.00  0.00    +0.011 A 
ATOM     34  C   UNL     1       9.654  -0.070  22.691  0.00  0.00    +0.021 A 
ATOM     35  C   UNL     1       9.221  -1.421  22.640  0.00  0.00    +0.063 A 
ENDBRANCH  25  27
ENDBRANCH  22  23
BRANCH  22  36
ATOM     36  C   UNL     1       6.274  -5.401  23.842  0.00  0.00    +0.034 C 
BRANCH  36  38
ATOM     37  C   UNL     1       6.131  -5.989  21.356  0.00  0.00    +0.007 C 
ATOM     38  C   UNL     1       6.482  -4.912  22.382  0.00  0.00    -0.015 C 
ATOM     39  C   UNL     1       5.665  -3.646  22.060  0.00  0.00    +0.007 C 
ENDBRANCH  36  38
ENDBRANCH  22  36
ENDBRANCH   1  22
TORSDOF 8
ENDMDL
MODEL 3
REMARK VINA RESULT:      -7.6      3.175      8.088
REMARK  Name = 
REMARK  10 active torsions:
REMARK  status: ('A' for Active; 'I' for Inactive)
REMARK    1  A    between atoms: C_1  and  C_2
REMARK    2  A    between atoms: C_2  and  C_3
REMARK    3  A    between atoms: C_2  and  C_4
REMARK    4  A    between atoms: C_4  and  C_5
REMARK    5  A    between atoms: C_5  and  N_7
REMARK    6  A    between atoms: C_5  and  C_19
REMARK    7  A    between atoms: C_8  and  C_10
REMARK    8  A    between atoms: N_21  and  C_22
REMARK    9  A    between atoms: N_27  and  S_31
REMARK   10  A    between atoms: S_31  and  C_34
REMARK                            x       y       z     vdW  Elec       q    Type
REMARK                         _______ _______ _______ _____ _____    ______ ____
ROOT
ATOM      1  C   UNL     1       7.160   1.644  24.766  0.00  0.00    +0.234 C 
ATOM      2  N   UNL     1       7.718   0.979  23.676  0.00  0.00    -0.304 N 
ATOM      3  H   UNL     1       7.088   0.422  23.099  0.00  0.00    +0.149 HD
ATOM      4  O   UNL     1       7.822   2.496  25.370  0.00  0.00    -0.274 OA
ENDROOT
BRANCH   2   5
ATOM      5  C   UNL     1       9.093   1.298  23.195  0.00  0.00    +0.141 C 
ATOM      6  C   UNL     1      10.237   0.875  24.129  0.00  0.00    +0.169 C 
ATOM      7  O   UNL     1      11.325   1.452  24.108  0.00  0.00    -0.294 OA
ATOM      8  C   UNL     1      10.065  -0.429  24.873  0.00  0.00    +0.185 C 
ATOM      9  N   UNL     1       9.898  -1.610  24.006  0.00  0.00    -0.168 NA
ATOM     10  C   UNL     1      10.411  -1.579  22.631  0.00  0.00    +0.110 C 
ATOM     11  C   UNL     1       9.437  -0.840  21.715  0.00  0.00    +0.019 C 
ATOM     12  C   UNL     1       9.463   0.690  21.817  0.00  0.00    +0.031 C 
BRANCH   9  13
ATOM     13  S   UNL     1       9.228  -3.023  24.645  0.00  0.00    +0.078 S 
ATOM     14  O   UNL     1       8.795  -2.707  25.994  0.00  0.00    -0.151 OA
ATOM     15  O   UNL     1      10.140  -4.126  24.413  0.00  0.00    -0.151 OA
BRANCH  13  16
ATOM     16  C   UNL     1       7.728  -3.349  23.689  0.00  0.00    +0.194 A 
ATOM     17  N   UNL     1       7.031  -2.243  23.316  0.00  0.00    -0.236 NA
ATOM     18  C   UNL     1       5.981  -2.461  22.487  0.00  0.00    +0.113 A 
ATOM     19  C   UNL     1       5.616  -3.713  22.007  0.00  0.00    +0.020 A 
ATOM     20  C   UNL     1       6.353  -4.820  22.416  0.00  0.00    +0.005 A 
ATOM     21  C   UNL     1       7.431  -4.641  23.279  0.00  0.00    +0.049 A 
ENDBRANCH  13  16
ENDBRANCH   9  13
ENDBRANCH   2   5
BRANCH   1  22
ATOM     22  C   UNL     1       5.730   1.166  25.295  0.00  0.00    +0.159 C 
BRANCH  22  23
ATOM     23  N   UNL     1       5.391  -0.272  25.154  0.00  0.00    -0.298 N 
ATOM     24  H   UNL     1       4.827  -0.552  24.358  0.00  0.00    +0.150 HD
ATOM     25  C   UNL     1       5.457  -1.196  26.175  0.00  0.00    +0.280 C 
ATOM     26  O   UNL     1       6.061  -0.926  27.213  0.00  0.00    -0.267 OA
BRANCH  25  27
ATOM     27  C   UNL     1       4.812  -2.493  25.935  0.00  0.00    +0.190 A 
ATOM     28  O   UNL     1       3.608  -2.599  25.261  0.00  0.00    -0.450 OA
ATOM     29  C   UNL     1       3.300  -3.938  25.174  0.00  0.00    +0.136 A 
ATOM     30  C   UNL     1       2.167  -4.508  24.574  0.00  0.00    +0.047 A 
ATOM     31  C   UNL     1       2.088  -5.911  24.547  0.00  0.00    +0.004 A 
ATOM     32  C   UNL     1       3.097  -6.700  25.098  0.00  0.00    +0.001 A 
ATOM     33  C   UNL     1       4.207  -6.108  25.723  0.00  0.00    +0.011 A 
ATOM     34  C   UNL     1       4.303  -4.697  25.763  0.00  0.00    +0.021 A 
ATOM     35  C   UNL     1       5.229  -3.765  26.299  0.00  0.00    +0.063 A 
ENDBRANCH  25  27
ENDBRANCH  22  23
BRANCH  22  36
ATOM     36  C   UNL     1       4.608   2.006  24.588  0.00  0.00    +0.034 C 
BRANCH  36  38
ATOM     37  C   UNL     1       4.525   3.579  22.571  0.00  0.00    +0.007 C 
ATOM     38  C   UNL     1       5.067   3.363  23.984  0.00  0.00    -0.015 C 
ATOM     39  C   UNL     1       4.658   4.567  24.853  0.00  0.00    +0.007 C 
ENDBRANCH  36  38
ENDBRANCH  22  36
ENDBRANCH   1  22
TORSDOF 8
ENDMDL
MODEL 4
REMARK VINA RESULT:      -7.6      3.451      8.828
REMARK  Name = 
REMARK  10 active torsions:
REMARK  status: ('A' for Active; 'I' for Inactive)
REMARK    1  A    between atoms: C_1  and  C_2
REMARK    2  A    between atoms: C_2  and  C_3
REMARK    3  A    between atoms: C_2  and  C_4
REMARK    4  A    between atoms: C_4  and  C_5
REMARK    5  A    between atoms: C_5  and  N_7
REMARK    6  A    between atoms: C_5  and  C_19
REMARK    7  A    between atoms: C_8  and  C_10
REMARK    8  A    between atoms: N_21  and  C_22
REMARK    9  A    between atoms: N_27  and  S_31
REMARK   10  A    between atoms: S_31  and  C_34
REMARK                            x       y       z     vdW  Elec       q    Type
REMARK                         _______ _______ _______ _____ _____    ______ ____
ROOT
ATOM      1  C   UNL     1       5.354  -0.751  25.171  0.00  0.00    +0.234 C 
ATOM      2  N   UNL     1       5.934   0.209  24.344  0.00  0.00    -0.304 N 
ATOM      3  H   UNL     1       6.413  -0.125  23.508  0.00  0.00    +0.149 HD
ATOM      4  O   UNL     1       4.585  -0.399  26.074  0.00  0.00    -0.274 OA
ENDROOT
BRANCH   2   5
ATOM      5  C   UNL     1       5.622   1.659  24.502  0.00  0.00    +0.141 C 
ATOM      6  C   UNL     1       6.658   2.480  25.283  0.00  0.00    +0.169 C 
ATOM      7  O   UNL     1       6.341   3.513  25.873  0.00  0.00    -0.294 OA
ATOM      8  C   UNL     1       8.111   2.120  25.077  0.00  0.00    +0.185 C 
ATOM      9  N   UNL     1       8.580   2.241  23.684  0.00  0.00    -0.168 NA
ATOM     10  C   UNL     1       7.880   3.141  22.759  0.00  0.00    +0.110 C 
ATOM     11  C   UNL     1       6.619   2.469  22.215  0.00  0.00    +0.019 C 
ATOM     12  C   UNL     1       5.422   2.435  23.174  0.00  0.00    +0.031 C 
BRANCH   9  13
ATOM     13  S   UNL     1       9.987   1.439  23.207  0.00  0.00    +0.078 S 
ATOM     14  O   UNL     1      10.931   1.562  24.304  0.00  0.00    -0.151 OA
ATOM     15  O   UNL     1      10.357   1.881  21.877  0.00  0.00    -0.151 OA
BRANCH  13  16
ATOM     16  C   UNL     1       9.558  -0.314  23.096  0.00  0.00    +0.194 A 
ATOM     17  N   UNL     1      10.097  -1.101  24.065  0.00  0.00    -0.236 NA
ATOM     18  C   UNL     1       9.679  -2.391  24.077  0.00  0.00    +0.113 A 
ATOM     19  C   UNL     1       8.745  -2.913  23.190  0.00  0.00    +0.020 A 
ATOM     20  C   UNL     1       8.221  -2.075  22.210  0.00  0.00    +0.005 A 
ATOM     21  C   UNL     1       8.636  -0.747  22.155  0.00  0.00    +0.049 A 
ENDBRANCH  13  16
ENDBRANCH   9  13
ENDBRANCH   2   5
BRANCH   1  22
ATOM     22  C   UNL     1       5.828  -2.269  25.019  0.00  0.00    +0.159 C 
BRANCH  22  23
ATOM     23  N   UNL     1       4.778  -3.300  24.830  0.00  0.00    -0.298 N 
ATOM     24  H   UNL     1       4.398  -3.750  25.656  0.00  0.00    +0.150 HD
ATOM     25  C   UNL     1       4.532  -3.959  23.644  0.00  0.00    +0.280 C 
ATOM     26  O   UNL     1       5.007  -3.531  22.591  0.00  0.00    -0.267 OA
BRANCH  25  27
ATOM     27  C   UNL     1       3.665  -5.142  23.713  0.00  0.00    +0.190 A 
ATOM     28  O   UNL     1       2.766  -5.451  22.708  0.00  0.00    -0.450 OA
ATOM     29  C   UNL     1       2.142  -6.627  23.058  0.00  0.00    +0.136 A 
ATOM     30  C   UNL     1       1.154  -7.309  22.333  0.00  0.00    +0.047 A 
ATOM     31  C   UNL     1       0.699  -8.533  22.853  0.00  0.00    +0.004 A 
ATOM     32  C   UNL     1       1.213  -9.042  24.046  0.00  0.00    +0.001 A 
ATOM     33  C   UNL     1       2.178  -8.327  24.773  0.00  0.00    +0.011 A 
ATOM     34  C   UNL     1       2.646  -7.092  24.266  0.00  0.00    +0.021 A 
ATOM     35  C   UNL     1       3.569  -6.107  24.704  0.00  0.00    +0.063 A 
ENDBRANCH  25  27
ENDBRANCH  22  23
BRANCH  22  36
ATOM     36  C   UNL     1       6.690  -2.670  26.269  0.00  0.00    +0.034 C 
BRANCH  36  38
ATOM     37  C   UNL     1       8.296  -4.628  26.635  0.00  0.00    +0.007 C 
ATOM     38  C   UNL     1       6.834  -4.196  26.522  0.00  0.00    -0.015 C 
ATOM     39  C   UNL     1       6.088  -4.661  27.786  0.00  0.00    +0.007 C 
ENDBRANCH  36  38
ENDBRANCH  22  36
ENDBRANCH   1  22
TORSDOF 8
ENDMDL
MODEL 5
REMARK VINA RESULT:      -7.4      3.263      8.070
REMARK  Name = 
REMARK  10 active torsions:
REMARK  status: ('A' for Active; 'I' for Inactive)
REMARK    1  A    between atoms: C_1  and  C_2
REMARK    2  A    between atoms: C_2  and  C_3
REMARK    3  A    between atoms: C_2  and  C_4
REMARK    4  A    between atoms: C_4  and  C_5
REMARK    5  A    between atoms: C_5  and  N_7
REMARK    6  A    between atoms: C_5  and  C_19
REMARK    7  A    between atoms: C_8  and  C_10
REMARK    8  A    between atoms: N_21  and  C_22
REMARK    9  A    between atoms: N_27  and  S_31
REMARK   10  A    between atoms: S_31  and  C_34
REMARK                            x       y       z     vdW  Elec       q    Type
REMARK                         _______ _______ _______ _____ _____    ______ ____
ROOT
ATOM      1  C   UNL     1       7.071   1.401  25.057  0.00  0.00    +0.234 C 
ATOM      2  N   UNL     1       7.587   0.885  23.870  0.00  0.00    -0.304 N 
ATOM      3  H   UNL     1       6.937   0.401  23.251  0.00  0.00    +0.149 HD
ATOM      4  O   UNL     1       7.753   2.175  25.738  0.00  0.00    -0.274 OA
ENDROOT
BRANCH   2   5
ATOM      5  C   UNL     1       8.941   1.275  23.380  0.00  0.00    +0.141 C 
ATOM      6  C   UNL     1      10.116   0.859  24.276  0.00  0.00    +0.169 C 
ATOM      7  O   UNL     1      11.181   1.478  24.261  0.00  0.00    -0.294 OA
ATOM      8  C   UNL     1      10.007  -0.480  24.968  0.00  0.00    +0.185 C 
ATOM      9  N   UNL     1       9.868  -1.630  24.055  0.00  0.00    -0.168 NA
ATOM     10  C   UNL     1      10.355  -1.524  22.675  0.00  0.00    +0.110 C 
ATOM     11  C   UNL     1       9.337  -0.786  21.806  0.00  0.00    +0.019 C 
ATOM     12  C   UNL     1       9.308   0.739  21.972  0.00  0.00    +0.031 C 
BRANCH   9  13
ATOM     13  S   UNL     1       9.263  -3.092  24.646  0.00  0.00    +0.078 S 
ATOM     14  O   UNL     1       8.823  -2.843  26.007  0.00  0.00    -0.151 OA
ATOM     15  O   UNL     1      10.220  -4.146  24.373  0.00  0.00    -0.151 OA
BRANCH  13  16
ATOM     16  C   UNL     1       7.774  -3.449  23.685  0.00  0.00    +0.194 A 
ATOM     17  N   UNL     1       7.034  -2.361  23.343  0.00  0.00    -0.236 NA
ATOM     18  C   UNL     1       5.990  -2.596  22.510  0.00  0.00    +0.113 A 
ATOM     19  C   UNL     1       5.672  -3.848  21.998  0.00  0.00    +0.020 A 
ATOM     20  C   UNL     1       6.451  -4.936  22.376  0.00  0.00    +0.005 A 
ATOM     21  C   UNL     1       7.524  -4.740  23.241  0.00  0.00    +0.049 A 
ENDBRANCH  13  16
ENDBRANCH   9  13
ENDBRANCH   2   5
BRANCH   1  22
ATOM     22  C   UNL     1       5.666   0.846  25.576  0.00  0.00    +0.159 C 
BRANCH  22  23
ATOM     23  N   UNL     1       5.353  -0.581  25.317  0.00  0.00    -0.298 N 
ATOM     24  H   UNL     1       4.924  -0.821  24.429  0.00  0.00    +0.150 HD
ATOM     25  C   UNL     1       5.252  -1.550  26.293  0.00  0.00    +0.280 C 
ATOM     26  O   UNL     1       5.681  -1.331  27.426  0.00  0.00    -0.267 OA
BRANCH  25  27
ATOM     27  C   UNL     1       4.653  -2.830  25.893  0.00  0.00    +0.190 A 
ATOM     28  O   UNL     1       5.331  -4.029  26.027  0.00  0.00    -0.450 OA
ATOM     29  C   UNL     1       4.487  -5.030  25.601  0.00  0.00    +0.136 A 
ATOM     30  C   UNL     1       4.760  -6.405  25.558  0.00  0.00    +0.047 A 
ATOM     31  C   UNL     1       3.723  -7.258  25.142  0.00  0.00    +0.004 A 
ATOM     32  C   UNL     1       2.474  -6.749  24.784  0.00  0.00    +0.001 A 
ATOM     33  C   UNL     1       2.233  -5.366  24.802  0.00  0.00    +0.011 A 
ATOM     34  C   UNL     1       3.266  -4.492  25.215  0.00  0.00    +0.021 A 
ATOM     35  C   UNL     1       3.405  -3.086  25.347  0.00  0.00    +0.063 A 
ENDBRANCH  25  27
ENDBRANCH  22  23
BRANCH  22  36
ATOM     36  C   UNL     1       4.509   1.719  24.973  0.00  0.00    +0.034 C 
BRANCH  36  38
ATOM     37  C   UNL     1       3.569   1.927  27.344  0.00  0.00    +0.007 C 
ATOM     38  C   UNL     1       3.743   2.612  25.988  0.00  0.00    -0.015 C 
ATOM     39  C   UNL     1       4.427   3.974  26.214  0.00  0.00    +0.007 C 
ENDBRANCH  36  38
ENDBRANCH  22  36
ENDBRANCH   1  22
TORSDOF 8
ENDMDL
MODEL 6
REMARK VINA RESULT:      -7.4      2.796      5.379
REMARK  Name = 
REMARK  10 active torsions:
REMARK  status: ('A' for Active; 'I' for Inactive)
REMARK    1  A    between atoms: C_1  and  C_2
REMARK    2  A    between atoms: C_2  and  C_3
REMARK    3  A    between atoms: C_2  and  C_4
REMARK    4  A    between atoms: C_4  and  C_5
REMARK    5  A    between atoms: C_5  and  N_7
REMARK    6  A    between atoms: C_5  and  C_19
REMARK    7  A    between atoms: C_8  and  C_10
REMARK    8  A    between atoms: N_21  and  C_22
REMARK    9  A    between atoms: N_27  and  S_31
REMARK   10  A    between atoms: S_31  and  C_34
REMARK                            x       y       z     vdW  Elec       q    Type
REMARK                         _______ _______ _______ _____ _____    ______ ____
ROOT
ATOM      1  C   UNL     1       6.727  -1.757  23.195  0.00  0.00    +0.234 C 
ATOM      2  N   UNL     1       5.869  -2.802  23.532  0.00  0.00    -0.304 N 
ATOM      3  H   UNL     1       5.086  -2.581  24.147  0.00  0.00    +0.149 HD
ATOM      4  O   UNL     1       7.559  -1.912  22.293  0.00  0.00    -0.274 OA
ENDROOT
BRANCH   2   5
ATOM      5  C   UNL     1       5.907  -4.101  22.801  0.00  0.00    +0.141 C 
ATOM      6  C   UNL     1       7.085  -5.024  23.150  0.00  0.00    +0.169 C 
ATOM      7  O   UNL     1       7.499  -5.861  22.346  0.00  0.00    -0.294 OA
ATOM      8  C   UNL     1       7.531  -5.046  24.593  0.00  0.00    +0.185 C 
ATOM      9  N   UNL     1       6.491  -5.468  25.549  0.00  0.00    -0.168 NA
ATOM     10  C   UNL     1       5.374  -6.299  25.085  0.00  0.00    +0.110 C 
ATOM     11  C   UNL     1       4.315  -5.435  24.403  0.00  0.00    +0.019 C 
ATOM     12  C   UNL     1       4.646  -4.988  22.974  0.00  0.00    +0.031 C 
BRANCH   9  13
ATOM     13  S   UNL     1       6.665  -5.092  27.186  0.00  0.00    +0.078 S 
ATOM     14  O   UNL     1       7.595  -3.979  27.264  0.00  0.00    -0.151 OA
ATOM     15  O   UNL     1       6.926  -6.310  27.927  0.00  0.00    -0.151 OA
BRANCH  13  16
ATOM     16  C   UNL     1       5.062  -4.457  27.733  0.00  0.00    +0.194 A 
ATOM     17  N   UNL     1       4.329  -5.318  28.488  0.00  0.00    -0.236 NA
ATOM     18  C   UNL     1       3.188  -4.812  29.018  0.00  0.00    +0.113 A 
ATOM     19  C   UNL     1       2.767  -3.499  28.845  0.00  0.00    +0.020 A 
ATOM     20  C   UNL     1       3.543  -2.652  28.061  0.00  0.00    +0.005 A 
ATOM     21  C   UNL     1       4.716  -3.137  27.487  0.00  0.00    +0.049 A 
ENDBRANCH  13  16
ENDBRANCH   9  13
ENDBRANCH   2   5
BRANCH   1  22
ATOM     22  C   UNL     1       6.709  -0.440  24.099  0.00  0.00    +0.159 C 
BRANCH  22  23
ATOM     23  N   UNL     1       7.819   0.529  23.924  0.00  0.00    -0.298 N 
ATOM     24  H   UNL     1       8.509   0.602  24.665  0.00  0.00    +0.150 HD
ATOM     25  C   UNL     1       7.805   1.584  23.036  0.00  0.00    +0.280 C 
ATOM     26  O   UNL     1       6.962   1.624  22.140  0.00  0.00    -0.267 OA
BRANCH  25  27
ATOM     27  C   UNL     1       8.851   2.601  23.202  0.00  0.00    +0.190 A 
ATOM     28  O   UNL     1       8.594   3.827  23.791  0.00  0.00    -0.450 OA
ATOM     29  C   UNL     1       9.780   4.525  23.827  0.00  0.00    +0.136 A 
ATOM     30  C   UNL     1       9.986   5.815  24.336  0.00  0.00    +0.047 A 
ATOM     31  C   UNL     1      11.301   6.312  24.325  0.00  0.00    +0.004 A 
ATOM     32  C   UNL     1      12.354   5.547  23.823  0.00  0.00    +0.001 A 
ATOM     33  C   UNL     1      12.120   4.270  23.287  0.00  0.00    +0.011 A 
ATOM     34  C   UNL     1      10.802   3.755  23.287  0.00  0.00    +0.021 A 
ATOM     35  C   UNL     1      10.187   2.558  22.836  0.00  0.00    +0.063 A 
ENDBRANCH  25  27
ENDBRANCH  22  23
BRANCH  22  36
ATOM     36  C   UNL     1       6.652  -0.851  25.614  0.00  0.00    +0.034 C 
BRANCH  36  38
ATOM     37  C   UNL     1       6.819   0.415  27.831  0.00  0.00    +0.007 C 
ATOM     38  C   UNL     1       7.559  -0.025  26.567  0.00  0.00    -0.015 C 
ATOM     39  C   UNL     1       8.830  -0.787  26.985  0.00  0.00    +0.007 C 
ENDBRANCH  36  38
ENDBRANCH  22  36
ENDBRANCH   1  22
TORSDOF 8
ENDMDL
MODEL 7
REMARK VINA RESULT:      -7.3      2.445      4.625
REMARK  Name = 
REMARK  10 active torsions:
REMARK  status: ('A' for Active; 'I' for Inactive)
REMARK    1  A    between atoms: C_1  and  C_2
REMARK    2  A    between atoms: C_2  and  C_3
REMARK    3  A    between atoms: C_2  and  C_4
REMARK    4  A    between atoms: C_4  and  C_5
REMARK    5  A    between atoms: C_5  and  N_7
REMARK    6  A    between atoms: C_5  and  C_19
REMARK    7  A    between atoms: C_8  and  C_10
REMARK    8  A    between atoms: N_21  and  C_22
REMARK    9  A    between atoms: N_27  and  S_31
REMARK   10  A    between atoms: S_31  and  C_34
REMARK                            x       y       z     vdW  Elec       q    Type
REMARK                         _______ _______ _______ _____ _____    ______ ____
ROOT
ATOM      1  C   UNL     1       5.334  -0.706  25.601  0.00  0.00    +0.234 C 
ATOM      2  N   UNL     1       4.857  -1.912  26.110  0.00  0.00    -0.304 N 
ATOM      3  H   UNL     1       5.518  -2.686  26.171  0.00  0.00    +0.149 HD
ATOM      4  O   UNL     1       4.648   0.317  25.701  0.00  0.00    -0.274 OA
ENDROOT
BRANCH   2   5
ATOM      5  C   UNL     1       3.542  -1.991  26.810  0.00  0.00    +0.141 C 
ATOM      6  C   UNL     1       2.598  -3.101  26.324  0.00  0.00    +0.169 C 
ATOM      7  O   UNL     1       1.377  -3.004  26.457  0.00  0.00    -0.294 OA
ATOM      8  C   UNL     1       3.234  -4.414  25.928  0.00  0.00    +0.185 C 
ATOM      9  N   UNL     1       3.991  -5.076  27.005  0.00  0.00    -0.168 NA
ATOM     10  C   UNL     1       3.671  -4.778  28.406  0.00  0.00    +0.110 C 
ATOM     11  C   UNL     1       4.325  -3.465  28.833  0.00  0.00    +0.019 C 
ATOM     12  C   UNL     1       3.627  -2.189  28.346  0.00  0.00    +0.031 C 
BRANCH   9  13
ATOM     13  S   UNL     1       5.131  -6.260  26.614  0.00  0.00    +0.078 S 
ATOM     14  O   UNL     1       4.619  -6.966  25.453  0.00  0.00    -0.151 OA
ATOM     15  O   UNL     1       5.483  -6.993  27.813  0.00  0.00    -0.151 OA
BRANCH  13  16
ATOM     16  C   UNL     1       6.609  -5.377  26.063  0.00  0.00    +0.194 A 
ATOM     17  N   UNL     1       7.031  -4.386  26.893  0.00  0.00    -0.236 NA
ATOM     18  C   UNL     1       8.211  -3.805  26.564  0.00  0.00    +0.113 A 
ATOM     19  C   UNL     1       8.985  -4.180  25.473  0.00  0.00    +0.020 A 
ATOM     20  C   UNL     1       8.516  -5.196  24.646  0.00  0.00    +0.005 A 
ATOM     21  C   UNL     1       7.301  -5.808  24.940  0.00  0.00    +0.049 A 
ENDBRANCH  13  16
ENDBRANCH   9  13
ENDBRANCH   2   5
BRANCH   1  22
ATOM     22  C   UNL     1       6.694  -0.723  24.761  0.00  0.00    +0.159 C 
BRANCH  22  23
ATOM     23  N   UNL     1       7.495   0.525  24.727  0.00  0.00    -0.298 N 
ATOM     24  H   UNL     1       7.019   1.390  24.493  0.00  0.00    +0.150 HD
ATOM     25  C   UNL     1       8.870   0.571  24.626  0.00  0.00    +0.280 C 
ATOM     26  O   UNL     1       9.536  -0.445  24.825  0.00  0.00    -0.267 OA
BRANCH  25  27
ATOM     27  C   UNL     1       9.466   1.876  24.313  0.00  0.00    +0.190 A 
ATOM     28  O   UNL     1       8.823   3.065  24.608  0.00  0.00    -0.450 OA
ATOM     29  C   UNL     1       9.657   4.091  24.225  0.00  0.00    +0.136 A 
ATOM     30  C   UNL     1       9.409   5.467  24.334  0.00  0.00    +0.047 A 
ATOM     31  C   UNL     1      10.433   6.342  23.933  0.00  0.00    +0.004 A 
ATOM     32  C   UNL     1      11.645   5.855  23.443  0.00  0.00    +0.001 A 
ATOM     33  C   UNL     1      11.859   4.473  23.311  0.00  0.00    +0.011 A 
ATOM     34  C   UNL     1      10.838   3.577  23.707  0.00  0.00    +0.021 A 
ATOM     35  C   UNL     1      10.681   2.166  23.710  0.00  0.00    +0.063 A 
ENDBRANCH  25  27
ENDBRANCH  22  23
BRANCH  22  36
ATOM     36  C   UNL     1       6.384  -1.147  23.282  0.00  0.00    +0.034 C 
BRANCH  36  38
ATOM     37  C   UNL     1       5.970  -3.280  21.929  0.00  0.00    +0.007 C 
ATOM     38  C   UNL     1       6.934  -2.536  22.853  0.00  0.00    -0.015 C 
ATOM     39  C   UNL     1       8.304  -2.442  22.156  0.00  0.00    +0.007 C 
ENDBRANCH  36  38
ENDBRANCH  22  36
ENDBRANCH   1  22
TORSDOF 8
ENDMDL
MODEL 8
REMARK VINA RESULT:      -7.3      3.088      5.736
REMARK  Name = 
REMARK  10 active torsions:
REMARK  status: ('A' for Active; 'I' for Inactive)
REMARK    1  A    between atoms: C_1  and  C_2
REMARK    2  A    between atoms: C_2  and  C_3
REMARK    3  A    between atoms: C_2  and  C_4
REMARK    4  A    between atoms: C_4  and  C_5
REMARK    5  A    between atoms: C_5  and  N_7
REMARK    6  A    between atoms: C_5  and  C_19
REMARK    7  A    between atoms: C_8  and  C_10
REMARK    8  A    between atoms: N_21  and  C_22
REMARK    9  A    between atoms: N_27  and  S_31
REMARK   10  A    between atoms: S_31  and  C_34
REMARK                            x       y       z     vdW  Elec       q    Type
REMARK                         _______ _______ _______ _____ _____    ______ ____
ROOT
ATOM      1  C   UNL     1       3.791  -2.283  27.137  0.00  0.00    +0.234 C 
ATOM      2  N   UNL     1       4.489  -3.206  26.362  0.00  0.00    -0.304 N 
ATOM      3  H   UNL     1       5.383  -2.907  25.973  0.00  0.00    +0.149 HD
ATOM      4  O   UNL     1       2.818  -2.653  27.805  0.00  0.00    -0.274 OA
ENDROOT
BRANCH   2   5
ATOM      5  C   UNL     1       4.109  -4.649  26.344  0.00  0.00    +0.141 C 
ATOM      6  C   UNL     1       3.480  -5.153  25.037  0.00  0.00    +0.169 C 
ATOM      7  O   UNL     1       2.724  -6.126  25.026  0.00  0.00    -0.294 OA
ATOM      8  C   UNL     1       4.029  -4.582  23.750  0.00  0.00    +0.185 C 
ATOM      9  N   UNL     1       5.466  -4.828  23.537  0.00  0.00    -0.168 NA
ATOM     10  C   UNL     1       6.116  -5.962  24.205  0.00  0.00    +0.110 C 
ATOM     11  C   UNL     1       6.451  -5.606  25.653  0.00  0.00    +0.019 C 
ATOM     12  C   UNL     1       5.269  -5.636  26.631  0.00  0.00    +0.031 C 
BRANCH   9  13
ATOM     13  S   UNL     1       6.318  -3.875  22.432  0.00  0.00    +0.078 S 
ATOM     14  O   UNL     1       5.355  -2.968  21.833  0.00  0.00    -0.151 OA
ATOM     15  O   UNL     1       7.128  -4.733  21.591  0.00  0.00    -0.151 OA
BRANCH  13  16
ATOM     16  C   UNL     1       7.445  -2.852  23.408  0.00  0.00    +0.194 A 
ATOM     17  N   UNL     1       7.012  -2.555  24.663  0.00  0.00    -0.236 NA
ATOM     18  C   UNL     1       7.901  -1.904  25.454  0.00  0.00    +0.113 A 
ATOM     19  C   UNL     1       9.188  -1.562  25.058  0.00  0.00    +0.020 A 
ATOM     20  C   UNL     1       9.591  -1.881  23.765  0.00  0.00    +0.005 A 
ATOM     21  C   UNL     1       8.703  -2.536  22.917  0.00  0.00    +0.049 A 
ENDBRANCH  13  16
ENDBRANCH   9  13
ENDBRANCH   2   5
BRANCH   1  22
ATOM     22  C   UNL     1       4.182  -0.739  27.013  0.00  0.00    +0.159 C 
BRANCH  22  23
ATOM     23  N   UNL     1       5.152  -0.359  25.956  0.00  0.00    -0.298 N 
ATOM     24  H   UNL     1       6.006  -0.903  25.877  0.00  0.00    +0.150 HD
ATOM     25  C   UNL     1       5.180   0.864  25.321  0.00  0.00    +0.280 C 
ATOM     26  O   UNL     1       4.218   1.628  25.413  0.00  0.00    -0.267 OA
BRANCH  25  27
ATOM     27  C   UNL     1       6.375   1.168  24.523  0.00  0.00    +0.190 A 
ATOM     28  O   UNL     1       7.457   1.846  25.056  0.00  0.00    -0.450 OA
ATOM     29  C   UNL     1       8.414   1.935  24.070  0.00  0.00    +0.136 A 
ATOM     30  C   UNL     1       9.674   2.544  24.167  0.00  0.00    +0.047 A 
ATOM     31  C   UNL     1      10.519   2.463  23.046  0.00  0.00    +0.004 A 
ATOM     32  C   UNL     1      10.113   1.803  21.886  0.00  0.00    +0.001 A 
ATOM     33  C   UNL     1       8.835   1.229  21.799  0.00  0.00    +0.011 A 
ATOM     34  C   UNL     1       7.969   1.303  22.916  0.00  0.00    +0.021 A 
ATOM     35  C   UNL     1       6.646   0.873  23.196  0.00  0.00    +0.063 A 
ENDBRANCH  25  27
ENDBRANCH  22  23
BRANCH  22  36
ATOM     36  C   UNL     1       4.734  -0.231  28.392  0.00  0.00    +0.034 C 
BRANCH  36  38
ATOM     37  C   UNL     1       4.614   2.266  28.935  0.00  0.00    +0.007 C 
ATOM     38  C   UNL     1       3.919   0.910  29.061  0.00  0.00    -0.015 C 
ATOM     39  C   UNL     1       2.495   1.037  28.489  0.00  0.00    +0.007 C 
ENDBRANCH  36  38
ENDBRANCH  22  36
ENDBRANCH   1  22
TORSDOF 8
ENDMDL
MODEL 9
REMARK VINA RESULT:      -7.2      2.661      5.451
REMARK  Name = 
REMARK  10 active torsions:
REMARK  status: ('A' for Active; 'I' for Inactive)
REMARK    1  A    between atoms: C_1  and  C_2
REMARK    2  A    between atoms: C_2  and  C_3
REMARK    3  A    between atoms: C_2  and  C_4
REMARK    4  A    between atoms: C_4  and  C_5
REMARK    5  A    between atoms: C_5  and  N_7
REMARK    6  A    between atoms: C_5  and  C_19
REMARK    7  A    between atoms: C_8  and  C_10
REMARK    8  A    between atoms: N_21  and  C_22
REMARK    9  A    between atoms: N_27  and  S_31
REMARK   10  A    between atoms: S_31  and  C_34
REMARK                            x       y       z     vdW  Elec       q    Type
REMARK                         _______ _______ _______ _____ _____    ______ ____
ROOT
ATOM      1  C   UNL     1       7.976  -1.933  22.608  0.00  0.00    +0.234 C 
ATOM      2  N   UNL     1       7.123  -3.035  22.606  0.00  0.00    -0.304 N 
ATOM      3  H   UNL     1       6.125  -2.851  22.507  0.00  0.00    +0.149 HD
ATOM      4  O   UNL     1       9.197  -2.101  22.509  0.00  0.00    -0.274 OA
ENDROOT
BRANCH   2   5
ATOM      5  C   UNL     1       7.650  -4.421  22.450  0.00  0.00    +0.141 C 
ATOM      6  C   UNL     1       7.952  -5.167  23.759  0.00  0.00    +0.169 C 
ATOM      7  O   UNL     1       8.784  -6.074  23.799  0.00  0.00    -0.294 OA
ATOM      8  C   UNL     1       7.010  -4.926  24.915  0.00  0.00    +0.185 C 
ATOM      9  N   UNL     1       5.607  -5.292  24.647  0.00  0.00    -0.168 NA
ATOM     10  C   UNL     1       5.301  -6.285  23.610  0.00  0.00    +0.110 C 
ATOM     11  C   UNL     1       5.336  -5.637  22.226  0.00  0.00    +0.019 C 
ATOM     12  C   UNL     1       6.735  -5.384  21.650  0.00  0.00    +0.031 C 
BRANCH   9  13
ATOM     13  S   UNL     1       4.381  -4.656  25.620  0.00  0.00    +0.078 S 
ATOM     14  O   UNL     1       3.144  -5.289  25.200  0.00  0.00    -0.151 OA
ATOM     15  O   UNL     1       4.490  -3.211  25.634  0.00  0.00    -0.151 OA
BRANCH  13  16
ATOM     16  C   UNL     1       4.710  -5.242  27.298  0.00  0.00    +0.194 A 
ATOM     17  N   UNL     1       4.779  -4.269  28.245  0.00  0.00    -0.236 NA
ATOM     18  C   UNL     1       4.891  -4.699  29.526  0.00  0.00    +0.113 A 
ATOM     19  C   UNL     1       4.915  -6.039  29.896  0.00  0.00    +0.020 A 
ATOM     20  C   UNL     1       4.846  -7.004  28.896  0.00  0.00    +0.005 A 
ATOM     21  C   UNL     1       4.745  -6.603  27.567  0.00  0.00    +0.049 A 
ENDBRANCH  13  16
ENDBRANCH   9  13
ENDBRANCH   2   5
BRANCH   1  22
ATOM     22  C   UNL     1       7.351  -0.491  22.898  0.00  0.00    +0.159 C 
BRANCH  22  23
ATOM     23  N   UNL     1       8.292   0.631  23.133  0.00  0.00    -0.298 N 
ATOM     24  H   UNL     1       8.795   0.654  24.014  0.00  0.00    +0.150 HD
ATOM     25  C   UNL     1       8.280   1.822  22.438  0.00  0.00    +0.280 C 
ATOM     26  O   UNL     1       7.641   1.918  21.390  0.00  0.00    -0.267 OA
BRANCH  25  27
ATOM     27  C   UNL     1       9.082   2.920  22.994  0.00  0.00    +0.190 A 
ATOM     28  O   UNL     1      10.445   3.013  22.776  0.00  0.00    -0.450 OA
ATOM     29  C   UNL     1      10.885   4.162  23.395  0.00  0.00    +0.136 A 
ATOM     30  C   UNL     1      12.198   4.652  23.435  0.00  0.00    +0.047 A 
ATOM     31  C   UNL     1      12.409   5.885  24.076  0.00  0.00    +0.004 A 
ATOM     32  C   UNL     1      11.350   6.587  24.651  0.00  0.00    +0.001 A 
ATOM     33  C   UNL     1      10.047   6.062  24.629  0.00  0.00    +0.011 A 
ATOM     34  C   UNL     1       9.816   4.821  23.990  0.00  0.00    +0.021 A 
ATOM     35  C   UNL     1       8.685   3.989  23.782  0.00  0.00    +0.063 A 
ENDBRANCH  25  27
ENDBRANCH  22  23
BRANCH  22  36
ATOM     36  C   UNL     1       6.382  -0.584  24.131  0.00  0.00    +0.034 C 
BRANCH  36  38
ATOM     37  C   UNL     1       5.938   0.471  26.419  0.00  0.00    +0.007 C 
ATOM     38  C   UNL     1       6.987  -0.145  25.493  0.00  0.00    -0.015 C 
ATOM     39  C   UNL     1       7.677  -1.303  26.237  0.00  0.00    +0.007 C 
ENDBRANCH  36  38
ENDBRANCH  22  36
ENDBRANCH   1  22
TORSDOF 8
ENDMDL
