MODEL 1
REMARK VINA RESULT:      -6.2      0.000      0.000
REMARK  Name = 
REMARK  9 active torsions:
REMARK  status: ('A' for Active; 'I' for Inactive)
REMARK    1  A    between atoms: C_1  and  C_2
REMARK    2  A    between atoms: C_2  and  C_3
REMARK    3  A    between atoms: C_2  and  N_4
REMARK    4  A    between atoms: N_4  and  C_5
REMARK    5  A    between atoms: C_5  and  C_6
REMARK    6  A    between atoms: C_6  and  C_7
REMARK    7  A    between atoms: C_7  and  N_8
REMARK    8  A    between atoms: C_9  and  S_10
REMARK    9  A    between atoms: S_10  and  C_11
REMARK                            x       y       z     vdW  Elec       q    Type
REMARK                         _______ _______ _______ _____ _____    ______ ____
ROOT
ATOM      1  N   UNL     1       5.504  -3.631  27.387  0.00  0.00    -0.303 N 
ATOM      2  C   UNL     1       5.077  -4.627  28.233  0.00  0.00    +0.166 A 
ATOM      3  N   UNL     1       3.880  -4.726  28.846  0.00  0.00    -0.216 NA
ATOM      4  C   UNL     1       3.825  -5.810  29.639  0.00  0.00    +0.225 A 
ATOM      5  N   UNL     1       4.767  -6.751  29.825  0.00  0.00    -0.219 NA
ATOM      6  C   UNL     1       5.949  -6.617  29.179  0.00  0.00    +0.147 A 
ATOM      7  N   UNL     1       6.903  -7.605  29.376  0.00  0.00    -0.341 N 
ATOM      8  H   UNL     1       7.584  -7.666  28.622  0.00  0.00    +0.144 HD
ATOM      9  H   UNL     1       6.487  -8.465  29.700  0.00  0.00    +0.144 HD
ATOM     10  C   UNL     1       6.137  -5.501  28.343  0.00  0.00    +0.148 A 
ATOM     11  N   UNL     1       7.203  -5.074  27.572  0.00  0.00    -0.216 NA
ATOM     12  C   UNL     1       6.801  -3.935  27.040  0.00  0.00    +0.176 A 
ENDROOT
BRANCH   1  13
ATOM     13  C   UNL     1       4.653  -2.568  26.904  0.00  0.00    +0.127 C 
BRANCH  13  14
ATOM     14  C   UNL     1       3.970  -2.868  25.568  0.00  0.00    +0.037 C 
BRANCH  14  15
ATOM     15  C   UNL     1       2.662  -3.636  25.776  0.00  0.00    +0.083 C 
BRANCH  15  16
ATOM     16  N   UNL     1       2.788  -5.086  25.591  0.00  0.00    -0.314 NA
ATOM     17  H   UNL     1       2.948  -5.524  26.498  0.00  0.00    +0.122 HD
BRANCH  16  19
ATOM     18  C   UNL     1       4.597  -6.744  25.153  0.00  0.00    +0.023 C 
ATOM     19  C   UNL     1       3.848  -5.506  24.659  0.00  0.00    +0.047 C 
ATOM     20  C   UNL     1       3.211  -5.783  23.296  0.00  0.00    +0.023 C 
ENDBRANCH  16  19
ENDBRANCH  15  16
ENDBRANCH  14  15
ENDBRANCH  13  14
ENDBRANCH   1  13
BRANCH  12  21
ATOM     21  S   UNL     1       7.844  -2.879  26.128  0.00  0.00    -0.050 S 
BRANCH  21  22
ATOM     22  C   UNL     1       7.340  -3.284  24.453  0.00  0.00    +0.033 A 
ATOM     23  C   UNL     1       7.527  -4.593  23.983  0.00  0.00    +0.065 A 
ATOM     24  C   UNL     1       7.026  -4.920  22.742  0.00  0.00    +0.167 A 
ATOM     25  C   UNL     1       6.426  -3.988  21.929  0.00  0.00    +0.167 A 
ATOM     26  O   UNL     1       5.943  -4.546  20.784  0.00  0.00    -0.453 OA
ATOM     27  C   UNL     1       6.090  -5.944  21.103  0.00  0.00    +0.466 C 
ATOM     28  C   UNL     1       6.313  -2.668  22.297  0.00  0.00    +0.066 A 
ATOM     29  O   UNL     1       7.008  -6.165  22.192  0.00  0.00    -0.453 OA
ATOM     30  C   UNL     1       6.763  -2.316  23.578  0.00  0.00    +0.035 A 
ATOM     31 BR   UNL     1       6.526  -0.493  24.078  0.00  0.00    -0.049 Br
ENDBRANCH  21  22
ENDBRANCH  12  21
TORSDOF 7
ENDMDL
MODEL 2
REMARK VINA RESULT:      -6.1      4.501      7.101
REMARK  Name = 
REMARK  9 active torsions:
REMARK  status: ('A' for Active; 'I' for Inactive)
REMARK    1  A    between atoms: C_1  and  C_2
REMARK    2  A    between atoms: C_2  and  C_3
REMARK    3  A    between atoms: C_2  and  N_4
REMARK    4  A    between atoms: N_4  and  C_5
REMARK    5  A    between atoms: C_5  and  C_6
REMARK    6  A    between atoms: C_6  and  C_7
REMARK    7  A    between atoms: C_7  and  N_8
REMARK    8  A    between atoms: C_9  and  S_10
REMARK    9  A    between atoms: S_10  and  C_11
REMARK                            x       y       z     vdW  Elec       q    Type
REMARK                         _______ _______ _______ _____ _____    ______ ____
ROOT
ATOM      1  N   UNL     1       7.871  -0.481  24.114  0.00  0.00    -0.303 N 
ATOM      2  C   UNL     1       7.456   0.590  24.871  0.00  0.00    +0.166 A 
ATOM      3  N   UNL     1       6.959   1.763  24.428  0.00  0.00    -0.216 NA
ATOM      4  C   UNL     1       6.699   2.599  25.449  0.00  0.00    +0.225 A 
ATOM      5  N   UNL     1       6.839   2.369  26.766  0.00  0.00    -0.219 NA
ATOM      6  C   UNL     1       7.330   1.172  27.163  0.00  0.00    +0.147 A 
ATOM      7  N   UNL     1       7.455   0.951  28.527  0.00  0.00    -0.341 N 
ATOM      8  H   UNL     1       7.461  -0.036  28.779  0.00  0.00    +0.144 HD
ATOM      9  H   UNL     1       6.857   1.565  29.060  0.00  0.00    +0.144 HD
ATOM     10  C   UNL     1       7.669   0.223  26.181  0.00  0.00    +0.148 A 
ATOM     11  N   UNL     1       8.194  -1.055  26.251  0.00  0.00    -0.216 NA
ATOM     12  C   UNL     1       8.332  -1.433  24.995  0.00  0.00    +0.176 A 
ENDROOT
BRANCH   1  13
ATOM     13  C   UNL     1       7.707  -0.563  22.680  0.00  0.00    +0.127 C 
BRANCH  13  14
ATOM     14  C   UNL     1       8.951  -0.165  21.883  0.00  0.00    +0.037 C 
BRANCH  14  15
ATOM     15  C   UNL     1       8.939   1.329  21.549  0.00  0.00    +0.083 C 
BRANCH  15  16
ATOM     16  N   UNL     1      10.189   2.021  21.879  0.00  0.00    -0.314 NA
ATOM     17  H   UNL     1      10.977   1.422  21.630  0.00  0.00    +0.122 HD
BRANCH  16  19
ATOM     18  C   UNL     1      10.943   1.334  24.154  0.00  0.00    +0.023 C 
ATOM     19  C   UNL     1      10.322   2.431  23.288  0.00  0.00    +0.047 C 
ATOM     20  C   UNL     1      11.178   3.697  23.344  0.00  0.00    +0.023 C 
ENDBRANCH  16  19
ENDBRANCH  15  16
ENDBRANCH  14  15
ENDBRANCH  13  14
ENDBRANCH   1  13
BRANCH  12  21
ATOM     21  S   UNL     1       9.136  -2.902  24.516  0.00  0.00    -0.050 S 
BRANCH  21  22
ATOM     22  C   UNL     1       7.988  -4.129  25.148  0.00  0.00    +0.033 A 
ATOM     23  C   UNL     1       8.170  -4.624  26.448  0.00  0.00    +0.065 A 
ATOM     24  C   UNL     1       7.214  -5.472  26.965  0.00  0.00    +0.167 A 
ATOM     25  C   UNL     1       6.141  -5.902  26.220  0.00  0.00    +0.167 A 
ATOM     26  O   UNL     1       5.289  -6.673  26.951  0.00  0.00    -0.453 OA
ATOM     27  C   UNL     1       5.823  -6.457  28.272  0.00  0.00    +0.466 C 
ATOM     28  C   UNL     1       5.974  -5.530  24.906  0.00  0.00    +0.066 A 
ATOM     29  O   UNL     1       7.169  -5.940  28.243  0.00  0.00    -0.453 OA
ATOM     30  C   UNL     1       6.900  -4.624  24.370  0.00  0.00    +0.035 A 
ATOM     31 BR   UNL     1       6.595  -4.080  22.570  0.00  0.00    -0.049 Br
ENDBRANCH  21  22
ENDBRANCH  12  21
TORSDOF 7
ENDMDL
MODEL 3
REMARK VINA RESULT:      -6.0      4.497      6.859
REMARK  Name = 
REMARK  9 active torsions:
REMARK  status: ('A' for Active; 'I' for Inactive)
REMARK    1  A    between atoms: C_1  and  C_2
REMARK    2  A    between atoms: C_2  and  C_3
REMARK    3  A    between atoms: C_2  and  N_4
REMARK    4  A    between atoms: N_4  and  C_5
REMARK    5  A    between atoms: C_5  and  C_6
REMARK    6  A    between atoms: C_6  and  C_7
REMARK    7  A    between atoms: C_7  and  N_8
REMARK    8  A    between atoms: C_9  and  S_10
REMARK    9  A    between atoms: S_10  and  C_11
REMARK                            x       y       z     vdW  Elec       q    Type
REMARK                         _______ _______ _______ _____ _____    ______ ____
ROOT
ATOM      1  N   UNL     1       9.287   0.506  24.253  0.00  0.00    -0.303 N 
ATOM      2  C   UNL     1       8.461   1.284  25.031  0.00  0.00    +0.166 A 
ATOM      3  N   UNL     1       8.461   2.628  25.137  0.00  0.00    -0.216 NA
ATOM      4  C   UNL     1       7.545   3.048  26.027  0.00  0.00    +0.225 A 
ATOM      5  N   UNL     1       6.670   2.307  26.730  0.00  0.00    -0.219 NA
ATOM      6  C   UNL     1       6.699   0.962  26.581  0.00  0.00    +0.147 A 
ATOM      7  N   UNL     1       5.781   0.217  27.307  0.00  0.00    -0.341 N 
ATOM      8  H   UNL     1       5.589  -0.697  26.901  0.00  0.00    +0.144 HD
ATOM      9  H   UNL     1       4.990   0.776  27.592  0.00  0.00    +0.144 HD
ATOM     10  C   UNL     1       7.640   0.401  25.698  0.00  0.00    +0.148 A 
ATOM     11  N   UNL     1       7.931  -0.902  25.339  0.00  0.00    -0.216 NA
ATOM     12  C   UNL     1       8.943  -0.804  24.498  0.00  0.00    +0.176 A 
ENDROOT
BRANCH   1  13
ATOM     13  C   UNL     1      10.227   1.043  23.295  0.00  0.00    +0.127 C 
BRANCH  13  14
ATOM     14  C   UNL     1       9.818   0.842  21.835  0.00  0.00    +0.037 C 
BRANCH  14  15
ATOM     15  C   UNL     1       8.468   1.502  21.543  0.00  0.00    +0.083 C 
BRANCH  15  16
ATOM     16  N   UNL     1       8.425   2.933  21.863  0.00  0.00    -0.314 NA
ATOM     17  H   UNL     1       8.858   3.084  22.774  0.00  0.00    +0.122 HD
BRANCH  16  19
ATOM     18  C   UNL     1       6.049   2.640  22.559  0.00  0.00    +0.023 C 
ATOM     19  C   UNL     1       7.079   3.531  21.864  0.00  0.00    +0.047 C 
ATOM     20  C   UNL     1       7.156   4.891  22.561  0.00  0.00    +0.023 C 
ENDBRANCH  16  19
ENDBRANCH  15  16
ENDBRANCH  14  15
ENDBRANCH  13  14
ENDBRANCH   1  13
BRANCH  12  21
ATOM     21  S   UNL     1       9.824  -2.178  23.889  0.00  0.00    -0.050 S 
BRANCH  21  22
ATOM     22  C   UNL     1       8.489  -3.357  23.672  0.00  0.00    +0.033 A 
ATOM     23  C   UNL     1       7.751  -3.337  22.479  0.00  0.00    +0.065 A 
ATOM     24  C   UNL     1       6.811  -4.323  22.273  0.00  0.00    +0.167 A 
ATOM     25  C   UNL     1       6.526  -5.270  23.230  0.00  0.00    +0.167 A 
ATOM     26  O   UNL     1       5.621  -6.186  22.788  0.00  0.00    -0.453 OA
ATOM     27  C   UNL     1       5.579  -5.843  21.388  0.00  0.00    +0.466 C 
ATOM     28  C   UNL     1       7.146  -5.270  24.458  0.00  0.00    +0.066 A 
ATOM     29  O   UNL     1       6.102  -4.525  21.129  0.00  0.00    -0.453 OA
ATOM     30  C   UNL     1       8.146  -4.311  24.675  0.00  0.00    +0.035 A 
ATOM     31 BR   UNL     1       9.029  -4.389  26.361  0.00  0.00    -0.049 Br
ENDBRANCH  21  22
ENDBRANCH  12  21
TORSDOF 7
ENDMDL
MODEL 4
REMARK VINA RESULT:      -6.0      3.722      6.065
REMARK  Name = 
REMARK  9 active torsions:
REMARK  status: ('A' for Active; 'I' for Inactive)
REMARK    1  A    between atoms: C_1  and  C_2
REMARK    2  A    between atoms: C_2  and  C_3
REMARK    3  A    between atoms: C_2  and  N_4
REMARK    4  A    between atoms: N_4  and  C_5
REMARK    5  A    between atoms: C_5  and  C_6
REMARK    6  A    between atoms: C_6  and  C_7
REMARK    7  A    between atoms: C_7  and  N_8
REMARK    8  A    between atoms: C_9  and  S_10
REMARK    9  A    between atoms: S_10  and  C_11
REMARK                            x       y       z     vdW  Elec       q    Type
REMARK                         _______ _______ _______ _____ _____    ______ ____
ROOT
ATOM      1  N   UNL     1       8.128  -0.844  25.371  0.00  0.00    -0.303 N 
ATOM      2  C   UNL     1       9.052  -0.003  24.794  0.00  0.00    +0.166 A 
ATOM      3  N   UNL     1      10.369   0.078  25.069  0.00  0.00    -0.216 NA
ATOM      4  C   UNL     1      10.960   1.045  24.345  0.00  0.00    +0.225 A 
ATOM      5  N   UNL     1      10.406   1.843  23.416  0.00  0.00    -0.219 NA
ATOM      6  C   UNL     1       9.081   1.716  23.165  0.00  0.00    +0.147 A 
ATOM      7  N   UNL     1       8.530   2.541  22.195  0.00  0.00    -0.341 N 
ATOM      8  H   UNL     1       7.673   2.171  21.789  0.00  0.00    +0.144 HD
ATOM      9  H   UNL     1       9.233   2.891  21.561  0.00  0.00    +0.144 HD
ATOM     10  C   UNL     1       8.347   0.756  23.886  0.00  0.00    +0.148 A 
ATOM     11  N   UNL     1       7.013   0.394  23.879  0.00  0.00    -0.216 NA
ATOM     12  C   UNL     1       6.911  -0.543  24.803  0.00  0.00    +0.176 A 
ENDROOT
BRANCH   1  13
ATOM     13  C   UNL     1       8.470  -1.898  26.299  0.00  0.00    +0.127 C 
BRANCH  13  14
ATOM     14  C   UNL     1       8.883  -3.211  25.632  0.00  0.00    +0.037 C 
BRANCH  14  15
ATOM     15  C   UNL     1       8.517  -4.414  26.505  0.00  0.00    +0.083 C 
BRANCH  15  16
ATOM     16  N   UNL     1       7.309  -5.121  26.066  0.00  0.00    -0.314 NA
ATOM     17  H   UNL     1       6.822  -4.550  25.375  0.00  0.00    +0.122 HD
BRANCH  16  19
ATOM     18  C   UNL     1       5.710  -4.253  27.769  0.00  0.00    +0.023 C 
ATOM     19  C   UNL     1       6.371  -5.481  27.142  0.00  0.00    +0.047 C 
ATOM     20  C   UNL     1       5.306  -6.415  26.563  0.00  0.00    +0.023 C 
ENDBRANCH  16  19
ENDBRANCH  15  16
ENDBRANCH  14  15
ENDBRANCH  13  14
ENDBRANCH   1  13
BRANCH  12  21
ATOM     21  S   UNL     1       5.391  -1.209  25.333  0.00  0.00    -0.050 S 
BRANCH  21  22
ATOM     22  C   UNL     1       5.274  -2.652  24.271  0.00  0.00    +0.033 A 
ATOM     23  C   UNL     1       6.273  -2.873  23.310  0.00  0.00    +0.065 A 
ATOM     24  C   UNL     1       6.236  -4.044  22.586  0.00  0.00    +0.167 A 
ATOM     25  C   UNL     1       5.215  -4.955  22.723  0.00  0.00    +0.167 A 
ATOM     26  O   UNL     1       5.419  -6.068  21.966  0.00  0.00    -0.453 OA
ATOM     27  C   UNL     1       6.783  -5.847  21.555  0.00  0.00    +0.466 C 
ATOM     28  C   UNL     1       4.157  -4.736  23.573  0.00  0.00    +0.066 A 
ATOM     29  O   UNL     1       7.188  -4.472  21.712  0.00  0.00    -0.453 OA
ATOM     30  C   UNL     1       4.194  -3.579  24.365  0.00  0.00    +0.035 A 
ATOM     31 BR   UNL     1       2.745  -3.347  25.580  0.00  0.00    -0.049 Br
ENDBRANCH  21  22
ENDBRANCH  12  21
TORSDOF 7
ENDMDL
MODEL 5
REMARK VINA RESULT:      -5.8      5.014      7.798
REMARK  Name = 
REMARK  9 active torsions:
REMARK  status: ('A' for Active; 'I' for Inactive)
REMARK    1  A    between atoms: C_1  and  C_2
REMARK    2  A    between atoms: C_2  and  C_3
REMARK    3  A    between atoms: C_2  and  N_4
REMARK    4  A    between atoms: N_4  and  C_5
REMARK    5  A    between atoms: C_5  and  C_6
REMARK    6  A    between atoms: C_6  and  C_7
REMARK    7  A    between atoms: C_7  and  N_8
REMARK    8  A    between atoms: C_9  and  S_10
REMARK    9  A    between atoms: S_10  and  C_11
REMARK                            x       y       z     vdW  Elec       q    Type
REMARK                         _______ _______ _______ _____ _____    ______ ____
ROOT
ATOM      1  N   UNL     1       7.882   0.665  22.951  0.00  0.00    -0.303 N 
ATOM      2  C   UNL     1       6.876   1.600  23.019  0.00  0.00    +0.166 A 
ATOM      3  N   UNL     1       6.657   2.631  22.177  0.00  0.00    -0.216 NA
ATOM      4  C   UNL     1       5.607   3.371  22.574  0.00  0.00    +0.225 A 
ATOM      5  N   UNL     1       4.797   3.165  23.627  0.00  0.00    -0.219 NA
ATOM      6  C   UNL     1       5.049   2.110  24.437  0.00  0.00    +0.147 A 
ATOM      7  N   UNL     1       4.194   1.908  25.511  0.00  0.00    -0.341 N 
ATOM      8  H   UNL     1       4.185   0.947  25.847  0.00  0.00    +0.144 HD
ATOM      9  H   UNL     1       3.302   2.359  25.367  0.00  0.00    +0.144 HD
ATOM     10  C   UNL     1       6.144   1.278  24.140  0.00  0.00    +0.148 A 
ATOM     11  N   UNL     1       6.667   0.157  24.758  0.00  0.00    -0.216 NA
ATOM     12  C   UNL     1       7.725  -0.164  24.039  0.00  0.00    +0.176 A 
ENDROOT
BRANCH   1  13
ATOM     13  C   UNL     1       8.813   0.564  21.850  0.00  0.00    +0.127 C 
BRANCH  13  14
ATOM     14  C   UNL     1       9.877   1.663  21.826  0.00  0.00    +0.037 C 
BRANCH  14  15
ATOM     15  C   UNL     1      10.279   2.075  23.244  0.00  0.00    +0.083 C 
BRANCH  15  16
ATOM     16  N   UNL     1      10.645   3.489  23.371  0.00  0.00    -0.314 NA
ATOM     17  H   UNL     1      11.339   3.588  24.114  0.00  0.00    +0.122 HD
BRANCH  16  19
ATOM     18  C   UNL     1       8.734   4.005  24.886  0.00  0.00    +0.023 C 
ATOM     19  C   UNL     1       9.522   4.403  23.637  0.00  0.00    +0.047 C 
ATOM     20  C   UNL     1      10.077   5.820  23.793  0.00  0.00    +0.023 C 
ENDBRANCH  16  19
ENDBRANCH  15  16
ENDBRANCH  14  15
ENDBRANCH  13  14
ENDBRANCH   1  13
BRANCH  12  21
ATOM     21  S   UNL     1       8.863  -1.400  24.501  0.00  0.00    -0.050 S 
BRANCH  21  22
ATOM     22  C   UNL     1       7.988  -2.872  23.963  0.00  0.00    +0.033 A 
ATOM     23  C   UNL     1       7.296  -2.845  22.743  0.00  0.00    +0.065 A 
ATOM     24  C   UNL     1       6.732  -4.015  22.285  0.00  0.00    +0.167 A 
ATOM     25  C   UNL     1       6.762  -5.177  23.021  0.00  0.00    +0.167 A 
ATOM     26  O   UNL     1       6.210  -6.223  22.346  0.00  0.00    -0.453 OA
ATOM     27  C   UNL     1       6.073  -5.635  21.037  0.00  0.00    +0.466 C 
ATOM     28  C   UNL     1       7.334  -5.230  24.270  0.00  0.00    +0.066 A 
ATOM     29  O   UNL     1       6.140  -4.196  21.072  0.00  0.00    -0.453 OA
ATOM     30  C   UNL     1       7.965  -4.068  24.740  0.00  0.00    +0.035 A 
ATOM     31 BR   UNL     1       8.807  -4.202  26.443  0.00  0.00    -0.049 Br
ENDBRANCH  21  22
ENDBRANCH  12  21
TORSDOF 7
ENDMDL
MODEL 6
REMARK VINA RESULT:      -5.8      3.273      5.923
REMARK  Name = 
REMARK  9 active torsions:
REMARK  status: ('A' for Active; 'I' for Inactive)
REMARK    1  A    between atoms: C_1  and  C_2
REMARK    2  A    between atoms: C_2  and  C_3
REMARK    3  A    between atoms: C_2  and  N_4
REMARK    4  A    between atoms: N_4  and  C_5
REMARK    5  A    between atoms: C_5  and  C_6
REMARK    6  A    between atoms: C_6  and  C_7
REMARK    7  A    between atoms: C_7  and  N_8
REMARK    8  A    between atoms: C_9  and  S_10
REMARK    9  A    between atoms: S_10  and  C_11
REMARK                            x       y       z     vdW  Elec       q    Type
REMARK                         _______ _______ _______ _____ _____    ______ ____
ROOT
ATOM      1  N   UNL     1       7.838  -2.428  25.490  0.00  0.00    -0.303 N 
ATOM      2  C   UNL     1       8.286  -1.616  24.475  0.00  0.00    +0.166 A 
ATOM      3  N   UNL     1       9.525  -1.577  23.943  0.00  0.00    -0.216 NA
ATOM      4  C   UNL     1       9.619  -0.627  22.995  0.00  0.00    +0.225 A 
ATOM      5  N   UNL     1       8.654   0.190  22.540  0.00  0.00    -0.219 NA
ATOM      6  C   UNL     1       7.423   0.106  23.096  0.00  0.00    +0.147 A 
ATOM      7  N   UNL     1       6.438   0.950  22.604  0.00  0.00    -0.341 N 
ATOM      8  H   UNL     1       5.493   0.609  22.768  0.00  0.00    +0.144 HD
ATOM      9  H   UNL     1       6.660   1.280  21.676  0.00  0.00    +0.144 HD
ATOM     10  C   UNL     1       7.210  -0.832  24.123  0.00  0.00    +0.148 A 
ATOM     11  N   UNL     1       6.103  -1.152  24.888  0.00  0.00    -0.216 NA
ATOM     12  C   UNL     1       6.523  -2.088  25.718  0.00  0.00    +0.176 A 
ENDROOT
BRANCH   1  13
ATOM     13  C   UNL     1       8.621  -3.495  26.071  0.00  0.00    +0.127 C 
BRANCH  13  14
ATOM     14  C   UNL     1       8.256  -4.890  25.561  0.00  0.00    +0.037 C 
BRANCH  14  15
ATOM     15  C   UNL     1       8.270  -4.942  24.032  0.00  0.00    +0.083 C 
BRANCH  15  16
ATOM     16  N   UNL     1       6.948  -5.154  23.432  0.00  0.00    -0.314 NA
ATOM     17  H   UNL     1       6.709  -6.144  23.495  0.00  0.00    +0.122 HD
BRANCH  16  19
ATOM     18  C   UNL     1       6.187  -5.788  21.144  0.00  0.00    +0.023 C 
ATOM     19  C   UNL     1       6.821  -4.716  22.032  0.00  0.00    +0.047 C 
ATOM     20  C   UNL     1       5.980  -3.439  21.999  0.00  0.00    +0.023 C 
ENDBRANCH  16  19
ENDBRANCH  15  16
ENDBRANCH  14  15
ENDBRANCH  13  14
ENDBRANCH   1  13
BRANCH  12  21
ATOM     21  S   UNL     1       5.565  -2.707  27.034  0.00  0.00    -0.050 S 
BRANCH  21  22
ATOM     22  C   UNL     1       4.769  -4.104  26.235  0.00  0.00    +0.033 A 
ATOM     23  C   UNL     1       4.004  -3.882  25.080  0.00  0.00    +0.065 A 
ATOM     24  C   UNL     1       3.500  -4.974  24.409  0.00  0.00    +0.167 A 
ATOM     25  C   UNL     1       3.660  -6.256  24.879  0.00  0.00    +0.167 A 
ATOM     26  O   UNL     1       3.145  -7.182  24.023  0.00  0.00    -0.453 OA
ATOM     27  C   UNL     1       2.886  -6.347  22.876  0.00  0.00    +0.466 C 
ATOM     28  C   UNL     1       4.310  -6.520  26.062  0.00  0.00    +0.066 A 
ATOM     29  O   UNL     1       2.849  -4.946  23.213  0.00  0.00    -0.453 OA
ATOM     30  C   UNL     1       4.882  -5.433  26.740  0.00  0.00    +0.035 A 
ATOM     31 BR   UNL     1       5.834  -5.848  28.336  0.00  0.00    -0.049 Br
ENDBRANCH  21  22
ENDBRANCH  12  21
TORSDOF 7
ENDMDL
MODEL 7
REMARK VINA RESULT:      -5.8      4.544      7.452
REMARK  Name = 
REMARK  9 active torsions:
REMARK  status: ('A' for Active; 'I' for Inactive)
REMARK    1  A    between atoms: C_1  and  C_2
REMARK    2  A    between atoms: C_2  and  C_3
REMARK    3  A    between atoms: C_2  and  N_4
REMARK    4  A    between atoms: N_4  and  C_5
REMARK    5  A    between atoms: C_5  and  C_6
REMARK    6  A    between atoms: C_6  and  C_7
REMARK    7  A    between atoms: C_7  and  N_8
REMARK    8  A    between atoms: C_9  and  S_10
REMARK    9  A    between atoms: S_10  and  C_11
REMARK                            x       y       z     vdW  Elec       q    Type
REMARK                         _______ _______ _______ _____ _____    ______ ____
ROOT
ATOM      1  N   UNL     1       7.913  -0.316  23.192  0.00  0.00    -0.303 N 
ATOM      2  C   UNL     1       6.919   0.593  23.472  0.00  0.00    +0.166 A 
ATOM      3  N   UNL     1       6.609   1.707  22.778  0.00  0.00    -0.216 NA
ATOM      4  C   UNL     1       5.608   2.385  23.366  0.00  0.00    +0.225 A 
ATOM      5  N   UNL     1       4.918   2.055  24.472  0.00  0.00    -0.219 NA
ATOM      6  C   UNL     1       5.258   0.920  25.128  0.00  0.00    +0.147 A 
ATOM      7  N   UNL     1       4.526   0.591  26.260  0.00  0.00    -0.341 N 
ATOM      8  H   UNL     1       4.556  -0.401  26.487  0.00  0.00    +0.144 HD
ATOM      9  H   UNL     1       3.624   1.044  26.265  0.00  0.00    +0.144 HD
ATOM     10  C   UNL     1       6.315   0.140  24.624  0.00  0.00    +0.148 A 
ATOM     11  N   UNL     1       6.903  -1.035  25.053  0.00  0.00    -0.216 NA
ATOM     12  C   UNL     1       7.877  -1.262  24.192  0.00  0.00    +0.176 A 
ENDROOT
BRANCH   1  13
ATOM     13  C   UNL     1       8.717  -0.284  21.992  0.00  0.00    +0.127 C 
BRANCH  13  14
ATOM     14  C   UNL     1       9.834   0.762  22.013  0.00  0.00    +0.037 C 
BRANCH  14  15
ATOM     15  C   UNL     1      10.601   0.724  23.337  0.00  0.00    +0.083 C 
BRANCH  15  16
ATOM     16  N   UNL     1      10.296   1.844  24.233  0.00  0.00    -0.314 NA
ATOM     17  H   UNL     1       9.502   1.592  24.823  0.00  0.00    +0.122 HD
BRANCH  16  19
ATOM     18  C   UNL     1       9.055   4.002  24.368  0.00  0.00    +0.023 C 
ATOM     19  C   UNL     1      10.009   3.121  23.559  0.00  0.00    +0.047 C 
ATOM     20  C   UNL     1      11.332   3.853  23.325  0.00  0.00    +0.023 C 
ENDBRANCH  16  19
ENDBRANCH  15  16
ENDBRANCH  14  15
ENDBRANCH  13  14
ENDBRANCH   1  13
BRANCH  12  21
ATOM     21  S   UNL     1       9.059  -2.526  24.388  0.00  0.00    -0.050 S 
BRANCH  21  22
ATOM     22  C   UNL     1       8.028  -3.846  25.031  0.00  0.00    +0.033 A 
ATOM     23  C   UNL     1       8.067  -4.133  26.404  0.00  0.00    +0.065 A 
ATOM     24  C   UNL     1       7.184  -5.065  26.903  0.00  0.00    +0.167 A 
ATOM     25  C   UNL     1       6.329  -5.769  26.089  0.00  0.00    +0.167 A 
ATOM     26  O   UNL     1       5.498  -6.581  26.801  0.00  0.00    -0.453 OA
ATOM     27  C   UNL     1       5.767  -6.108  28.136  0.00  0.00    +0.466 C 
ATOM     28  C   UNL     1       6.324  -5.602  24.724  0.00  0.00    +0.066 A 
ATOM     29  O   UNL     1       7.002  -5.369  28.218  0.00  0.00    -0.453 OA
ATOM     30  C   UNL     1       7.174  -4.621  24.192  0.00  0.00    +0.035 A 
ATOM     31 BR   UNL     1       7.088  -4.372  22.305  0.00  0.00    -0.049 Br
ENDBRANCH  21  22
ENDBRANCH  12  21
TORSDOF 7
ENDMDL
MODEL 8
REMARK VINA RESULT:      -5.8      3.502      4.724
REMARK  Name = 
REMARK  9 active torsions:
REMARK  status: ('A' for Active; 'I' for Inactive)
REMARK    1  A    between atoms: C_1  and  C_2
REMARK    2  A    between atoms: C_2  and  C_3
REMARK    3  A    between atoms: C_2  and  N_4
REMARK    4  A    between atoms: N_4  and  C_5
REMARK    5  A    between atoms: C_5  and  C_6
REMARK    6  A    between atoms: C_6  and  C_7
REMARK    7  A    between atoms: C_7  and  N_8
REMARK    8  A    between atoms: C_9  and  S_10
REMARK    9  A    between atoms: S_10  and  C_11
REMARK                            x       y       z     vdW  Elec       q    Type
REMARK                         _______ _______ _______ _____ _____    ______ ____
ROOT
ATOM      1  N   UNL     1       5.880  -4.121  24.139  0.00  0.00    -0.303 N 
ATOM      2  C   UNL     1       6.242  -4.763  25.300  0.00  0.00    +0.166 A 
ATOM      3  N   UNL     1       5.452  -5.488  26.117  0.00  0.00    -0.216 NA
ATOM      4  C   UNL     1       6.132  -5.933  27.188  0.00  0.00    +0.225 A 
ATOM      5  N   UNL     1       7.436  -5.767  27.470  0.00  0.00    -0.219 NA
ATOM      6  C   UNL     1       8.193  -5.041  26.614  0.00  0.00    +0.147 A 
ATOM      7  N   UNL     1       9.539  -4.891  26.918  0.00  0.00    -0.341 N 
ATOM      8  H   UNL     1      10.116  -4.682  26.106  0.00  0.00    +0.144 HD
ATOM      9  H   UNL     1       9.861  -5.612  27.546  0.00  0.00    +0.144 HD
ATOM     10  C   UNL     1       7.583  -4.496  25.470  0.00  0.00    +0.148 A 
ATOM     11  N   UNL     1       8.060  -3.715  24.432  0.00  0.00    -0.216 NA
ATOM     12  C   UNL     1       7.007  -3.483  23.672  0.00  0.00    +0.176 A 
ENDROOT
BRANCH   1  13
ATOM     13  C   UNL     1       4.577  -4.244  23.526  0.00  0.00    +0.127 C 
BRANCH  13  14
ATOM     14  C   UNL     1       4.364  -5.551  22.761  0.00  0.00    +0.037 C 
BRANCH  14  15
ATOM     15  C   UNL     1       3.210  -6.360  23.358  0.00  0.00    +0.083 C 
BRANCH  15  16
ATOM     16  N   UNL     1       3.641  -7.524  24.139  0.00  0.00    -0.314 NA
ATOM     17  H   UNL     1       3.696  -8.336  23.523  0.00  0.00    +0.122 HD
BRANCH  16  19
ATOM     18  C   UNL     1       2.023  -6.633  25.812  0.00  0.00    +0.023 C 
ATOM     19  C   UNL     1       2.788  -7.851  25.294  0.00  0.00    +0.047 C 
ATOM     20  C   UNL     1       1.810  -8.951  24.875  0.00  0.00    +0.023 C 
ENDBRANCH  16  19
ENDBRANCH  15  16
ENDBRANCH  14  15
ENDBRANCH  13  14
ENDBRANCH   1  13
BRANCH  12  21
ATOM     21  S   UNL     1       7.019  -2.381  22.323  0.00  0.00    -0.050 S 
BRANCH  21  22
ATOM     22  C   UNL     1       7.490  -0.856  23.145  0.00  0.00    +0.033 A 
ATOM     23  C   UNL     1       6.492  -0.064  23.731  0.00  0.00    +0.065 A 
ATOM     24  C   UNL     1       6.877   1.039  24.462  0.00  0.00    +0.167 A 
ATOM     25  C   UNL     1       8.194   1.422  24.566  0.00  0.00    +0.167 A 
ATOM     26  O   UNL     1       8.351   2.492  25.392  0.00  0.00    -0.453 OA
ATOM     27  C   UNL     1       7.033   2.558  25.973  0.00  0.00    +0.466 C 
ATOM     28  C   UNL     1       9.201   0.740  23.923  0.00  0.00    +0.066 A 
ATOM     29  O   UNL     1       6.055   1.838  25.197  0.00  0.00    -0.453 OA
ATOM     30  C   UNL     1       8.846  -0.418  23.216  0.00  0.00    +0.035 A 
ATOM     31 BR   UNL     1      10.276  -1.373  22.397  0.00  0.00    -0.049 Br
ENDBRANCH  21  22
ENDBRANCH  12  21
TORSDOF 7
ENDMDL
MODEL 9
REMARK VINA RESULT:      -5.7      3.952      6.844
REMARK  Name = 
REMARK  9 active torsions:
REMARK  status: ('A' for Active; 'I' for Inactive)
REMARK    1  A    between atoms: C_1  and  C_2
REMARK    2  A    between atoms: C_2  and  C_3
REMARK    3  A    between atoms: C_2  and  N_4
REMARK    4  A    between atoms: N_4  and  C_5
REMARK    5  A    between atoms: C_5  and  C_6
REMARK    6  A    between atoms: C_6  and  C_7
REMARK    7  A    between atoms: C_7  and  N_8
REMARK    8  A    between atoms: C_9  and  S_10
REMARK    9  A    between atoms: S_10  and  C_11
REMARK                            x       y       z     vdW  Elec       q    Type
REMARK                         _______ _______ _______ _____ _____    ______ ____
ROOT
ATOM      1  N   UNL     1       6.744  -1.699  23.605  0.00  0.00    -0.303 N 
ATOM      2  C   UNL     1       6.595  -0.653  24.486  0.00  0.00    +0.166 A 
ATOM      3  N   UNL     1       7.381   0.436  24.606  0.00  0.00    -0.216 NA
ATOM      4  C   UNL     1       6.962   1.233  25.605  0.00  0.00    +0.225 A 
ATOM      5  N   UNL     1       5.891   1.073  26.400  0.00  0.00    -0.219 NA
ATOM      6  C   UNL     1       5.123  -0.030  26.234  0.00  0.00    +0.147 A 
ATOM      7  N   UNL     1       4.015  -0.170  27.057  0.00  0.00    -0.341 N 
ATOM      8  H   UNL     1       3.295  -0.774  26.667  0.00  0.00    +0.144 HD
ATOM      9  H   UNL     1       3.723   0.716  27.442  0.00  0.00    +0.144 HD
ATOM     10  C   UNL     1       5.482  -0.956  25.237  0.00  0.00    +0.148 A 
ATOM     11  N   UNL     1       4.932  -2.159  24.831  0.00  0.00    -0.216 NA
ATOM     12  C   UNL     1       5.732  -2.591  23.875  0.00  0.00    +0.176 A 
ENDROOT
BRANCH   1  13
ATOM     13  C   UNL     1       7.728  -1.724  22.547  0.00  0.00    +0.127 C 
BRANCH  13  14
ATOM     14  C   UNL     1       9.108  -2.220  22.984  0.00  0.00    +0.037 C 
BRANCH  14  15
ATOM     15  C   UNL     1      10.195  -1.194  22.654  0.00  0.00    +0.083 C 
BRANCH  15  16
ATOM     16  N   UNL     1       9.982   0.117  23.275  0.00  0.00    -0.314 NA
ATOM     17  H   UNL     1       9.049   0.143  23.688  0.00  0.00    +0.122 HD
BRANCH  16  19
ATOM     18  C   UNL     1       8.898   1.505  21.510  0.00  0.00    +0.023 C 
ATOM     19  C   UNL     1      10.140   1.269  22.370  0.00  0.00    +0.047 C 
ATOM     20  C   UNL     1      10.441   2.509  23.215  0.00  0.00    +0.023 C 
ENDBRANCH  16  19
ENDBRANCH  15  16
ENDBRANCH  14  15
ENDBRANCH  13  14
ENDBRANCH   1  13
BRANCH  12  21
ATOM     21  S   UNL     1       5.597  -4.169  23.149  0.00  0.00    -0.050 S 
BRANCH  21  22
ATOM     22  C   UNL     1       5.500  -5.200  24.615  0.00  0.00    +0.033 A 
ATOM     23  C   UNL     1       6.524  -5.123  25.571  0.00  0.00    +0.065 A 
ATOM     24  C   UNL     1       6.377  -5.827  26.746  0.00  0.00    +0.167 A 
ATOM     25  C   UNL     1       5.303  -6.656  26.970  0.00  0.00    +0.167 A 
ATOM     26  O   UNL     1       5.326  -7.193  28.221  0.00  0.00    -0.453 OA
ATOM     27  C   UNL     1       6.381  -6.410  28.813  0.00  0.00    +0.466 C 
ATOM     28  C   UNL     1       4.326  -6.850  26.023  0.00  0.00    +0.066 A 
ATOM     29  O   UNL     1       7.207  -5.765  27.824  0.00  0.00    -0.453 OA
ATOM     30  C   UNL     1       4.419  -6.104  24.838  0.00  0.00    +0.035 A 
ATOM     31 BR   UNL     1       3.010  -6.348  23.581  0.00  0.00    -0.049 Br
ENDBRANCH  21  22
ENDBRANCH  12  21
TORSDOF 7
ENDMDL
