MODEL 1
REMARK VINA RESULT:      -4.9      0.000      0.000
REMARK  Name = 
REMARK  11 active torsions:
REMARK  status: ('A' for Active; 'I' for Inactive)
REMARK    1  A    between atoms: N_1  and  CA_2
REMARK    2  A    between atoms: CA_2  and  CB_4
REMARK    3  A    between atoms: CA_2  and  C_16
REMARK    4  A    between atoms: CB_4  and  SG_5
REMARK    5  A    between atoms: SG_5  and  C_6
REMARK    6  A    between atoms: C_6  and  O_8
REMARK    7  A    between atoms: C_6  and  C_9
REMARK    8  A    between atoms: C_9  and  CA_10
REMARK    9  A    between atoms: CA_10  and  N_12
REMARK   10  A    between atoms: CA_10  and  C_13
REMARK   11  A    between atoms: C_13  and  O_14
REMARK                            x       y       z     vdW  Elec       q    Type
REMARK                         _______ _______ _______ _____ _____    ______ ____
ROOT
ATOM      1  C   UNL     1       9.337  -2.078  24.432  0.00  0.00    +0.174 C 
ENDROOT
BRANCH   1   2
ATOM      2  O   UNL     1      10.283  -2.847  23.706  0.00  0.00    -0.381 OA
ATOM      3  H   UNL     1      11.135  -2.386  23.756  0.00  0.00    +0.211 HD
ENDBRANCH   1   2
BRANCH   1   4
ATOM      4  SG  UNL     1       7.802  -3.014  24.686  0.00  0.00    -0.128 S 
BRANCH   4   5
ATOM      5  CB  UNL     1       8.314  -4.680  24.138  0.00  0.00    +0.097 C 
BRANCH   5   6
ATOM      6  CA  UNL     1       8.859  -5.478  25.337  0.00  0.00    +0.124 C 
BRANCH   6   7
ATOM      7  N   UNL     1      10.335  -5.453  25.423  0.00  0.00    -0.321 NA
ATOM      8  H1  UNL     1      10.583  -4.727  26.106  0.00  0.00    +0.119 HD
ATOM      9  H2  UNL     1      10.662  -6.318  25.859  0.00  0.00    +0.119 HD
ENDBRANCH   6   7
BRANCH   6  10
ATOM     10  C   UNL     1       8.299  -4.938  26.642  0.00  0.00    +0.242 C 
ATOM     11  O   UNL     1       7.707  -5.622  27.472  0.00  0.00    -0.299 OA
ENDBRANCH   6  10
ENDBRANCH   5   6
ENDBRANCH   4   5
ENDBRANCH   1   4
BRANCH   1  12
ATOM     12  C   UNL     1       9.049  -0.809  23.622  0.00  0.00    +0.072 C 
BRANCH  12  13
ATOM     13  CA  UNL     1      10.051  -0.499  22.501  0.00  0.00    +0.164 C 
BRANCH  13  14
ATOM     14  N   UNL     1       9.860  -1.392  21.320  0.00  0.00    -0.318 NA
ATOM     15  H1  UNL     1       9.714  -0.786  20.504  0.00  0.00    +0.119 HD
ATOM     16  H2  UNL     1      10.748  -1.855  21.114  0.00  0.00    +0.119 HD
ENDBRANCH  13  14
BRANCH  13  17
ATOM     17  C   UNL     1       9.839   0.953  22.045  0.00  0.00    +0.322 C 
ATOM     18  OXT UNL     1      10.347   1.936  22.558  0.00  0.00    -0.249 OA
BRANCH  17  19
ATOM     19  O   UNL     1       8.994   1.016  20.981  0.00  0.00    -0.480 OA
ATOM     20  H   UNL     1       9.365   1.702  20.374  0.00  0.00    +0.295 HD
ENDBRANCH  17  19
ENDBRANCH  13  17
ENDBRANCH  12  13
ENDBRANCH   1  12
TORSDOF 11
ENDMDL
MODEL 2
REMARK VINA RESULT:      -4.8      2.008      6.096
REMARK  Name = 
REMARK  11 active torsions:
REMARK  status: ('A' for Active; 'I' for Inactive)
REMARK    1  A    between atoms: N_1  and  CA_2
REMARK    2  A    between atoms: CA_2  and  CB_4
REMARK    3  A    between atoms: CA_2  and  C_16
REMARK    4  A    between atoms: CB_4  and  SG_5
REMARK    5  A    between atoms: SG_5  and  C_6
REMARK    6  A    between atoms: C_6  and  O_8
REMARK    7  A    between atoms: C_6  and  C_9
REMARK    8  A    between atoms: C_9  and  CA_10
REMARK    9  A    between atoms: CA_10  and  N_12
REMARK   10  A    between atoms: CA_10  and  C_13
REMARK   11  A    between atoms: C_13  and  O_14
REMARK                            x       y       z     vdW  Elec       q    Type
REMARK                         _______ _______ _______ _____ _____    ______ ____
ROOT
ATOM      1  C   UNL     1       9.437  -2.648  23.787  0.00  0.00    +0.174 C 
ENDROOT
BRANCH   1   2
ATOM      2  O   UNL     1       9.327  -1.756  24.885  0.00  0.00    -0.381 OA
ATOM      3  H   UNL     1      10.226  -1.509  25.151  0.00  0.00    +0.211 HD
ENDBRANCH   1   2
BRANCH   1   4
ATOM      4  SG  UNL     1       9.183  -1.774  22.216  0.00  0.00    -0.128 S 
BRANCH   4   5
ATOM      5  CB  UNL     1       8.848  -0.079  22.810  0.00  0.00    +0.097 C 
BRANCH   5   6
ATOM      6  CA  UNL     1      10.074   0.817  22.547  0.00  0.00    +0.124 C 
BRANCH   6   7
ATOM      7  N   UNL     1       9.777   1.950  21.645  0.00  0.00    -0.321 NA
ATOM      8  H1  UNL     1       8.755   2.013  21.569  0.00  0.00    +0.119 HD
ATOM      9  H2  UNL     1      10.041   2.824  22.104  0.00  0.00    +0.119 HD
ENDBRANCH   6   7
BRANCH   6  10
ATOM     10  C   UNL     1      10.620   1.379  23.848  0.00  0.00    +0.242 C 
ATOM     11  O   UNL     1      10.932   0.692  24.818  0.00  0.00    -0.299 OA
ENDBRANCH   6  10
ENDBRANCH   5   6
ENDBRANCH   4   5
ENDBRANCH   1   4
BRANCH   1  12
ATOM     12  C   UNL     1       8.369  -3.734  23.961  0.00  0.00    +0.072 C 
BRANCH  12  13
ATOM     13  CA  UNL     1       8.779  -4.928  24.835  0.00  0.00    +0.164 C 
BRANCH  13  14
ATOM     14  N   UNL     1      10.261  -5.035  24.973  0.00  0.00    -0.318 NA
ATOM     15  H1  UNL     1      10.657  -4.132  24.683  0.00  0.00    +0.119 HD
ATOM     16  H2  UNL     1      10.493  -5.085  25.968  0.00  0.00    +0.119 HD
ENDBRANCH  13  14
BRANCH  13  17
ATOM     17  C   UNL     1       8.179  -4.735  26.237  0.00  0.00    +0.322 C 
ATOM     18  OXT UNL     1       7.754  -3.682  26.683  0.00  0.00    -0.249 OA
BRANCH  17  19
ATOM     19  O   UNL     1       8.181  -5.900  26.939  0.00  0.00    -0.480 OA
ATOM     20  H   UNL     1       7.236  -6.182  27.007  0.00  0.00    +0.295 HD
ENDBRANCH  17  19
ENDBRANCH  13  17
ENDBRANCH  12  13
ENDBRANCH   1  12
TORSDOF 11
ENDMDL
MODEL 3
REMARK VINA RESULT:      -4.7      1.838      1.997
REMARK  Name = 
REMARK  11 active torsions:
REMARK  status: ('A' for Active; 'I' for Inactive)
REMARK    1  A    between atoms: N_1  and  CA_2
REMARK    2  A    between atoms: CA_2  and  CB_4
REMARK    3  A    between atoms: CA_2  and  C_16
REMARK    4  A    between atoms: CB_4  and  SG_5
REMARK    5  A    between atoms: SG_5  and  C_6
REMARK    6  A    between atoms: C_6  and  O_8
REMARK    7  A    between atoms: C_6  and  C_9
REMARK    8  A    between atoms: C_9  and  CA_10
REMARK    9  A    between atoms: CA_10  and  N_12
REMARK   10  A    between atoms: CA_10  and  C_13
REMARK   11  A    between atoms: C_13  and  O_14
REMARK                            x       y       z     vdW  Elec       q    Type
REMARK                         _______ _______ _______ _____ _____    ______ ____
ROOT
ATOM      1  C   UNL     1      10.074  -1.558  22.604  0.00  0.00    +0.174 C 
ENDROOT
BRANCH   1   2
ATOM      2  O   UNL     1       9.788  -1.023  21.322  0.00  0.00    -0.381 OA
ATOM      3  H   UNL     1       9.186  -0.273  21.446  0.00  0.00    +0.211 HD
ENDBRANCH   1   2
BRANCH   1   4
ATOM      4  SG  UNL     1       8.602  -2.346  23.319  0.00  0.00    -0.128 S 
BRANCH   4   5
ATOM      5  CB  UNL     1       9.321  -3.163  24.787  0.00  0.00    +0.097 C 
BRANCH   5   6
ATOM      6  CA  UNL     1       9.008  -4.670  24.749  0.00  0.00    +0.124 C 
BRANCH   6   7
ATOM      7  N   UNL     1      10.106  -5.501  25.287  0.00  0.00    -0.321 NA
ATOM      8  H1  UNL     1       9.685  -6.375  25.624  0.00  0.00    +0.119 HD
ATOM      9  H2  UNL     1      10.708  -5.804  24.517  0.00  0.00    +0.119 HD
ENDBRANCH   6   7
BRANCH   6  10
ATOM     10  C   UNL     1       7.749  -4.978  25.542  0.00  0.00    +0.242 C 
ATOM     11  O   UNL     1       7.707  -5.753  26.494  0.00  0.00    -0.299 OA
ENDBRANCH   6  10
ENDBRANCH   5   6
ENDBRANCH   4   5
ENDBRANCH   1   4
BRANCH   1  12
ATOM     12  C   UNL     1      10.536  -0.403  23.499  0.00  0.00    +0.072 C 
BRANCH  12  13
ATOM     13  CA  UNL     1       9.563   0.781  23.604  0.00  0.00    +0.164 C 
BRANCH  13  14
ATOM     14  N   UNL     1       9.275   1.142  25.023  0.00  0.00    -0.318 NA
ATOM     15  H1  UNL     1       9.990   1.821  25.313  0.00  0.00    +0.119 HD
ATOM     16  H2  UNL     1       8.409   1.685  25.052  0.00  0.00    +0.119 HD
ENDBRANCH  13  14
BRANCH  13  17
ATOM     17  C   UNL     1      10.202   1.999  22.918  0.00  0.00    +0.322 C 
ATOM     18  OXT UNL     1      10.849   2.866  23.481  0.00  0.00    -0.249 OA
BRANCH  17  19
ATOM     19  O   UNL     1       9.953   2.000  21.581  0.00  0.00    -0.480 OA
ATOM     20  H   UNL     1       9.436   2.822  21.398  0.00  0.00    +0.295 HD
ENDBRANCH  17  19
ENDBRANCH  13  17
ENDBRANCH  12  13
ENDBRANCH   1  12
TORSDOF 11
ENDMDL
MODEL 4
REMARK VINA RESULT:      -4.5      1.568      1.902
REMARK  Name = 
REMARK  11 active torsions:
REMARK  status: ('A' for Active; 'I' for Inactive)
REMARK    1  A    between atoms: N_1  and  CA_2
REMARK    2  A    between atoms: CA_2  and  CB_4
REMARK    3  A    between atoms: CA_2  and  C_16
REMARK    4  A    between atoms: CB_4  and  SG_5
REMARK    5  A    between atoms: SG_5  and  C_6
REMARK    6  A    between atoms: C_6  and  O_8
REMARK    7  A    between atoms: C_6  and  C_9
REMARK    8  A    between atoms: C_9  and  CA_10
REMARK    9  A    between atoms: CA_10  and  N_12
REMARK   10  A    between atoms: CA_10  and  C_13
REMARK   11  A    between atoms: C_13  and  O_14
REMARK                            x       y       z     vdW  Elec       q    Type
REMARK                         _______ _______ _______ _____ _____    ______ ____
ROOT
ATOM      1  C   UNL     1       8.975  -1.725  24.254  0.00  0.00    +0.174 C 
ENDROOT
BRANCH   1   2
ATOM      2  O   UNL     1       7.778  -1.622  23.500  0.00  0.00    -0.381 OA
ATOM      3  H   UNL     1       7.929  -0.967  22.801  0.00  0.00    +0.211 HD
ENDBRANCH   1   2
BRANCH   1   4
ATOM      4  SG  UNL     1       8.610  -1.925  26.022  0.00  0.00    -0.128 S 
BRANCH   4   5
ATOM      5  CB  UNL     1       8.474  -3.742  26.147  0.00  0.00    +0.097 C 
BRANCH   5   6
ATOM      6  CA  UNL     1       9.203  -4.401  24.961  0.00  0.00    +0.124 C 
BRANCH   6   7
ATOM      7  N   UNL     1      10.237  -5.369  25.385  0.00  0.00    -0.321 NA
ATOM      8  H1  UNL     1      10.234  -5.381  26.412  0.00  0.00    +0.119 HD
ATOM      9  H2  UNL     1       9.939  -6.314  25.130  0.00  0.00    +0.119 HD
ENDBRANCH   6   7
BRANCH   6  10
ATOM     10  C   UNL     1       8.218  -5.126  24.059  0.00  0.00    +0.242 C 
ATOM     11  O   UNL     1       7.143  -4.657  23.696  0.00  0.00    -0.299 OA
ENDBRANCH   6  10
ENDBRANCH   5   6
ENDBRANCH   4   5
ENDBRANCH   1   4
BRANCH   1  12
ATOM     12  C   UNL     1       9.781  -0.441  24.028  0.00  0.00    +0.072 C 
BRANCH  12  13
ATOM     13  CA  UNL     1      10.254  -0.205  22.586  0.00  0.00    +0.164 C 
BRANCH  13  14
ATOM     14  N   UNL     1      10.102  -1.427  21.742  0.00  0.00    -0.318 NA
ATOM     15  H1  UNL     1       9.280  -1.279  21.143  0.00  0.00    +0.119 HD
ATOM     16  H2  UNL     1      10.876  -1.461  21.075  0.00  0.00    +0.119 HD
ENDBRANCH  13  14
BRANCH  13  17
ATOM     17  C   UNL     1       9.400   0.914  21.970  0.00  0.00    +0.322 C 
ATOM     18  OXT UNL     1       8.187   0.887  21.842  0.00  0.00    -0.249 OA
BRANCH  17  19
ATOM     19  O   UNL     1      10.172   1.960  21.569  0.00  0.00    -0.480 OA
ATOM     20  H   UNL     1       9.856   2.747  22.078  0.00  0.00    +0.295 HD
ENDBRANCH  17  19
ENDBRANCH  13  17
ENDBRANCH  12  13
ENDBRANCH   1  12
TORSDOF 11
ENDMDL
MODEL 5
REMARK VINA RESULT:      -4.5      2.337      5.880
REMARK  Name = 
REMARK  11 active torsions:
REMARK  status: ('A' for Active; 'I' for Inactive)
REMARK    1  A    between atoms: N_1  and  CA_2
REMARK    2  A    between atoms: CA_2  and  CB_4
REMARK    3  A    between atoms: CA_2  and  C_16
REMARK    4  A    between atoms: CB_4  and  SG_5
REMARK    5  A    between atoms: SG_5  and  C_6
REMARK    6  A    between atoms: C_6  and  O_8
REMARK    7  A    between atoms: C_6  and  C_9
REMARK    8  A    between atoms: C_9  and  CA_10
REMARK    9  A    between atoms: CA_10  and  N_12
REMARK   10  A    between atoms: CA_10  and  C_13
REMARK   11  A    between atoms: C_13  and  O_14
REMARK                            x       y       z     vdW  Elec       q    Type
REMARK                         _______ _______ _______ _____ _____    ______ ____
ROOT
ATOM      1  C   UNL     1       7.775  -0.954  24.873  0.00  0.00    +0.174 C 
ENDROOT
BRANCH   1   2
ATOM      2  O   UNL     1       7.181  -1.577  23.745  0.00  0.00    -0.381 OA
ATOM      3  H   UNL     1       6.715  -0.889  23.244  0.00  0.00    +0.211 HD
ENDBRANCH   1   2
BRANCH   1   4
ATOM      4  SG  UNL     1       8.803   0.455  24.368  0.00  0.00    -0.128 S 
BRANCH   4   5
ATOM      5  CB  UNL     1       7.938   0.991  22.850  0.00  0.00    +0.097 C 
BRANCH   5   6
ATOM      6  CA  UNL     1       8.917   0.976  21.661  0.00  0.00    +0.124 C 
BRANCH   6   7
ATOM      7  N   UNL     1       9.901   2.078  21.711  0.00  0.00    -0.321 NA
ATOM      8  H1  UNL     1      10.301   2.166  20.769  0.00  0.00    +0.119 HD
ATOM      9  H2  UNL     1       9.409   2.964  21.849  0.00  0.00    +0.119 HD
ENDBRANCH   6   7
BRANCH   6  10
ATOM     10  C   UNL     1       9.679  -0.337  21.607  0.00  0.00    +0.242 C 
ATOM     11  O   UNL     1       9.147  -1.438  21.496  0.00  0.00    -0.299 OA
ENDBRANCH   6  10
ENDBRANCH   5   6
ENDBRANCH   4   5
ENDBRANCH   1   4
BRANCH   1  12
ATOM     12  C   UNL     1       8.638  -2.003  25.583  0.00  0.00    +0.072 C 
BRANCH  12  13
ATOM     13  CA  UNL     1       8.948  -3.266  24.766  0.00  0.00    +0.164 C 
BRANCH  13  14
ATOM     14  N   UNL     1      10.098  -3.060  23.837  0.00  0.00    -0.318 NA
ATOM     15  H1  UNL     1      10.937  -3.416  24.311  0.00  0.00    +0.119 HD
ATOM     16  H2  UNL     1       9.991  -3.692  23.040  0.00  0.00    +0.119 HD
ENDBRANCH  13  14
BRANCH  13  17
ATOM     17  C   UNL     1       9.314  -4.398  25.739  0.00  0.00    +0.322 C 
ATOM     18  OXT UNL     1       8.863  -4.535  26.864  0.00  0.00    -0.249 OA
BRANCH  17  19
ATOM     19  O   UNL     1      10.224  -5.246  25.188  0.00  0.00    -0.480 OA
ATOM     20  H   UNL     1      11.042  -4.712  25.038  0.00  0.00    +0.295 HD
ENDBRANCH  17  19
ENDBRANCH  13  17
ENDBRANCH  12  13
ENDBRANCH   1  12
TORSDOF 11
ENDMDL
MODEL 6
REMARK VINA RESULT:      -4.4      1.272      6.051
REMARK  Name = 
REMARK  11 active torsions:
REMARK  status: ('A' for Active; 'I' for Inactive)
REMARK    1  A    between atoms: N_1  and  CA_2
REMARK    2  A    between atoms: CA_2  and  CB_4
REMARK    3  A    between atoms: CA_2  and  C_16
REMARK    4  A    between atoms: CB_4  and  SG_5
REMARK    5  A    between atoms: SG_5  and  C_6
REMARK    6  A    between atoms: C_6  and  O_8
REMARK    7  A    between atoms: C_6  and  C_9
REMARK    8  A    between atoms: C_9  and  CA_10
REMARK    9  A    between atoms: CA_10  and  N_12
REMARK   10  A    between atoms: CA_10  and  C_13
REMARK   11  A    between atoms: C_13  and  O_14
REMARK                            x       y       z     vdW  Elec       q    Type
REMARK                         _______ _______ _______ _____ _____    ______ ____
ROOT
ATOM      1  C   UNL     1       7.736  -3.066  23.701  0.00  0.00    +0.174 C 
ENDROOT
BRANCH   1   2
ATOM      2  O   UNL     1       7.801  -3.629  22.400  0.00  0.00    -0.381 OA
ATOM      3  H   UNL     1       8.639  -4.113  22.333  0.00  0.00    +0.211 HD
ENDBRANCH   1   2
BRANCH   1   4
ATOM      4  SG  UNL     1       7.753  -1.251  23.621  0.00  0.00    -0.128 S 
BRANCH   4   5
ATOM      5  CB  UNL     1       9.525  -0.907  23.899  0.00  0.00    +0.097 C 
BRANCH   5   6
ATOM      6  CA  UNL     1      10.202  -0.551  22.562  0.00  0.00    +0.124 C 
BRANCH   6   7
ATOM      7  N   UNL     1       9.896  -1.517  21.486  0.00  0.00    -0.321 NA
ATOM      8  H1  UNL     1       9.546  -0.975  20.687  0.00  0.00    +0.119 HD
ATOM      9  H2  UNL     1      10.768  -1.924  21.140  0.00  0.00    +0.119 HD
ENDBRANCH   6   7
BRANCH   6  10
ATOM     10  C   UNL     1       9.777   0.830  22.094  0.00  0.00    +0.242 C 
ATOM     11  O   UNL     1       9.063   1.037  21.117  0.00  0.00    -0.299 OA
ENDBRANCH   6  10
ENDBRANCH   5   6
ENDBRANCH   4   5
ENDBRANCH   1   4
BRANCH   1  12
ATOM     12  C   UNL     1       8.952  -3.567  24.487  0.00  0.00    +0.072 C 
BRANCH  12  13
ATOM     13  CA  UNL     1       8.804  -4.961  25.114  0.00  0.00    +0.164 C 
BRANCH  13  14
ATOM     14  N   UNL     1      10.122  -5.642  25.275  0.00  0.00    -0.318 NA
ATOM     15  H1  UNL     1      10.512  -5.772  24.333  0.00  0.00    +0.119 HD
ATOM     16  H2  UNL     1      10.776  -4.988  25.712  0.00  0.00    +0.119 HD
ENDBRANCH  13  14
BRANCH  13  17
ATOM     17  C   UNL     1       8.170  -4.806  26.505  0.00  0.00    +0.322 C 
ATOM     18  OXT UNL     1       7.896  -3.745  27.041  0.00  0.00    -0.249 OA
BRANCH  17  19
ATOM     19  O   UNL     1       7.951  -6.017  27.085  0.00  0.00    -0.480 OA
ATOM     20  H   UNL     1       7.010  -6.250  26.890  0.00  0.00    +0.295 HD
ENDBRANCH  17  19
ENDBRANCH  13  17
ENDBRANCH  12  13
ENDBRANCH   1  12
TORSDOF 11
ENDMDL
MODEL 7
REMARK VINA RESULT:      -4.4      3.433      3.761
REMARK  Name = 
REMARK  11 active torsions:
REMARK  status: ('A' for Active; 'I' for Inactive)
REMARK    1  A    between atoms: N_1  and  CA_2
REMARK    2  A    between atoms: CA_2  and  CB_4
REMARK    3  A    between atoms: CA_2  and  C_16
REMARK    4  A    between atoms: CB_4  and  SG_5
REMARK    5  A    between atoms: SG_5  and  C_6
REMARK    6  A    between atoms: C_6  and  O_8
REMARK    7  A    between atoms: C_6  and  C_9
REMARK    8  A    between atoms: C_9  and  CA_10
REMARK    9  A    between atoms: CA_10  and  N_12
REMARK   10  A    between atoms: CA_10  and  C_13
REMARK   11  A    between atoms: C_13  and  O_14
REMARK                            x       y       z     vdW  Elec       q    Type
REMARK                         _______ _______ _______ _____ _____    ______ ____
ROOT
ATOM      1  C   UNL     1      10.166  -1.211  22.463  0.00  0.00    +0.174 C 
ENDROOT
BRANCH   1   2
ATOM      2  O   UNL     1       9.377  -0.971  21.309  0.00  0.00    -0.381 OA
ATOM      3  H   UNL     1       9.611  -0.092  20.972  0.00  0.00    +0.211 HD
ENDBRANCH   1   2
BRANCH   1   4
ATOM      4  SG  UNL     1       9.259  -2.222  23.668  0.00  0.00    -0.128 S 
BRANCH   4   5
ATOM      5  CB  UNL     1       8.008  -3.007  22.593  0.00  0.00    +0.097 C 
BRANCH   5   6
ATOM      6  CA  UNL     1       6.605  -2.491  22.965  0.00  0.00    +0.124 C 
BRANCH   6   7
ATOM      7  N   UNL     1       6.493  -1.019  22.884  0.00  0.00    -0.321 NA
ATOM      8  H1  UNL     1       6.110  -0.697  23.780  0.00  0.00    +0.119 HD
ATOM      9  H2  UNL     1       7.430  -0.610  22.859  0.00  0.00    +0.119 HD
ENDBRANCH   6   7
BRANCH   6  10
ATOM     10  C   UNL     1       5.550  -3.097  22.055  0.00  0.00    +0.242 C 
ATOM     11  O   UNL     1       5.671  -4.178  21.485  0.00  0.00    -0.299 OA
ENDBRANCH   6  10
ENDBRANCH   5   6
ENDBRANCH   4   5
ENDBRANCH   1   4
BRANCH   1  12
ATOM     12  C   UNL     1      10.518   0.148  23.078  0.00  0.00    +0.072 C 
BRANCH  12  13
ATOM     13  CA  UNL     1       9.322   0.987  23.552  0.00  0.00    +0.164 C 
BRANCH  13  14
ATOM     14  N   UNL     1       9.522   1.509  24.936  0.00  0.00    -0.318 NA
ATOM     15  H1  UNL     1       8.946   0.933  25.563  0.00  0.00    +0.119 HD
ATOM     16  H2  UNL     1      10.477   1.293  25.231  0.00  0.00    +0.119 HD
ENDBRANCH  13  14
BRANCH  13  17
ATOM     17  C   UNL     1       9.161   2.186  22.605  0.00  0.00    +0.322 C 
ATOM     18  OXT UNL     1       8.369   3.101  22.754  0.00  0.00    -0.249 OA
BRANCH  17  19
ATOM     19  O   UNL     1      10.021   2.103  21.555  0.00  0.00    -0.480 OA
ATOM     20  H   UNL     1      10.068   3.009  21.164  0.00  0.00    +0.295 HD
ENDBRANCH  17  19
ENDBRANCH  13  17
ENDBRANCH  12  13
ENDBRANCH   1  12
TORSDOF 11
ENDMDL
MODEL 8
REMARK VINA RESULT:      -4.3      2.004      2.334
REMARK  Name = 
REMARK  11 active torsions:
REMARK  status: ('A' for Active; 'I' for Inactive)
REMARK    1  A    between atoms: N_1  and  CA_2
REMARK    2  A    between atoms: CA_2  and  CB_4
REMARK    3  A    between atoms: CA_2  and  C_16
REMARK    4  A    between atoms: CB_4  and  SG_5
REMARK    5  A    between atoms: SG_5  and  C_6
REMARK    6  A    between atoms: C_6  and  O_8
REMARK    7  A    between atoms: C_6  and  C_9
REMARK    8  A    between atoms: C_9  and  CA_10
REMARK    9  A    between atoms: CA_10  and  N_12
REMARK   10  A    between atoms: CA_10  and  C_13
REMARK   11  A    between atoms: C_13  and  O_14
REMARK                            x       y       z     vdW  Elec       q    Type
REMARK                         _______ _______ _______ _____ _____    ______ ____
ROOT
ATOM      1  C   UNL     1       8.169  -2.949  22.979  0.00  0.00    +0.174 C 
ENDROOT
BRANCH   1   2
ATOM      2  O   UNL     1       7.297  -1.977  23.534  0.00  0.00    -0.381 OA
ATOM      3  H   UNL     1       7.792  -1.494  24.213  0.00  0.00    +0.211 HD
ENDBRANCH   1   2
BRANCH   1   4
ATOM      4  SG  UNL     1       7.645  -4.626  23.437  0.00  0.00    -0.128 S 
BRANCH   4   5
ATOM      5  CB  UNL     1       8.515  -4.841  25.029  0.00  0.00    +0.097 C 
BRANCH   5   6
ATOM      6  CA  UNL     1       7.491  -4.911  26.177  0.00  0.00    +0.124 C 
BRANCH   6   7
ATOM      7  N   UNL     1       7.955  -5.732  27.315  0.00  0.00    -0.321 NA
ATOM      8  H1  UNL     1       7.921  -6.713  27.012  0.00  0.00    +0.119 HD
ATOM      9  H2  UNL     1       8.952  -5.561  27.470  0.00  0.00    +0.119 HD
ENDBRANCH   6   7
BRANCH   6  10
ATOM     10  C   UNL     1       7.168  -3.521  26.697  0.00  0.00    +0.242 C 
ATOM     11  O   UNL     1       7.882  -2.537  26.521  0.00  0.00    -0.299 OA
ENDBRANCH   6  10
ENDBRANCH   5   6
ENDBRANCH   4   5
ENDBRANCH   1   4
BRANCH   1  12
ATOM     12  C   UNL     1       9.577  -2.674  23.519  0.00  0.00    +0.072 C 
BRANCH  12  13
ATOM     13  CA  UNL     1      10.323  -1.507  22.855  0.00  0.00    +0.164 C 
BRANCH  13  14
ATOM     14  N   UNL     1       9.712  -1.129  21.547  0.00  0.00    -0.318 NA
ATOM     15  H1  UNL     1       9.456  -0.136  21.609  0.00  0.00    +0.119 HD
ATOM     16  H2  UNL     1      10.442  -1.139  20.831  0.00  0.00    +0.119 HD
ENDBRANCH  13  14
BRANCH  13  17
ATOM     17  C   UNL     1      10.251  -0.289  23.789  0.00  0.00    +0.322 C 
ATOM     18  OXT UNL     1      10.645   0.833  23.517  0.00  0.00    -0.249 OA
BRANCH  17  19
ATOM     19  O   UNL     1       9.690  -0.617  24.984  0.00  0.00    -0.480 OA
ATOM     20  H   UNL     1      10.261  -1.324  25.372  0.00  0.00    +0.295 HD
ENDBRANCH  17  19
ENDBRANCH  13  17
ENDBRANCH  12  13
ENDBRANCH   1  12
TORSDOF 11
ENDMDL
MODEL 9
REMARK VINA RESULT:      -4.3      2.002      5.951
REMARK  Name = 
REMARK  11 active torsions:
REMARK  status: ('A' for Active; 'I' for Inactive)
REMARK    1  A    between atoms: N_1  and  CA_2
REMARK    2  A    between atoms: CA_2  and  CB_4
REMARK    3  A    between atoms: CA_2  and  C_16
REMARK    4  A    between atoms: CB_4  and  SG_5
REMARK    5  A    between atoms: SG_5  and  C_6
REMARK    6  A    between atoms: C_6  and  O_8
REMARK    7  A    between atoms: C_6  and  C_9
REMARK    8  A    between atoms: C_9  and  CA_10
REMARK    9  A    between atoms: CA_10  and  N_12
REMARK   10  A    between atoms: CA_10  and  C_13
REMARK   11  A    between atoms: C_13  and  O_14
REMARK                            x       y       z     vdW  Elec       q    Type
REMARK                         _______ _______ _______ _____ _____    ______ ____
ROOT
ATOM      1  C   UNL     1       8.408  -2.149  25.613  0.00  0.00    +0.174 C 
ENDROOT
BRANCH   1   2
ATOM      2  O   UNL     1       8.739  -1.332  26.725  0.00  0.00    -0.381 OA
ATOM      3  H   UNL     1       8.147  -0.565  26.710  0.00  0.00    +0.211 HD
ENDBRANCH   1   2
BRANCH   1   4
ATOM      4  SG  UNL     1       7.293  -1.274  24.477  0.00  0.00    -0.128 S 
BRANCH   4   5
ATOM      5  CB  UNL     1       8.020  -1.722  22.862  0.00  0.00    +0.097 C 
BRANCH   5   6
ATOM      6  CA  UNL     1       9.359  -0.985  22.671  0.00  0.00    +0.124 C 
BRANCH   6   7
ATOM      7  N   UNL     1      10.173  -1.544  21.571  0.00  0.00    -0.321 NA
ATOM      8  H1  UNL     1       9.662  -1.364  20.699  0.00  0.00    +0.119 HD
ATOM      9  H2  UNL     1      11.028  -0.991  21.470  0.00  0.00    +0.119 HD
ENDBRANCH   6   7
BRANCH   6  10
ATOM     10  C   UNL     1       9.127   0.489  22.387  0.00  0.00    +0.242 C 
ATOM     11  O   UNL     1       9.882   1.189  21.718  0.00  0.00    -0.299 OA
ENDBRANCH   6  10
ENDBRANCH   5   6
ENDBRANCH   4   5
ENDBRANCH   1   4
BRANCH   1  12
ATOM     12  C   UNL     1       7.724  -3.411  26.149  0.00  0.00    +0.072 C 
BRANCH  12  13
ATOM     13  CA  UNL     1       8.667  -4.560  26.536  0.00  0.00    +0.164 C 
BRANCH  13  14
ATOM     14  N   UNL     1       7.943  -5.666  27.229  0.00  0.00    -0.318 NA
ATOM     15  H1  UNL     1       6.938  -5.480  27.125  0.00  0.00    +0.119 HD
ATOM     16  H2  UNL     1       8.080  -6.529  26.697  0.00  0.00    +0.119 HD
ENDBRANCH  13  14
BRANCH  13  17
ATOM     17  C   UNL     1       9.296  -5.127  25.253  0.00  0.00    +0.322 C 
ATOM     18  OXT UNL     1       8.725  -5.249  24.182  0.00  0.00    -0.249 OA
BRANCH  17  19
ATOM     19  O   UNL     1      10.591  -5.489  25.458  0.00  0.00    -0.480 OA
ATOM     20  H   UNL     1      10.572  -6.205  26.140  0.00  0.00    +0.295 HD
ENDBRANCH  17  19
ENDBRANCH  13  17
ENDBRANCH  12  13
ENDBRANCH   1  12
TORSDOF 11
ENDMDL
