MODEL 1
REMARK VINA RESULT:      -7.5      0.000      0.000
REMARK  Name = 
REMARK  3 active torsions:
REMARK  status: ('A' for Active; 'I' for Inactive)
REMARK    1  A    between atoms: O_1  and  C_2
REMARK    2  A    between atoms: C_2  and  C_4
REMARK    3  A    between atoms: C_4  and  C_5
REMARK                            x       y       z     vdW  Elec       q    Type
REMARK                         _______ _______ _______ _____ _____    ______ ____
ROOT
ATOM      1  C   UNL     1       6.458  -4.316  25.563  0.00  0.00    +0.013 A 
ATOM      2  C   UNL     1       6.344  -4.880  24.256  0.00  0.00    +0.006 A 
ATOM      3  C   UNL     1       5.580  -5.961  23.759  0.00  0.00    +0.010 A 
ATOM      4  C   UNL     1       5.631  -6.297  22.408  0.00  0.00    +0.001 A 
ATOM      5  C   UNL     1       6.437  -5.575  21.547  0.00  0.00    +0.002 A 
ATOM      6  C   UNL     1       7.213  -4.508  22.012  0.00  0.00    +0.027 A 
ATOM      7  C   UNL     1       7.172  -4.152  23.377  0.00  0.00    +0.056 A 
ATOM      8  N   UNL     1       7.804  -3.165  24.138  0.00  0.00    -0.295 N 
ATOM      9  C   UNL     1       8.725  -2.124  23.795  0.00  0.00    +0.061 A 
ATOM     10  C   UNL     1       9.179  -1.272  24.825  0.00  0.00    +0.063 A 
ATOM     11  C   UNL     1      10.068  -0.221  24.556  0.00  0.00    +0.015 A 
ATOM     12  C   UNL     1      10.516  -0.008  23.258  0.00  0.00    +0.001 A 
ATOM     13  C   UNL     1      10.079  -0.842  22.235  0.00  0.00    +0.002 A 
ATOM     14  C   UNL     1       8.727  -1.456  26.225  0.00  0.00    +0.259 A 
ATOM     15  O   UNL     1       9.068  -0.767  27.168  0.00  0.00    -0.267 OA
ATOM     16  N   UNL     1       7.807  -2.504  26.486  0.00  0.00    -0.308 N 
ATOM     17  H   UNL     1       7.523  -2.652  27.444  0.00  0.00    +0.170 HD
ATOM     18  C   UNL     1       9.190  -1.893  22.498  0.00  0.00    +0.027 A 
ATOM     19  C   UNL     1       7.376  -3.301  25.450  0.00  0.00    +0.123 A 
ENDROOT
BRANCH   1  20
ATOM     20  C   UNL     1       5.695  -4.757  26.775  0.00  0.00    +0.159 C 
BRANCH  20  21
ATOM     21  C   UNL     1       6.257  -6.018  27.392  0.00  0.00    +0.309 C 
ATOM     22  O   UNL     1       5.631  -7.059  27.524  0.00  0.00    -0.251 OA
BRANCH  21  23
ATOM     23  O   UNL     1       7.568  -5.923  27.717  0.00  0.00    -0.480 OA
ATOM     24  H   UNL     1       7.864  -6.458  28.479  0.00  0.00    +0.295 HD
ENDBRANCH  21  23
ENDBRANCH  20  21
ENDBRANCH   1  20
TORSDOF 3
ENDMDL
MODEL 2
REMARK VINA RESULT:      -6.9      2.917      3.910
REMARK  Name = 
REMARK  3 active torsions:
REMARK  status: ('A' for Active; 'I' for Inactive)
REMARK    1  A    between atoms: O_1  and  C_2
REMARK    2  A    between atoms: C_2  and  C_4
REMARK    3  A    between atoms: C_4  and  C_5
REMARK                            x       y       z     vdW  Elec       q    Type
REMARK                         _______ _______ _______ _____ _____    ______ ____
ROOT
ATOM      1  C   UNL     1       6.192  -2.862  24.018  0.00  0.00    +0.013 A 
ATOM      2  C   UNL     1       7.044  -3.599  24.896  0.00  0.00    +0.006 A 
ATOM      3  C   UNL     1       6.910  -4.877  25.486  0.00  0.00    +0.010 A 
ATOM      4  C   UNL     1       7.920  -5.386  26.300  0.00  0.00    +0.001 A 
ATOM      5  C   UNL     1       9.058  -4.637  26.539  0.00  0.00    +0.002 A 
ATOM      6  C   UNL     1       9.213  -3.365  25.977  0.00  0.00    +0.027 A 
ATOM      7  C   UNL     1       8.201  -2.835  25.147  0.00  0.00    +0.056 A 
ATOM      8  N   UNL     1       8.054  -1.632  24.451  0.00  0.00    -0.295 N 
ATOM      9  C   UNL     1       8.905  -0.490  24.308  0.00  0.00    +0.061 A 
ATOM     10  C   UNL     1       8.450   0.582  23.509  0.00  0.00    +0.063 A 
ATOM     11  C   UNL     1       9.240   1.724  23.312  0.00  0.00    +0.015 A 
ATOM     12  C   UNL     1      10.491   1.812  23.910  0.00  0.00    +0.001 A 
ATOM     13  C   UNL     1      10.949   0.765  24.701  0.00  0.00    +0.002 A 
ATOM     14  C   UNL     1       7.125   0.533  22.847  0.00  0.00    +0.259 A 
ATOM     15  O   UNL     1       6.660   1.410  22.143  0.00  0.00    -0.267 OA
ATOM     16  N   UNL     1       6.342  -0.636  23.029  0.00  0.00    -0.308 N 
ATOM     17  H   UNL     1       5.424  -0.658  22.605  0.00  0.00    +0.170 HD
ATOM     18  C   UNL     1      10.165  -0.379  24.901  0.00  0.00    +0.027 A 
ATOM     19  C   UNL     1       6.830  -1.665  23.801  0.00  0.00    +0.123 A 
ENDROOT
BRANCH   1  20
ATOM     20  C   UNL     1       4.890  -3.344  23.455  0.00  0.00    +0.159 C 
BRANCH  20  21
ATOM     21  C   UNL     1       5.072  -4.297  22.294  0.00  0.00    +0.309 C 
ATOM     22  O   UNL     1       4.731  -5.470  22.306  0.00  0.00    -0.251 OA
BRANCH  21  23
ATOM     23  O   UNL     1       5.579  -3.708  21.186  0.00  0.00    -0.480 OA
ATOM     24  H   UNL     1       5.589  -2.731  21.182  0.00  0.00    +0.295 HD
ENDBRANCH  21  23
ENDBRANCH  20  21
ENDBRANCH   1  20
TORSDOF 3
ENDMDL
MODEL 3
REMARK VINA RESULT:      -6.8      2.641      4.083
REMARK  Name = 
REMARK  3 active torsions:
REMARK  status: ('A' for Active; 'I' for Inactive)
REMARK    1  A    between atoms: O_1  and  C_2
REMARK    2  A    between atoms: C_2  and  C_4
REMARK    3  A    between atoms: C_4  and  C_5
REMARK                            x       y       z     vdW  Elec       q    Type
REMARK                         _______ _______ _______ _____ _____    ______ ____
ROOT
ATOM      1  C   UNL     1       7.339  -4.482  23.427  0.00  0.00    +0.013 A 
ATOM      2  C   UNL     1       6.820  -4.574  24.754  0.00  0.00    +0.006 A 
ATOM      3  C   UNL     1       6.219  -5.642  25.460  0.00  0.00    +0.010 A 
ATOM      4  C   UNL     1       5.817  -5.474  26.783  0.00  0.00    +0.001 A 
ATOM      5  C   UNL     1       5.999  -4.255  27.410  0.00  0.00    +0.002 A 
ATOM      6  C   UNL     1       6.579  -3.177  26.733  0.00  0.00    +0.027 A 
ATOM      7  C   UNL     1       6.996  -3.330  25.394  0.00  0.00    +0.056 A 
ATOM      8  N   UNL     1       7.596  -2.476  24.464  0.00  0.00    -0.295 N 
ATOM      9  C   UNL     1       8.033  -1.115  24.546  0.00  0.00    +0.061 A 
ATOM     10  C   UNL     1       8.619  -0.535  23.400  0.00  0.00    +0.063 A 
ATOM     11  C   UNL     1       9.084   0.788  23.415  0.00  0.00    +0.015 A 
ATOM     12  C   UNL     1       8.970   1.548  24.572  0.00  0.00    +0.001 A 
ATOM     13  C   UNL     1       8.392   0.990  25.707  0.00  0.00    +0.002 A 
ATOM     14  C   UNL     1       8.767  -1.307  22.143  0.00  0.00    +0.259 A 
ATOM     15  O   UNL     1       9.260  -0.884  21.114  0.00  0.00    -0.267 OA
ATOM     16  N   UNL     1       8.318  -2.653  22.142  0.00  0.00    -0.308 N 
ATOM     17  H   UNL     1       8.388  -3.171  21.276  0.00  0.00    +0.170 HD
ATOM     18  C   UNL     1       7.926  -0.332  25.697  0.00  0.00    +0.027 A 
ATOM     19  C   UNL     1       7.768  -3.185  23.286  0.00  0.00    +0.123 A 
ENDROOT
BRANCH   1  20
ATOM     20  C   UNL     1       7.402  -5.603  22.434  0.00  0.00    +0.159 C 
BRANCH  20  21
ATOM     21  C   UNL     1       6.157  -5.698  21.581  0.00  0.00    +0.309 C 
ATOM     22  O   UNL     1       6.068  -5.267  20.441  0.00  0.00    -0.251 OA
BRANCH  21  23
ATOM     23  O   UNL     1       5.152  -6.392  22.167  0.00  0.00    -0.480 OA
ATOM     24  H   UNL     1       5.179  -7.363  22.060  0.00  0.00    +0.295 HD
ENDBRANCH  21  23
ENDBRANCH  20  21
ENDBRANCH   1  20
TORSDOF 3
ENDMDL
MODEL 4
REMARK VINA RESULT:      -6.7      2.706      6.498
REMARK  Name = 
REMARK  3 active torsions:
REMARK  status: ('A' for Active; 'I' for Inactive)
REMARK    1  A    between atoms: O_1  and  C_2
REMARK    2  A    between atoms: C_2  and  C_4
REMARK    3  A    between atoms: C_4  and  C_5
REMARK                            x       y       z     vdW  Elec       q    Type
REMARK                         _______ _______ _______ _____ _____    ______ ____
ROOT
ATOM      1  C   UNL     1       9.360  -0.533  24.374  0.00  0.00    +0.013 A 
ATOM      2  C   UNL     1       8.514   0.369  25.089  0.00  0.00    +0.006 A 
ATOM      3  C   UNL     1       8.429   1.780  25.092  0.00  0.00    +0.010 A 
ATOM      4  C   UNL     1       7.477   2.427  25.877  0.00  0.00    +0.001 A 
ATOM      5  C   UNL     1       6.613   1.687  26.663  0.00  0.00    +0.002 A 
ATOM      6  C   UNL     1       6.681   0.290  26.689  0.00  0.00    +0.027 A 
ATOM      7  C   UNL     1       7.637  -0.382  25.898  0.00  0.00    +0.056 A 
ATOM      8  N   UNL     1       7.954  -1.729  25.700  0.00  0.00    -0.295 N 
ATOM      9  C   UNL     1       7.395  -2.938  26.225  0.00  0.00    +0.061 A 
ATOM     10  C   UNL     1       7.958  -4.165  25.809  0.00  0.00    +0.063 A 
ATOM     11  C   UNL     1       7.449  -5.388  26.270  0.00  0.00    +0.015 A 
ATOM     12  C   UNL     1       6.376  -5.403  27.152  0.00  0.00    +0.001 A 
ATOM     13  C   UNL     1       5.815  -4.201  27.572  0.00  0.00    +0.002 A 
ATOM     14  C   UNL     1       9.101  -4.202  24.866  0.00  0.00    +0.259 A 
ATOM     15  O   UNL     1       9.640  -5.212  24.457  0.00  0.00    -0.267 OA
ATOM     16  N   UNL     1       9.594  -2.962  24.383  0.00  0.00    -0.308 N 
ATOM     17  H   UNL     1      10.394  -2.983  23.765  0.00  0.00    +0.170 HD
ATOM     18  C   UNL     1       6.319  -2.977  27.114  0.00  0.00    +0.027 A 
ATOM     19  C   UNL     1       9.006  -1.789  24.800  0.00  0.00    +0.123 A 
ENDROOT
BRANCH   1  20
ATOM     20  C   UNL     1      10.392  -0.144  23.359  0.00  0.00    +0.159 C 
BRANCH  20  21
ATOM     21  C   UNL     1       9.932  -0.380  21.938  0.00  0.00    +0.309 C 
ATOM     22  O   UNL     1       9.420   0.475  21.229  0.00  0.00    -0.251 OA
BRANCH  21  23
ATOM     23  O   UNL     1      10.215  -1.620  21.476  0.00  0.00    -0.480 OA
ATOM     24  H   UNL     1      10.985  -2.066  21.881  0.00  0.00    +0.295 HD
ENDBRANCH  21  23
ENDBRANCH  20  21
ENDBRANCH   1  20
TORSDOF 3
ENDMDL
MODEL 5
REMARK VINA RESULT:      -6.7      2.356      3.978
REMARK  Name = 
REMARK  3 active torsions:
REMARK  status: ('A' for Active; 'I' for Inactive)
REMARK    1  A    between atoms: O_1  and  C_2
REMARK    2  A    between atoms: C_2  and  C_4
REMARK    3  A    between atoms: C_4  and  C_5
REMARK                            x       y       z     vdW  Elec       q    Type
REMARK                         _______ _______ _______ _____ _____    ______ ____
ROOT
ATOM      1  C   UNL     1       7.328  -3.258  25.176  0.00  0.00    +0.013 A 
ATOM      2  C   UNL     1       6.470  -2.535  26.059  0.00  0.00    +0.006 A 
ATOM      3  C   UNL     1       5.436  -2.958  26.925  0.00  0.00    +0.010 A 
ATOM      4  C   UNL     1       4.758  -2.034  27.717  0.00  0.00    +0.001 A 
ATOM      5  C   UNL     1       5.091  -0.694  27.653  0.00  0.00    +0.002 A 
ATOM      6  C   UNL     1       6.102  -0.244  26.796  0.00  0.00    +0.027 A 
ATOM      7  C   UNL     1       6.802  -1.167  25.990  0.00  0.00    +0.056 A 
ATOM      8  N   UNL     1       7.837  -1.046  25.058  0.00  0.00    -0.295 N 
ATOM      9  C   UNL     1       8.590   0.080  24.594  0.00  0.00    +0.061 A 
ATOM     10  C   UNL     1       9.595  -0.146  23.628  0.00  0.00    +0.063 A 
ATOM     11  C   UNL     1      10.382   0.908  23.142  0.00  0.00    +0.015 A 
ATOM     12  C   UNL     1      10.176   2.199  23.611  0.00  0.00    +0.001 A 
ATOM     13  C   UNL     1       9.187   2.436  24.560  0.00  0.00    +0.002 A 
ATOM     14  C   UNL     1       9.856  -1.506  23.099  0.00  0.00    +0.259 A 
ATOM     15  O   UNL     1      10.701  -1.786  22.270  0.00  0.00    -0.267 OA
ATOM     16  N   UNL     1       9.074  -2.572  23.614  0.00  0.00    -0.308 N 
ATOM     17  H   UNL     1       9.228  -3.495  23.232  0.00  0.00    +0.170 HD
ATOM     18  C   UNL     1       8.399   1.386  25.049  0.00  0.00    +0.027 A 
ATOM     19  C   UNL     1       8.116  -2.312  24.568  0.00  0.00    +0.123 A 
ENDROOT
BRANCH   1  20
ATOM     20  C   UNL     1       7.345  -4.746  24.997  0.00  0.00    +0.159 C 
BRANCH  20  21
ATOM     21  C   UNL     1       8.592  -5.387  25.563  0.00  0.00    +0.309 C 
ATOM     22  O   UNL     1       9.675  -5.407  24.997  0.00  0.00    -0.251 OA
BRANCH  21  23
ATOM     23  O   UNL     1       8.428  -5.875  26.816  0.00  0.00    -0.480 OA
ATOM     24  H   UNL     1       8.762  -5.316  27.544  0.00  0.00    +0.295 HD
ENDBRANCH  21  23
ENDBRANCH  20  21
ENDBRANCH   1  20
TORSDOF 3
ENDMDL
MODEL 6
REMARK VINA RESULT:      -6.7      1.162      5.224
REMARK  Name = 
REMARK  3 active torsions:
REMARK  status: ('A' for Active; 'I' for Inactive)
REMARK    1  A    between atoms: O_1  and  C_2
REMARK    2  A    between atoms: C_2  and  C_4
REMARK    3  A    between atoms: C_4  and  C_5
REMARK                            x       y       z     vdW  Elec       q    Type
REMARK                         _______ _______ _______ _____ _____    ______ ____
ROOT
ATOM      1  C   UNL     1       8.487  -1.496  25.501  0.00  0.00    +0.013 A 
ATOM      2  C   UNL     1       8.978  -0.963  24.271  0.00  0.00    +0.006 A 
ATOM      3  C   UNL     1       9.779   0.167  23.985  0.00  0.00    +0.010 A 
ATOM      4  C   UNL     1      10.147   0.456  22.673  0.00  0.00    +0.001 A 
ATOM      5  C   UNL     1       9.725  -0.361  21.641  0.00  0.00    +0.002 A 
ATOM      6  C   UNL     1       8.922  -1.480  21.892  0.00  0.00    +0.027 A 
ATOM      7  C   UNL     1       8.542  -1.790  23.216  0.00  0.00    +0.056 A 
ATOM      8  N   UNL     1       7.772  -2.806  23.787  0.00  0.00    -0.295 N 
ATOM      9  C   UNL     1       7.097  -3.937  23.225  0.00  0.00    +0.061 A 
ATOM     10  C   UNL     1       6.397  -4.795  24.101  0.00  0.00    +0.063 A 
ATOM     11  C   UNL     1       5.727  -5.930  23.621  0.00  0.00    +0.015 A 
ATOM     12  C   UNL     1       5.746  -6.222  22.263  0.00  0.00    +0.001 A 
ATOM     13  C   UNL     1       6.429  -5.383  21.389  0.00  0.00    +0.002 A 
ATOM     14  C   UNL     1       6.351  -4.529  25.559  0.00  0.00    +0.259 A 
ATOM     15  O   UNL     1       5.773  -5.217  26.379  0.00  0.00    -0.267 OA
ATOM     16  N   UNL     1       7.052  -3.394  26.042  0.00  0.00    -0.308 N 
ATOM     17  H   UNL     1       6.995  -3.192  27.030  0.00  0.00    +0.170 HD
ATOM     18  C   UNL     1       7.100  -4.248  21.864  0.00  0.00    +0.027 A 
ATOM     19  C   UNL     1       7.736  -2.592  25.156  0.00  0.00    +0.123 A 
ENDROOT
BRANCH   1  20
ATOM     20  C   UNL     1       8.776  -0.950  26.867  0.00  0.00    +0.159 C 
BRANCH  20  21
ATOM     21  C   UNL     1       7.622  -0.155  27.434  0.00  0.00    +0.309 C 
ATOM     22  O   UNL     1       6.446  -0.369  27.178  0.00  0.00    -0.251 OA
BRANCH  21  23
ATOM     23  O   UNL     1       8.002   0.782  28.335  0.00  0.00    -0.480 OA
ATOM     24  H   UNL     1       7.407   0.911  29.099  0.00  0.00    +0.295 HD
ENDBRANCH  21  23
ENDBRANCH  20  21
ENDBRANCH   1  20
TORSDOF 3
ENDMDL
MODEL 7
REMARK VINA RESULT:      -6.5      3.555      7.012
REMARK  Name = 
REMARK  3 active torsions:
REMARK  status: ('A' for Active; 'I' for Inactive)
REMARK    1  A    between atoms: O_1  and  C_2
REMARK    2  A    between atoms: C_2  and  C_4
REMARK    3  A    between atoms: C_4  and  C_5
REMARK                            x       y       z     vdW  Elec       q    Type
REMARK                         _______ _______ _______ _____ _____    ______ ____
ROOT
ATOM      1  C   UNL     1       8.767   1.663  24.476  0.00  0.00    +0.013 A 
ATOM      2  C   UNL     1       7.963   1.848  25.641  0.00  0.00    +0.006 A 
ATOM      3  C   UNL     1       7.411   3.008  26.232  0.00  0.00    +0.010 A 
ATOM      4  C   UNL     1       6.623   2.910  27.376  0.00  0.00    +0.001 A 
ATOM      5  C   UNL     1       6.383   1.672  27.944  0.00  0.00    +0.002 A 
ATOM      6  C   UNL     1       6.925   0.507  27.389  0.00  0.00    +0.027 A 
ATOM      7  C   UNL     1       7.723   0.588  26.227  0.00  0.00    +0.056 A 
ATOM      8  N   UNL     1       8.390  -0.358  25.445  0.00  0.00    -0.295 N 
ATOM      9  C   UNL     1       8.488  -1.784  25.531  0.00  0.00    +0.061 A 
ATOM     10  C   UNL     1       9.255  -2.457  24.555  0.00  0.00    +0.063 A 
ATOM     11  C   UNL     1       9.380  -3.853  24.569  0.00  0.00    +0.015 A 
ATOM     12  C   UNL     1       8.744  -4.596  25.556  0.00  0.00    +0.001 A 
ATOM     13  C   UNL     1       7.988  -3.945  26.525  0.00  0.00    +0.002 A 
ATOM     14  C   UNL     1       9.950  -1.710  23.479  0.00  0.00    +0.259 A 
ATOM     15  O   UNL     1      10.627  -2.212  22.602  0.00  0.00    -0.267 OA
ATOM     16  N   UNL     1       9.799  -0.299  23.455  0.00  0.00    -0.308 N 
ATOM     17  H   UNL     1      10.298   0.215  22.743  0.00  0.00    +0.170 HD
ATOM     18  C   UNL     1       7.859  -2.550  26.515  0.00  0.00    +0.027 A 
ATOM     19  C   UNL     1       9.028   0.316  24.415  0.00  0.00    +0.123 A 
ENDROOT
BRANCH   1  20
ATOM     20  C   UNL     1       9.196   2.743  23.529  0.00  0.00    +0.159 C 
BRANCH  20  21
ATOM     21  C   UNL     1       8.507   2.650  22.187  0.00  0.00    +0.309 C 
ATOM     22  O   UNL     1       7.430   3.169  21.927  0.00  0.00    -0.251 OA
BRANCH  21  23
ATOM     23  O   UNL     1       9.236   2.002  21.248  0.00  0.00    -0.480 OA
ATOM     24  H   UNL     1      10.159   2.302  21.135  0.00  0.00    +0.295 HD
ENDBRANCH  21  23
ENDBRANCH  20  21
ENDBRANCH   1  20
TORSDOF 3
ENDMDL
MODEL 8
REMARK VINA RESULT:      -6.4      2.740      6.660
REMARK  Name = 
REMARK  3 active torsions:
REMARK  status: ('A' for Active; 'I' for Inactive)
REMARK    1  A    between atoms: O_1  and  C_2
REMARK    2  A    between atoms: C_2  and  C_4
REMARK    3  A    between atoms: C_4  and  C_5
REMARK                            x       y       z     vdW  Elec       q    Type
REMARK                         _______ _______ _______ _____ _____    ______ ____
ROOT
ATOM      1  C   UNL     1       8.595  -1.425  22.683  0.00  0.00    +0.013 A 
ATOM      2  C   UNL     1       8.873  -1.124  24.051  0.00  0.00    +0.006 A 
ATOM      3  C   UNL     1       9.648  -0.107  24.654  0.00  0.00    +0.010 A 
ATOM      4  C   UNL     1       9.735  -0.017  26.042  0.00  0.00    +0.001 A 
ATOM      5  C   UNL     1       9.067  -0.931  26.836  0.00  0.00    +0.002 A 
ATOM      6  C   UNL     1       8.302  -1.955  26.267  0.00  0.00    +0.027 A 
ATOM      7  C   UNL     1       8.199  -2.059  24.863  0.00  0.00    +0.056 A 
ATOM      8  N   UNL     1       7.533  -2.938  24.005  0.00  0.00    -0.295 N 
ATOM      9  C   UNL     1       6.678  -4.061  24.248  0.00  0.00    +0.061 A 
ATOM     10  C   UNL     1       6.151  -4.747  23.132  0.00  0.00    +0.063 A 
ATOM     11  C   UNL     1       5.293  -5.845  23.297  0.00  0.00    +0.015 A 
ATOM     12  C   UNL     1       4.953  -6.272  24.575  0.00  0.00    +0.001 A 
ATOM     13  C   UNL     1       5.469  -5.606  25.682  0.00  0.00    +0.002 A 
ATOM     14  C   UNL     1       6.481  -4.327  21.749  0.00  0.00    +0.259 A 
ATOM     15  O   UNL     1       6.068  -4.862  20.737  0.00  0.00    -0.267 OA
ATOM     16  N   UNL     1       7.328  -3.201  21.589  0.00  0.00    -0.308 N 
ATOM     17  H   UNL     1       7.580  -2.933  20.648  0.00  0.00    +0.170 HD
ATOM     18  C   UNL     1       6.325  -4.508  25.522  0.00  0.00    +0.027 A 
ATOM     19  C   UNL     1       7.807  -2.549  22.703  0.00  0.00    +0.123 A 
ENDROOT
BRANCH   1  20
ATOM     20  C   UNL     1       9.068  -0.634  21.501  0.00  0.00    +0.159 C 
BRANCH  20  21
ATOM     21  C   UNL     1       8.730   0.836  21.608  0.00  0.00    +0.309 C 
ATOM     22  O   UNL     1       7.615   1.270  21.859  0.00  0.00    -0.251 OA
BRANCH  21  23
ATOM     23  O   UNL     1       9.806   1.649  21.485  0.00  0.00    -0.480 OA
ATOM     24  H   UNL     1      10.566   1.450  22.065  0.00  0.00    +0.295 HD
ENDBRANCH  21  23
ENDBRANCH  20  21
ENDBRANCH   1  20
TORSDOF 3
ENDMDL
MODEL 9
REMARK VINA RESULT:      -6.4      2.614      6.364
REMARK  Name = 
REMARK  3 active torsions:
REMARK  status: ('A' for Active; 'I' for Inactive)
REMARK    1  A    between atoms: O_1  and  C_2
REMARK    2  A    between atoms: C_2  and  C_4
REMARK    3  A    between atoms: C_4  and  C_5
REMARK                            x       y       z     vdW  Elec       q    Type
REMARK                         _______ _______ _______ _____ _____    ______ ____
ROOT
ATOM      1  C   UNL     1       8.588  -2.579  24.278  0.00  0.00    +0.013 A 
ATOM      2  C   UNL     1       8.000  -1.776  25.302  0.00  0.00    +0.006 A 
ATOM      3  C   UNL     1       8.529  -0.746  26.114  0.00  0.00    +0.010 A 
ATOM      4  C   UNL     1       7.719  -0.090  27.037  0.00  0.00    +0.001 A 
ATOM      5  C   UNL     1       6.390  -0.450  27.167  0.00  0.00    +0.002 A 
ATOM      6  C   UNL     1       5.841  -1.473  26.386  0.00  0.00    +0.027 A 
ATOM      7  C   UNL     1       6.647  -2.147  25.443  0.00  0.00    +0.056 A 
ATOM      8  N   UNL     1       6.411  -3.180  24.533  0.00  0.00    -0.295 N 
ATOM      9  C   UNL     1       5.235  -3.930  24.208  0.00  0.00    +0.061 A 
ATOM     10  C   UNL     1       5.337  -4.926  23.212  0.00  0.00    +0.063 A 
ATOM     11  C   UNL     1       4.221  -5.685  22.832  0.00  0.00    +0.015 A 
ATOM     12  C   UNL     1       2.992  -5.462  23.440  0.00  0.00    +0.001 A 
ATOM     13  C   UNL     1       2.879  -4.486  24.425  0.00  0.00    +0.002 A 
ATOM     14  C   UNL     1       6.625  -5.198  22.531  0.00  0.00    +0.259 A 
ATOM     15  O   UNL     1       6.796  -6.034  21.664  0.00  0.00    -0.267 OA
ATOM     16  N   UNL     1       7.744  -4.409  22.901  0.00  0.00    -0.308 N 
ATOM     17  H   UNL     1       8.630  -4.615  22.462  0.00  0.00    +0.170 HD
ATOM     18  C   UNL     1       3.991  -3.724  24.807  0.00  0.00    +0.027 A 
ATOM     19  C   UNL     1       7.598  -3.436  23.865  0.00  0.00    +0.123 A 
ENDROOT
BRANCH   1  20
ATOM     20  C   UNL     1       9.995  -2.461  23.775  0.00  0.00    +0.159 C 
BRANCH  20  21
ATOM     21  C   UNL     1      10.177  -1.307  22.815  0.00  0.00    +0.309 C 
ATOM     22  O   UNL     1      10.476  -0.171  23.152  0.00  0.00    -0.251 OA
BRANCH  21  23
ATOM     23  O   UNL     1      10.061  -1.663  21.514  0.00  0.00    -0.480 OA
ATOM     24  H   UNL     1      10.888  -1.920  21.061  0.00  0.00    +0.295 HD
ENDBRANCH  21  23
ENDBRANCH  20  21
ENDBRANCH   1  20
TORSDOF 3
ENDMDL
