MODEL 1
REMARK VINA RESULT:      -2.9      0.000      0.000
REMARK  Name = 
REMARK  31 active torsions:
REMARK  status: ('A' for Active; 'I' for Inactive)
REMARK    1  A    between atoms: C_1  and  C_2
REMARK    2  A    between atoms: C_2  and  C_3
REMARK    3  A    between atoms: C_3  and  O_5
REMARK    4  A    between atoms: C_3  and  C_7
REMARK    5  A    between atoms: O_5  and  C_6
REMARK    6  A    between atoms: C_7  and  C_9
REMARK    7  A    between atoms: C_7  and  C_10
REMARK    8  A    between atoms: C_10  and  C_12
REMARK    9  A    between atoms: C_12  and  C_13
REMARK   10  A    between atoms: C_13  and  C_14
REMARK   11  A    between atoms: C_14  and  C_16
REMARK   12  A    between atoms: C_14  and  C_17
REMARK   13  A    between atoms: C_17  and  O_19
REMARK   14  A    between atoms: C_17  and  C_21
REMARK   15  A    between atoms: O_19  and  C_20
REMARK   16  A    between atoms: C_21  and  C_23
REMARK   17  A    between atoms: C_21  and  C_24
REMARK   18  A    between atoms: C_32  and  C_33
REMARK   19  A    between atoms: C_35  and  O_77
REMARK   20  A    between atoms: C_46  and  C_48
REMARK   21  A    between atoms: C_49  and  O_75
REMARK   22  A    between atoms: C_52  and  O_54
REMARK   23  A    between atoms: O_54  and  C_55
REMARK   24  A    between atoms: C_58  and  C_60
REMARK   25  A    between atoms: C_61  and  O_73
REMARK   26  A    between atoms: C_64  and  O_66
REMARK   27  A    between atoms: O_66  and  C_67
REMARK   28  A    between atoms: C_70  and  C_72
REMARK   29  A    between atoms: O_73  and  C_74
REMARK   30  A    between atoms: O_75  and  C_76
REMARK   31  A    between atoms: O_77  and  C_78
REMARK                            x       y       z     vdW  Elec       q    Type
REMARK                         _______ _______ _______ _____ _____    ______ ____
ROOT
ATOM      1  C   UNL     1       6.276  -2.515  25.427  0.00  0.00    +0.189 C 
ATOM      2  C   UNL     1       5.828  -1.324  26.375  0.00  0.00    +0.049 C 
ATOM      3  C   UNL     1       4.767  -1.750  27.359  0.00  0.00    +0.015 C 
ATOM      4  C   UNL     1       6.955  -0.519  27.065  0.00  0.00    -0.022 C 
ATOM      5  C   UNL     1       7.217   0.286  28.128  0.00  0.00    +0.000 C 
ATOM      6  C   UNL     1       6.356   1.454  28.579  0.00  0.00    +0.143 C 
ATOM      7  C   UNL     1       5.862   1.527  30.033  0.00  0.00    +0.068 C 
ATOM      8  C   UNL     1       4.518   0.826  30.218  0.00  0.00    +0.127 C 
ATOM      9  C   UNL     1       3.297   1.507  29.400  0.00  0.00    +0.037 C 
ATOM     10  C   UNL     1       2.947   2.827  30.098  0.00  0.00    +0.014 C 
ATOM     11  C   UNL     1       3.306   1.735  27.850  0.00  0.00    -0.023 C 
ATOM     12  C   UNL     1       2.930   2.787  27.058  0.00  0.00    +0.000 C 
ATOM     13  C   UNL     1       3.144   3.044  25.504  0.00  0.00    +0.143 C 
ATOM     14  C   UNL     1       2.172   4.059  24.803  0.00  0.00    +0.067 C 
ATOM     15  C   UNL     1       2.553   4.667  23.375  0.00  0.00    +0.127 C 
ATOM     16  C   UNL     1       3.480   5.942  23.350  0.00  0.00    +0.056 C 
ATOM     17  C   UNL     1       2.798   7.108  24.096  0.00  0.00    +0.014 C 
ATOM     18  C   UNL     1       4.859   5.621  23.971  0.00  0.00    +0.186 C 
ATOM     19  C   UNL     1       6.016   6.642  23.850  0.00  0.00    +0.076 C 
ATOM     20  C   UNL     1       6.847   6.729  25.111  0.00  0.00    -0.057 C 
ATOM     21  C   UNL     1       6.310   6.467  26.308  0.00  0.00    +0.091 C 
ATOM     22  C   UNL     1       4.965   5.946  26.457  0.00  0.00    +0.332 C 
ATOM     23  O   UNL     1       4.376   5.950  27.525  0.00  0.00    -0.246 OA
ATOM     24  C   UNL     1       8.311   7.108  25.061  0.00  0.00    +0.063 C 
ATOM     25  C   UNL     1       9.390   6.062  24.655  0.00  0.00    +0.126 C 
ATOM     26  C   UNL     1       9.487   4.677  25.402  0.00  0.00    +0.062 C 
ATOM     27  C   UNL     1       8.847   3.398  24.839  0.00  0.00    -0.070 C 
ATOM     28  C   UNL     1       7.436   3.536  24.366  0.00  0.00    +0.039 C 
ATOM     29  C   UNL     1       9.423   2.166  24.838  0.00  0.00    -0.001 C 
ATOM     30  C   UNL     1       8.748   1.018  24.232  0.00  0.00    +0.007 C 
ATOM     31  C   UNL     1       8.880  -0.300  24.466  0.00  0.00    +0.091 C 
ATOM     32  C   UNL     1       7.690  -1.121  24.037  0.00  0.00    +0.332 C 
ATOM     33  O   UNL     1       6.813  -0.713  23.292  0.00  0.00    -0.246 OA
ATOM     34  O   UNL     1       4.480   5.393  25.367  0.00  0.00    -0.458 OA
ATOM     35  O   UNL     1       7.578  -2.227  24.812  0.00  0.00    -0.457 OA
ENDROOT
BRANCH   1  36
ATOM     36  C   UNL     1       5.200  -3.291  24.493  0.00  0.00    +0.056 C 
ATOM     37  C   UNL     1       5.775  -3.641  23.107  0.00  0.00    +0.014 C 
BRANCH  36  38
ATOM     38  C   UNL     1       4.059  -4.345  24.923  0.00  0.00    +0.127 C 
BRANCH  38  39
ATOM     39  O   UNL     1       3.306  -4.540  23.701  0.00  0.00    -0.379 OA
ATOM     40  C   UNL     1       1.954  -4.938  23.823  0.00  0.00    +0.194 C 
ENDBRANCH  38  39
BRANCH  38  41
ATOM     41  C   UNL     1       4.306  -5.741  25.612  0.00  0.00    +0.016 C 
ATOM     42  C   UNL     1       4.826  -6.795  24.574  0.00  0.00    +0.010 C 
BRANCH  41  43
ATOM     43  C   UNL     1       5.226  -5.955  26.866  0.00  0.00    +0.013 C 
BRANCH  43  44
ATOM     44  C   UNL     1       4.871  -5.345  28.226  0.00  0.00    +0.075 C 
BRANCH  44  45
ATOM     45  C   UNL     1       3.952  -6.219  29.089  0.00  0.00    +0.139 C 
ATOM     46  O   UNL     1       4.354  -7.304  29.506  0.00  0.00    -0.297 OA
BRANCH  45  47
ATOM     47  C   UNL     1       2.521  -5.752  29.446  0.00  0.00    +0.081 C 
ATOM     48  C   UNL     1       1.908  -6.790  30.342  0.00  0.00    +0.018 C 
BRANCH  47  49
ATOM     49  C   UNL     1       1.592  -5.420  28.254  0.00  0.00    +0.128 C 
BRANCH  49  50
ATOM     50  O   UNL     1       0.752  -4.299  28.542  0.00  0.00    -0.379 OA
ATOM     51  C   UNL     1       1.334  -3.043  28.212  0.00  0.00    +0.194 C 
ENDBRANCH  49  50
BRANCH  49  53
ATOM     52  C   UNL     1       1.461  -7.543  26.808  0.00  0.00    +0.006 C 
ATOM     53  C   UNL     1       0.731  -6.622  27.778  0.00  0.00    +0.029 C 
ENDBRANCH  49  53
ENDBRANCH  47  49
ENDBRANCH  45  47
ENDBRANCH  44  45
ENDBRANCH  43  44
ENDBRANCH  41  43
ENDBRANCH  38  41
ENDBRANCH  36  38
ENDBRANCH   1  36
BRANCH  25  54
ATOM     54  O   UNL     1       9.392   5.938  23.230  0.00  0.00    -0.379 OA
ATOM     55  C   UNL     1      10.695   5.675  22.723  0.00  0.00    +0.194 C 
ENDBRANCH  25  54
BRANCH  15  56
ATOM     56  O   UNL     1       3.072   3.637  22.519  0.00  0.00    -0.379 OA
ATOM     57  C   UNL     1       2.629   3.681  21.167  0.00  0.00    +0.194 C 
ENDBRANCH  15  56
BRANCH  13  58
ATOM     58  O   UNL     1       3.099   1.894  24.679  0.00  0.00    -0.376 OA
ATOM     59  C   UNL     1       4.362   1.354  24.461  0.00  0.00    +0.194 C 
ENDBRANCH  13  58
BRANCH   8  60
ATOM     60  O   UNL     1       4.859  -0.544  30.010  0.00  0.00    -0.379 OA
ATOM     61  C   UNL     1       4.011  -1.562  30.485  0.00  0.00    +0.194 C 
ENDBRANCH   8  60
BRANCH   6  62
ATOM     62  O   UNL     1       6.980   2.673  28.129  0.00  0.00    -0.376 OA
ATOM     63  C   UNL     1       6.848   3.826  28.939  0.00  0.00    +0.194 C 
ENDBRANCH   6  62
TORSDOF 16
ENDMDL
MODEL 2
REMARK VINA RESULT:      -2.4      2.036      4.193
REMARK  Name = 
REMARK  31 active torsions:
REMARK  status: ('A' for Active; 'I' for Inactive)
REMARK    1  A    between atoms: C_1  and  C_2
REMARK    2  A    between atoms: C_2  and  C_3
REMARK    3  A    between atoms: C_3  and  O_5
REMARK    4  A    between atoms: C_3  and  C_7
REMARK    5  A    between atoms: O_5  and  C_6
REMARK    6  A    between atoms: C_7  and  C_9
REMARK    7  A    between atoms: C_7  and  C_10
REMARK    8  A    between atoms: C_10  and  C_12
REMARK    9  A    between atoms: C_12  and  C_13
REMARK   10  A    between atoms: C_13  and  C_14
REMARK   11  A    between atoms: C_14  and  C_16
REMARK   12  A    between atoms: C_14  and  C_17
REMARK   13  A    between atoms: C_17  and  O_19
REMARK   14  A    between atoms: C_17  and  C_21
REMARK   15  A    between atoms: O_19  and  C_20
REMARK   16  A    between atoms: C_21  and  C_23
REMARK   17  A    between atoms: C_21  and  C_24
REMARK   18  A    between atoms: C_32  and  C_33
REMARK   19  A    between atoms: C_35  and  O_77
REMARK   20  A    between atoms: C_46  and  C_48
REMARK   21  A    between atoms: C_49  and  O_75
REMARK   22  A    between atoms: C_52  and  O_54
REMARK   23  A    between atoms: O_54  and  C_55
REMARK   24  A    between atoms: C_58  and  C_60
REMARK   25  A    between atoms: C_61  and  O_73
REMARK   26  A    between atoms: C_64  and  O_66
REMARK   27  A    between atoms: O_66  and  C_67
REMARK   28  A    between atoms: C_70  and  C_72
REMARK   29  A    between atoms: O_73  and  C_74
REMARK   30  A    between atoms: O_75  and  C_76
REMARK   31  A    between atoms: O_77  and  C_78
REMARK                            x       y       z     vdW  Elec       q    Type
REMARK                         _______ _______ _______ _____ _____    ______ ____
ROOT
ATOM      1  C   UNL     1       2.688  -1.101  28.315  0.00  0.00    +0.189 C 
ATOM      2  C   UNL     1       2.590   0.482  28.281  0.00  0.00    +0.049 C 
ATOM      3  C   UNL     1       1.388   0.993  29.035  0.00  0.00    +0.015 C 
ATOM      4  C   UNL     1       3.871   1.270  28.648  0.00  0.00    -0.022 C 
ATOM      5  C   UNL     1       4.311   2.474  29.097  0.00  0.00    +0.000 C 
ATOM      6  C   UNL     1       3.846   3.827  28.582  0.00  0.00    +0.143 C 
ATOM      7  C   UNL     1       3.311   4.880  29.565  0.00  0.00    +0.068 C 
ATOM      8  C   UNL     1       1.803   4.755  29.775  0.00  0.00    +0.127 C 
ATOM      9  C   UNL     1       0.924   5.039  28.446  0.00  0.00    +0.037 C 
ATOM     10  C   UNL     1       0.975   6.546  28.166  0.00  0.00    +0.014 C 
ATOM     11  C   UNL     1       1.104   4.262  27.097  0.00  0.00    -0.023 C 
ATOM     12  C   UNL     1       1.140   4.659  25.788  0.00  0.00    +0.000 C 
ATOM     13  C   UNL     1       1.524   3.857  24.470  0.00  0.00    +0.143 C 
ATOM     14  C   UNL     1       0.979   4.412  23.106  0.00  0.00    +0.067 C 
ATOM     15  C   UNL     1       1.626   3.917  21.731  0.00  0.00    +0.127 C 
ATOM     16  C   UNL     1       2.915   4.667  21.221  0.00  0.00    +0.056 C 
ATOM     17  C   UNL     1       2.601   6.159  20.984  0.00  0.00    +0.014 C 
ATOM     18  C   UNL     1       4.073   4.502  22.231  0.00  0.00    +0.186 C 
ATOM     19  C   UNL     1       5.504   4.950  21.845  0.00  0.00    +0.076 C 
ATOM     20  C   UNL     1       6.236   5.606  22.995  0.00  0.00    -0.057 C 
ATOM     21  C   UNL     1       5.568   6.257  23.953  0.00  0.00    +0.091 C 
ATOM     22  C   UNL     1       4.120   6.246  24.034  0.00  0.00    +0.332 C 
ATOM     23  O   UNL     1       3.497   7.032  24.728  0.00  0.00    -0.246 OA
ATOM     24  C   UNL     1       7.744   5.543  23.102  0.00  0.00    +0.063 C 
ATOM     25  C   UNL     1       8.451   4.263  23.637  0.00  0.00    +0.126 C 
ATOM     26  C   UNL     1       8.047   3.647  25.031  0.00  0.00    +0.062 C 
ATOM     27  C   UNL     1       7.066   2.470  25.150  0.00  0.00    -0.070 C 
ATOM     28  C   UNL     1       5.807   2.595  24.352  0.00  0.00    +0.039 C 
ATOM     29  C   UNL     1       7.211   1.407  25.986  0.00  0.00    -0.001 C 
ATOM     30  C   UNL     1       6.241   0.311  25.989  0.00  0.00    +0.007 C 
ATOM     31  C   UNL     1       5.925  -0.576  26.950  0.00  0.00    +0.091 C 
ATOM     32  C   UNL     1       4.563  -1.202  26.781  0.00  0.00    +0.332 C 
ATOM     33  O   UNL     1       3.914  -1.155  25.748  0.00  0.00    -0.246 OA
ATOM     34  O   UNL     1       3.554   5.266  23.367  0.00  0.00    -0.458 OA
ATOM     35  O   UNL     1       4.050  -1.543  27.988  0.00  0.00    -0.457 OA
ENDROOT
BRANCH   1  36
ATOM     36  C   UNL     1       1.481  -2.026  27.751  0.00  0.00    +0.056 C 
ATOM     37  C   UNL     1       0.624  -1.292  26.702  0.00  0.00    +0.014 C 
BRANCH  36  38
ATOM     38  C   UNL     1       1.457  -3.617  27.499  0.00  0.00    +0.127 C 
BRANCH  38  39
ATOM     39  O   UNL     1       0.639  -4.117  28.585  0.00  0.00    -0.379 OA
ATOM     40  C   UNL     1       1.066  -5.298  29.235  0.00  0.00    +0.194 C 
ENDBRANCH  38  39
BRANCH  38  41
ATOM     41  C   UNL     1       1.036  -4.332  26.158  0.00  0.00    +0.016 C 
ATOM     42  C   UNL     1       1.401  -3.451  24.914  0.00  0.00    +0.010 C 
BRANCH  41  43
ATOM     43  C   UNL     1       1.492  -5.778  25.749  0.00  0.00    +0.013 C 
BRANCH  43  44
ATOM     44  C   UNL     1       2.159  -6.048  24.396  0.00  0.00    +0.075 C 
BRANCH  44  45
ATOM     45  C   UNL     1       3.529  -6.729  24.493  0.00  0.00    +0.139 C 
ATOM     46  O   UNL     1       3.601  -7.954  24.559  0.00  0.00    -0.297 OA
BRANCH  45  47
ATOM     47  C   UNL     1       4.831  -5.892  24.506  0.00  0.00    +0.081 C 
ATOM     48  C   UNL     1       5.173  -5.596  25.938  0.00  0.00    +0.018 C 
BRANCH  47  49
ATOM     49  C   UNL     1       4.823  -4.601  23.653  0.00  0.00    +0.128 C 
BRANCH  49  50
ATOM     50  O   UNL     1       4.834  -4.899  22.254  0.00  0.00    -0.379 OA
ATOM     51  C   UNL     1       5.907  -5.744  21.852  0.00  0.00    +0.194 C 
ENDBRANCH  49  50
BRANCH  49  53
ATOM     52  C   UNL     1       6.071  -2.438  23.035  0.00  0.00    +0.006 C 
ATOM     53  C   UNL     1       5.976  -3.617  23.996  0.00  0.00    +0.029 C 
ENDBRANCH  49  53
ENDBRANCH  47  49
ENDBRANCH  45  47
ENDBRANCH  44  45
ENDBRANCH  43  44
ENDBRANCH  41  43
ENDBRANCH  38  41
ENDBRANCH  36  38
ENDBRANCH   1  36
BRANCH  25  54
ATOM     54  O   UNL     1       8.503   3.296  22.584  0.00  0.00    -0.379 OA
ATOM     55  C   UNL     1       9.685   2.507  22.648  0.00  0.00    +0.194 C 
ENDBRANCH  25  54
BRANCH  15  56
ATOM     56  O   UNL     1       1.837   2.496  21.765  0.00  0.00    -0.379 OA
ATOM     57  C   UNL     1       0.701   1.699  21.451  0.00  0.00    +0.194 C 
ENDBRANCH  15  56
BRANCH  13  58
ATOM     58  O   UNL     1       1.162   2.488  24.457  0.00  0.00    -0.376 OA
ATOM     59  C   UNL     1       0.458   2.120  25.598  0.00  0.00    +0.194 C 
ENDBRANCH  13  58
BRANCH   8  60
ATOM     60  O   UNL     1       1.696   3.512  30.468  0.00  0.00    -0.379 OA
ATOM     61  C   UNL     1       0.476   2.811  30.474  0.00  0.00    +0.194 C 
ENDBRANCH   8  60
BRANCH   6  62
ATOM     62  O   UNL     1       4.858   4.341  27.693  0.00  0.00    -0.376 OA
ATOM     63  C   UNL     1       6.102   4.722  28.251  0.00  0.00    +0.194 C 
ENDBRANCH   6  62
TORSDOF 16
ENDMDL
MODEL 3
REMARK VINA RESULT:      -2.3      2.042      3.935
REMARK  Name = 
REMARK  31 active torsions:
REMARK  status: ('A' for Active; 'I' for Inactive)
REMARK    1  A    between atoms: C_1  and  C_2
REMARK    2  A    between atoms: C_2  and  C_3
REMARK    3  A    between atoms: C_3  and  O_5
REMARK    4  A    between atoms: C_3  and  C_7
REMARK    5  A    between atoms: O_5  and  C_6
REMARK    6  A    between atoms: C_7  and  C_9
REMARK    7  A    between atoms: C_7  and  C_10
REMARK    8  A    between atoms: C_10  and  C_12
REMARK    9  A    between atoms: C_12  and  C_13
REMARK   10  A    between atoms: C_13  and  C_14
REMARK   11  A    between atoms: C_14  and  C_16
REMARK   12  A    between atoms: C_14  and  C_17
REMARK   13  A    between atoms: C_17  and  O_19
REMARK   14  A    between atoms: C_17  and  C_21
REMARK   15  A    between atoms: O_19  and  C_20
REMARK   16  A    between atoms: C_21  and  C_23
REMARK   17  A    between atoms: C_21  and  C_24
REMARK   18  A    between atoms: C_32  and  C_33
REMARK   19  A    between atoms: C_35  and  O_77
REMARK   20  A    between atoms: C_46  and  C_48
REMARK   21  A    between atoms: C_49  and  O_75
REMARK   22  A    between atoms: C_52  and  O_54
REMARK   23  A    between atoms: O_54  and  C_55
REMARK   24  A    between atoms: C_58  and  C_60
REMARK   25  A    between atoms: C_61  and  O_73
REMARK   26  A    between atoms: C_64  and  O_66
REMARK   27  A    between atoms: O_66  and  C_67
REMARK   28  A    between atoms: C_70  and  C_72
REMARK   29  A    between atoms: O_73  and  C_74
REMARK   30  A    between atoms: O_75  and  C_76
REMARK   31  A    between atoms: O_77  and  C_78
REMARK                            x       y       z     vdW  Elec       q    Type
REMARK                         _______ _______ _______ _____ _____    ______ ____
ROOT
ATOM      1  C   UNL     1       3.962  -1.625  27.391  0.00  0.00    +0.189 C 
ATOM      2  C   UNL     1       3.483  -0.150  27.724  0.00  0.00    +0.049 C 
ATOM      3  C   UNL     1       2.175  -0.135  28.476  0.00  0.00    +0.015 C 
ATOM      4  C   UNL     1       4.524   0.794  28.373  0.00  0.00    -0.022 C 
ATOM      5  C   UNL     1       4.647   1.915  29.129  0.00  0.00    +0.000 C 
ATOM      6  C   UNL     1       3.879   3.210  28.912  0.00  0.00    +0.143 C 
ATOM      7  C   UNL     1       3.081   3.831  30.069  0.00  0.00    +0.068 C 
ATOM      8  C   UNL     1       1.645   3.315  30.117  0.00  0.00    +0.127 C 
ATOM      9  C   UNL     1       0.754   3.711  28.825  0.00  0.00    +0.037 C 
ATOM     10  C   UNL     1       0.443   5.211  28.915  0.00  0.00    +0.014 C 
ATOM     11  C   UNL     1       1.150   3.359  27.351  0.00  0.00    -0.023 C 
ATOM     12  C   UNL     1       1.119   4.068  26.180  0.00  0.00    +0.000 C 
ATOM     13  C   UNL     1       1.718   3.731  24.746  0.00  0.00    +0.143 C 
ATOM     14  C   UNL     1       1.086   4.469  23.512  0.00  0.00    +0.067 C 
ATOM     15  C   UNL     1       1.867   4.495  22.118  0.00  0.00    +0.127 C 
ATOM     16  C   UNL     1       2.946   5.625  21.909  0.00  0.00    +0.056 C 
ATOM     17  C   UNL     1       2.283   7.015  22.006  0.00  0.00    +0.014 C 
ATOM     18  C   UNL     1       4.085   5.483  22.943  0.00  0.00    +0.186 C 
ATOM     19  C   UNL     1       5.372   6.330  22.794  0.00  0.00    +0.076 C 
ATOM     20  C   UNL     1       5.896   6.828  24.124  0.00  0.00    -0.057 C 
ATOM     21  C   UNL     1       5.067   7.047  25.150  0.00  0.00    +0.091 C 
ATOM     22  C   UNL     1       3.664   6.685  25.105  0.00  0.00    +0.332 C 
ATOM     23  O   UNL     1       2.852   7.107  25.912  0.00  0.00    -0.246 OA
ATOM     24  C   UNL     1       7.371   7.089  24.338  0.00  0.00    +0.063 C 
ATOM     25  C   UNL     1       8.355   5.914  24.611  0.00  0.00    +0.126 C 
ATOM     26  C   UNL     1       8.080   4.893  25.781  0.00  0.00    +0.062 C 
ATOM     27  C   UNL     1       7.412   3.531  25.536  0.00  0.00    -0.070 C 
ATOM     28  C   UNL     1       6.181   3.558  24.689  0.00  0.00    +0.039 C 
ATOM     29  C   UNL     1       7.792   2.356  26.106  0.00  0.00    -0.001 C 
ATOM     30  C   UNL     1       7.118   1.101  25.769  0.00  0.00    +0.007 C 
ATOM     31  C   UNL     1       7.005  -0.046  26.462  0.00  0.00    +0.091 C 
ATOM     32  C   UNL     1       5.841  -0.905  26.038  0.00  0.00    +0.332 C 
ATOM     33  O   UNL     1       5.225  -0.753  24.995  0.00  0.00    -0.246 OA
ATOM     34  O   UNL     1       3.369   5.798  24.180  0.00  0.00    -0.458 OA
ATOM     35  O   UNL     1       5.398  -1.646  27.083  0.00  0.00    -0.457 OA
ENDROOT
BRANCH   1  36
ATOM     36  C   UNL     1       3.030  -2.632  26.526  0.00  0.00    +0.056 C 
ATOM     37  C   UNL     1       2.169  -1.884  25.489  0.00  0.00    +0.014 C 
BRANCH  36  38
ATOM     38  C   UNL     1       3.346  -4.133  26.032  0.00  0.00    +0.127 C 
BRANCH  38  39
ATOM     39  O   UNL     1       2.198  -4.886  26.494  0.00  0.00    -0.379 OA
ATOM     40  C   UNL     1       2.441  -6.139  27.105  0.00  0.00    +0.194 C 
ENDBRANCH  38  39
BRANCH  38  41
ATOM     41  C   UNL     1       3.693  -4.565  24.556  0.00  0.00    +0.016 C 
ATOM     42  C   UNL     1       2.409  -5.048  23.797  0.00  0.00    +0.010 C 
BRANCH  41  43
ATOM     43  C   UNL     1       4.427  -3.644  23.517  0.00  0.00    +0.013 C 
BRANCH  43  44
ATOM     44  C   UNL     1       5.294  -4.237  22.403  0.00  0.00    +0.075 C 
BRANCH  44  45
ATOM     45  C   UNL     1       6.770  -4.413  22.777  0.00  0.00    +0.139 C 
ATOM     46  O   UNL     1       7.524  -5.030  22.026  0.00  0.00    -0.297 OA
BRANCH  45  47
ATOM     47  C   UNL     1       7.330  -3.823  24.094  0.00  0.00    +0.081 C 
ATOM     48  C   UNL     1       8.433  -2.867  23.737  0.00  0.00    +0.018 C 
BRANCH  47  49
ATOM     49  C   UNL     1       7.794  -4.844  25.159  0.00  0.00    +0.128 C 
BRANCH  49  50
ATOM     50  O   UNL     1       7.686  -4.308  26.480  0.00  0.00    -0.379 OA
ATOM     51  C   UNL     1       6.647  -4.893  27.257  0.00  0.00    +0.194 C 
ENDBRANCH  49  50
BRANCH  49  53
ATOM     52  C   UNL     1      10.221  -4.971  26.003  0.00  0.00    +0.006 C 
ATOM     53  C   UNL     1       9.230  -5.387  24.921  0.00  0.00    +0.029 C 
ENDBRANCH  49  53
ENDBRANCH  47  49
ENDBRANCH  45  47
ENDBRANCH  44  45
ENDBRANCH  43  44
ENDBRANCH  41  43
ENDBRANCH  38  41
ENDBRANCH  36  38
ENDBRANCH   1  36
BRANCH  25  54
ATOM     54  O   UNL     1       8.665   5.280  23.368  0.00  0.00    -0.379 OA
ATOM     55  C   UNL     1       9.839   5.823  22.775  0.00  0.00    +0.194 C 
ENDBRANCH  25  54
BRANCH  15  56
ATOM     56  O   UNL     1       2.416   3.199  21.832  0.00  0.00    -0.379 OA
ATOM     57  C   UNL     1       1.725   2.443  20.844  0.00  0.00    +0.194 C 
ENDBRANCH  15  56
BRANCH  13  58
ATOM     58  O   UNL     1       1.700   2.363  24.379  0.00  0.00    -0.376 OA
ATOM     59  C   UNL     1       0.801   1.627  25.143  0.00  0.00    +0.194 C 
ENDBRANCH  13  58
BRANCH   8  60
ATOM     60  O   UNL     1       1.826   1.948  30.485  0.00  0.00    -0.379 OA
ATOM     61  C   UNL     1       0.792   1.017  30.276  0.00  0.00    +0.194 C 
ENDBRANCH   8  60
BRANCH   6  62
ATOM     62  O   UNL     1       4.756   4.148  28.258  0.00  0.00    -0.376 OA
ATOM     63  C   UNL     1       4.708   5.501  28.668  0.00  0.00    +0.194 C 
ENDBRANCH   6  62
TORSDOF 16
ENDMDL
MODEL 4
REMARK VINA RESULT:      -2.1      1.131      2.066
REMARK  Name = 
REMARK  31 active torsions:
REMARK  status: ('A' for Active; 'I' for Inactive)
REMARK    1  A    between atoms: C_1  and  C_2
REMARK    2  A    between atoms: C_2  and  C_3
REMARK    3  A    between atoms: C_3  and  O_5
REMARK    4  A    between atoms: C_3  and  C_7
REMARK    5  A    between atoms: O_5  and  C_6
REMARK    6  A    between atoms: C_7  and  C_9
REMARK    7  A    between atoms: C_7  and  C_10
REMARK    8  A    between atoms: C_10  and  C_12
REMARK    9  A    between atoms: C_12  and  C_13
REMARK   10  A    between atoms: C_13  and  C_14
REMARK   11  A    between atoms: C_14  and  C_16
REMARK   12  A    between atoms: C_14  and  C_17
REMARK   13  A    between atoms: C_17  and  O_19
REMARK   14  A    between atoms: C_17  and  C_21
REMARK   15  A    between atoms: O_19  and  C_20
REMARK   16  A    between atoms: C_21  and  C_23
REMARK   17  A    between atoms: C_21  and  C_24
REMARK   18  A    between atoms: C_32  and  C_33
REMARK   19  A    between atoms: C_35  and  O_77
REMARK   20  A    between atoms: C_46  and  C_48
REMARK   21  A    between atoms: C_49  and  O_75
REMARK   22  A    between atoms: C_52  and  O_54
REMARK   23  A    between atoms: O_54  and  C_55
REMARK   24  A    between atoms: C_58  and  C_60
REMARK   25  A    between atoms: C_61  and  O_73
REMARK   26  A    between atoms: C_64  and  O_66
REMARK   27  A    between atoms: O_66  and  C_67
REMARK   28  A    between atoms: C_70  and  C_72
REMARK   29  A    between atoms: O_73  and  C_74
REMARK   30  A    between atoms: O_75  and  C_76
REMARK   31  A    between atoms: O_77  and  C_78
REMARK                            x       y       z     vdW  Elec       q    Type
REMARK                         _______ _______ _______ _____ _____    ______ ____
ROOT
ATOM      1  C   UNL     1       6.854  -2.528  25.711  0.00  0.00    +0.189 C 
ATOM      2  C   UNL     1       6.346  -1.289  26.562  0.00  0.00    +0.049 C 
ATOM      3  C   UNL     1       5.272  -1.679  27.547  0.00  0.00    +0.015 C 
ATOM      4  C   UNL     1       7.431  -0.402  27.221  0.00  0.00    -0.022 C 
ATOM      5  C   UNL     1       7.640   0.481  28.230  0.00  0.00    +0.000 C 
ATOM      6  C   UNL     1       6.733   1.651  28.578  0.00  0.00    +0.143 C 
ATOM      7  C   UNL     1       6.200   1.809  30.010  0.00  0.00    +0.068 C 
ATOM      8  C   UNL     1       4.872   1.081  30.211  0.00  0.00    +0.127 C 
ATOM      9  C   UNL     1       3.654   1.665  29.318  0.00  0.00    +0.037 C 
ATOM     10  C   UNL     1       3.246   3.018  29.914  0.00  0.00    +0.014 C 
ATOM     11  C   UNL     1       3.697   1.785  27.757  0.00  0.00    -0.023 C 
ATOM     12  C   UNL     1       3.311   2.767  26.884  0.00  0.00    +0.000 C 
ATOM     13  C   UNL     1       3.559   2.922  25.321  0.00  0.00    +0.143 C 
ATOM     14  C   UNL     1       2.575   3.855  24.528  0.00  0.00    +0.067 C 
ATOM     15  C   UNL     1       2.976   4.374  23.070  0.00  0.00    +0.127 C 
ATOM     16  C   UNL     1       3.865   5.672  22.978  0.00  0.00    +0.056 C 
ATOM     17  C   UNL     1       3.129   6.865  23.624  0.00  0.00    +0.014 C 
ATOM     18  C   UNL     1       5.236   5.439  23.654  0.00  0.00    +0.186 C 
ATOM     19  C   UNL     1       6.365   6.484  23.489  0.00  0.00    +0.076 C 
ATOM     20  C   UNL     1       7.160   6.685  24.761  0.00  0.00    -0.057 C 
ATOM     21  C   UNL     1       6.599   6.490  25.959  0.00  0.00    +0.091 C 
ATOM     22  C   UNL     1       5.267   5.938  26.112  0.00  0.00    +0.332 C 
ATOM     23  O   UNL     1       4.649   5.998  27.163  0.00  0.00    -0.246 OA
ATOM     24  C   UNL     1       8.613   7.105  24.720  0.00  0.00    +0.063 C 
ATOM     25  C   UNL     1       9.733   6.068  24.415  0.00  0.00    +0.126 C 
ATOM     26  C   UNL     1       9.850   4.742  25.259  0.00  0.00    +0.062 C 
ATOM     27  C   UNL     1       9.264   3.408  24.772  0.00  0.00    -0.070 C 
ATOM     28  C   UNL     1       7.862   3.468  24.257  0.00  0.00    +0.039 C 
ATOM     29  C   UNL     1       9.876   2.197  24.871  0.00  0.00    -0.001 C 
ATOM     30  C   UNL     1       9.251   0.989  24.331  0.00  0.00    +0.007 C 
ATOM     31  C   UNL     1       9.416  -0.305  24.660  0.00  0.00    +0.091 C 
ATOM     32  C   UNL     1       8.263  -1.190  24.261  0.00  0.00    +0.332 C 
ATOM     33  O   UNL     1       7.394  -0.862  23.469  0.00  0.00    -0.246 OA
ATOM     34  O   UNL     1       4.828   5.297  25.052  0.00  0.00    -0.458 OA
ATOM     35  O   UNL     1       8.163  -2.243  25.109  0.00  0.00    -0.457 OA
ENDROOT
BRANCH   1  36
ATOM     36  C   UNL     1       5.826  -3.400  24.808  0.00  0.00    +0.056 C 
ATOM     37  C   UNL     1       4.494  -2.664  24.565  0.00  0.00    +0.014 C 
BRANCH  36  38
ATOM     38  C   UNL     1       6.150  -4.414  23.598  0.00  0.00    +0.127 C 
BRANCH  38  39
ATOM     39  O   UNL     1       6.865  -5.493  24.248  0.00  0.00    -0.379 OA
ATOM     40  C   UNL     1       8.239  -5.297  24.517  0.00  0.00    +0.194 C 
ENDBRANCH  38  39
BRANCH  38  41
ATOM     41  C   UNL     1       5.095  -5.018  22.594  0.00  0.00    +0.016 C 
ATOM     42  C   UNL     1       5.805  -5.638  21.341  0.00  0.00    +0.010 C 
BRANCH  41  43
ATOM     43  C   UNL     1       4.015  -6.087  22.988  0.00  0.00    +0.013 C 
BRANCH  43  44
ATOM     44  C   UNL     1       3.840  -6.544  24.439  0.00  0.00    +0.075 C 
BRANCH  44  45
ATOM     45  C   UNL     1       2.411  -6.963  24.802  0.00  0.00    +0.139 C 
ATOM     46  O   UNL     1       1.643  -7.348  23.922  0.00  0.00    -0.297 OA
BRANCH  45  47
ATOM     47  C   UNL     1       1.917  -6.909  26.268  0.00  0.00    +0.081 C 
ATOM     48  C   UNL     1       0.443  -7.199  26.267  0.00  0.00    +0.018 C 
BRANCH  47  49
ATOM     49  C   UNL     1       2.234  -5.613  27.050  0.00  0.00    +0.128 C 
BRANCH  49  50
ATOM     50  O   UNL     1       3.165  -5.855  28.108  0.00  0.00    -0.379 OA
ATOM     51  C   UNL     1       4.486  -5.406  27.828  0.00  0.00    +0.194 C 
ENDBRANCH  49  50
BRANCH  49  53
ATOM     52  C   UNL     1       0.619  -3.622  26.839  0.00  0.00    +0.006 C 
ATOM     53  C   UNL     1       0.975  -4.892  27.604  0.00  0.00    +0.029 C 
ENDBRANCH  49  53
ENDBRANCH  47  49
ENDBRANCH  45  47
ENDBRANCH  44  45
ENDBRANCH  43  44
ENDBRANCH  41  43
ENDBRANCH  38  41
ENDBRANCH  36  38
ENDBRANCH   1  36
BRANCH  25  54
ATOM     54  O   UNL     1       9.776   5.845  23.003  0.00  0.00    -0.379 OA
ATOM     55  C   UNL     1      11.088   5.525  22.557  0.00  0.00    +0.194 C 
ENDBRANCH  25  54
BRANCH  15  56
ATOM     56  O   UNL     1       3.547   3.303  22.301  0.00  0.00    -0.379 OA
ATOM     57  C   UNL     1       2.803   2.904  21.156  0.00  0.00    +0.194 C 
ENDBRANCH  15  56
BRANCH  13  58
ATOM     58  O   UNL     1       3.569   1.717  24.578  0.00  0.00    -0.376 OA
ATOM     59  C   UNL     1       4.838   1.151  24.513  0.00  0.00    +0.194 C 
ENDBRANCH  13  58
BRANCH   8  60
ATOM     60  O   UNL     1       5.259  -0.289  30.109  0.00  0.00    -0.379 OA
ATOM     61  C   UNL     1       4.361  -1.306  30.484  0.00  0.00    +0.194 C 
ENDBRANCH   8  60
BRANCH   6  62
ATOM     62  O   UNL     1       7.332   2.854  28.059  0.00  0.00    -0.376 OA
ATOM     63  C   UNL     1       7.061   4.073  28.725  0.00  0.00    +0.194 C 
ENDBRANCH   6  62
TORSDOF 16
ENDMDL
MODEL 5
REMARK VINA RESULT:      -2.1      2.265      6.103
REMARK  Name = 
REMARK  31 active torsions:
REMARK  status: ('A' for Active; 'I' for Inactive)
REMARK    1  A    between atoms: C_1  and  C_2
REMARK    2  A    between atoms: C_2  and  C_3
REMARK    3  A    between atoms: C_3  and  O_5
REMARK    4  A    between atoms: C_3  and  C_7
REMARK    5  A    between atoms: O_5  and  C_6
REMARK    6  A    between atoms: C_7  and  C_9
REMARK    7  A    between atoms: C_7  and  C_10
REMARK    8  A    between atoms: C_10  and  C_12
REMARK    9  A    between atoms: C_12  and  C_13
REMARK   10  A    between atoms: C_13  and  C_14
REMARK   11  A    between atoms: C_14  and  C_16
REMARK   12  A    between atoms: C_14  and  C_17
REMARK   13  A    between atoms: C_17  and  O_19
REMARK   14  A    between atoms: C_17  and  C_21
REMARK   15  A    between atoms: O_19  and  C_20
REMARK   16  A    between atoms: C_21  and  C_23
REMARK   17  A    between atoms: C_21  and  C_24
REMARK   18  A    between atoms: C_32  and  C_33
REMARK   19  A    between atoms: C_35  and  O_77
REMARK   20  A    between atoms: C_46  and  C_48
REMARK   21  A    between atoms: C_49  and  O_75
REMARK   22  A    between atoms: C_52  and  O_54
REMARK   23  A    between atoms: O_54  and  C_55
REMARK   24  A    between atoms: C_58  and  C_60
REMARK   25  A    between atoms: C_61  and  O_73
REMARK   26  A    between atoms: C_64  and  O_66
REMARK   27  A    between atoms: O_66  and  C_67
REMARK   28  A    between atoms: C_70  and  C_72
REMARK   29  A    between atoms: O_73  and  C_74
REMARK   30  A    between atoms: O_75  and  C_76
REMARK   31  A    between atoms: O_77  and  C_78
REMARK                            x       y       z     vdW  Elec       q    Type
REMARK                         _______ _______ _______ _____ _____    ______ ____
ROOT
ATOM      1  C   UNL     1       2.431   1.341  28.745  0.00  0.00    +0.189 C 
ATOM      2  C   UNL     1       2.622   2.096  27.362  0.00  0.00    +0.049 C 
ATOM      3  C   UNL     1       1.589   1.684  26.343  0.00  0.00    +0.015 C 
ATOM      4  C   UNL     1       2.785   3.634  27.421  0.00  0.00    -0.022 C 
ATOM      5  C   UNL     1       2.651   4.766  26.683  0.00  0.00    +0.000 C 
ATOM      6  C   UNL     1       3.148   4.951  25.259  0.00  0.00    +0.143 C 
ATOM      7  C   UNL     1       2.179   5.424  24.163  0.00  0.00    +0.068 C 
ATOM      8  C   UNL     1       1.482   4.255  23.471  0.00  0.00    +0.127 C 
ATOM      9  C   UNL     1       2.481   3.276  22.655  0.00  0.00    +0.037 C 
ATOM     10  C   UNL     1       2.942   4.023  21.398  0.00  0.00    +0.014 C 
ATOM     11  C   UNL     1       3.712   2.552  23.300  0.00  0.00    -0.023 C 
ATOM     12  C   UNL     1       5.001   2.352  22.885  0.00  0.00    +0.000 C 
ATOM     13  C   UNL     1       6.265   1.783  23.664  0.00  0.00    +0.143 C 
ATOM     14  C   UNL     1       7.437   1.196  22.798  0.00  0.00    +0.067 C 
ATOM     15  C   UNL     1       8.877   0.976  23.457  0.00  0.00    +0.127 C 
ATOM     16  C   UNL     1       9.861   2.207  23.484  0.00  0.00    +0.056 C 
ATOM     17  C   UNL     1      10.163   2.676  22.045  0.00  0.00    +0.014 C 
ATOM     18  C   UNL     1       9.266   3.358  24.325  0.00  0.00    +0.186 C 
ATOM     19  C   UNL     1      10.143   4.580  24.692  0.00  0.00    +0.076 C 
ATOM     20  C   UNL     1       9.378   5.883  24.626  0.00  0.00    -0.057 C 
ATOM     21  C   UNL     1       8.342   6.031  23.794  0.00  0.00    +0.091 C 
ATOM     22  C   UNL     1       7.799   4.926  23.027  0.00  0.00    +0.332 C 
ATOM     23  O   UNL     1       7.041   5.092  22.086  0.00  0.00    -0.246 OA
ATOM     24  C   UNL     1       9.756   7.059  25.501  0.00  0.00    +0.063 C 
ATOM     25  C   UNL     1       9.326   7.108  26.996  0.00  0.00    +0.126 C 
ATOM     26  C   UNL     1       7.813   6.933  27.402  0.00  0.00    +0.062 C 
ATOM     27  C   UNL     1       7.243   5.584  27.868  0.00  0.00    -0.070 C 
ATOM     28  C   UNL     1       7.602   4.405  27.024  0.00  0.00    +0.039 C 
ATOM     29  C   UNL     1       6.376   5.413  28.903  0.00  0.00    -0.001 C 
ATOM     30  C   UNL     1       5.929   4.077  29.298  0.00  0.00    +0.007 C 
ATOM     31  C   UNL     1       4.818   3.681  29.946  0.00  0.00    +0.091 C 
ATOM     32  C   UNL     1       4.462   2.233  29.723  0.00  0.00    +0.332 C 
ATOM     33  O   UNL     1       5.229   1.407  29.254  0.00  0.00    -0.246 OA
ATOM     34  O   UNL     1       8.125   3.740  23.492  0.00  0.00    -0.458 OA
ATOM     35  O   UNL     1       3.123   2.056  29.825  0.00  0.00    -0.457 OA
ENDROOT
BRANCH   1  36
ATOM     36  C   UNL     1       2.459  -0.278  28.826  0.00  0.00    +0.056 C 
ATOM     37  C   UNL     1       1.133  -0.859  29.353  0.00  0.00    +0.014 C 
BRANCH  36  38
ATOM     38  C   UNL     1       3.199  -1.328  27.853  0.00  0.00    +0.127 C 
BRANCH  38  39
ATOM     39  O   UNL     1       4.404  -1.669  28.581  0.00  0.00    -0.379 OA
ATOM     40  C   UNL     1       4.253  -2.191  29.886  0.00  0.00    +0.194 C 
ENDBRANCH  38  39
BRANCH  38  41
ATOM     41  C   UNL     1       2.561  -2.642  27.258  0.00  0.00    +0.016 C 
ATOM     42  C   UNL     1       1.843  -2.349  25.895  0.00  0.00    +0.010 C 
BRANCH  41  43
ATOM     43  C   UNL     1       3.360  -3.967  26.991  0.00  0.00    +0.013 C 
BRANCH  43  44
ATOM     44  C   UNL     1       3.880  -4.314  25.593  0.00  0.00    +0.075 C 
BRANCH  44  45
ATOM     45  C   UNL     1       5.406  -4.426  25.497  0.00  0.00    +0.139 C 
ATOM     46  O   UNL     1       6.073  -4.597  26.516  0.00  0.00    -0.297 OA
BRANCH  45  47
ATOM     47  C   UNL     1       6.123  -4.329  24.129  0.00  0.00    +0.081 C 
ATOM     48  C   UNL     1       5.118  -3.866  23.114  0.00  0.00    +0.018 C 
BRANCH  47  49
ATOM     49  C   UNL     1       6.859  -5.603  23.650  0.00  0.00    +0.128 C 
BRANCH  49  50
ATOM     50  O   UNL     1       8.238  -5.340  23.381  0.00  0.00    -0.379 OA
ATOM     51  C   UNL     1       8.985  -4.945  24.527  0.00  0.00    +0.194 C 
ENDBRANCH  49  50
BRANCH  49  53
ATOM     52  C   UNL     1       6.842  -5.896  21.094  0.00  0.00    +0.006 C 
ATOM     53  C   UNL     1       6.197  -6.283  22.420  0.00  0.00    +0.029 C 
ENDBRANCH  49  53
ENDBRANCH  47  49
ENDBRANCH  45  47
ENDBRANCH  44  45
ENDBRANCH  43  44
ENDBRANCH  41  43
ENDBRANCH  38  41
ENDBRANCH  36  38
ENDBRANCH   1  36
BRANCH  25  54
ATOM     54  O   UNL     1      10.215   6.282  27.753  0.00  0.00    -0.379 OA
ATOM     55  C   UNL     1      11.518   6.845  27.837  0.00  0.00    +0.194 C 
ENDBRANCH  25  54
BRANCH  15  56
ATOM     56  O   UNL     1       8.741   0.397  24.764  0.00  0.00    -0.379 OA
ATOM     57  C   UNL     1       9.408  -0.846  24.957  0.00  0.00    +0.194 C 
ENDBRANCH  15  56
BRANCH  13  58
ATOM     58  O   UNL     1       5.995   0.769  24.615  0.00  0.00    -0.376 OA
ATOM     59  C   UNL     1       5.511   1.287  25.811  0.00  0.00    +0.194 C 
ENDBRANCH  13  58
BRANCH   8  60
ATOM     60  O   UNL     1       0.647   3.743  24.508  0.00  0.00    -0.379 OA
ATOM     61  C   UNL     1       0.446   2.355  24.633  0.00  0.00    +0.194 C 
ENDBRANCH   8  60
BRANCH   6  62
ATOM     62  O   UNL     1       4.370   5.714  25.305  0.00  0.00    -0.376 OA
ATOM     63  C   UNL     1       4.347   6.968  25.959  0.00  0.00    +0.194 C 
ENDBRANCH   6  62
TORSDOF 16
ENDMDL
MODEL 6
REMARK VINA RESULT:      -2.0      2.141      6.403
REMARK  Name = 
REMARK  31 active torsions:
REMARK  status: ('A' for Active; 'I' for Inactive)
REMARK    1  A    between atoms: C_1  and  C_2
REMARK    2  A    between atoms: C_2  and  C_3
REMARK    3  A    between atoms: C_3  and  O_5
REMARK    4  A    between atoms: C_3  and  C_7
REMARK    5  A    between atoms: O_5  and  C_6
REMARK    6  A    between atoms: C_7  and  C_9
REMARK    7  A    between atoms: C_7  and  C_10
REMARK    8  A    between atoms: C_10  and  C_12
REMARK    9  A    between atoms: C_12  and  C_13
REMARK   10  A    between atoms: C_13  and  C_14
REMARK   11  A    between atoms: C_14  and  C_16
REMARK   12  A    between atoms: C_14  and  C_17
REMARK   13  A    between atoms: C_17  and  O_19
REMARK   14  A    between atoms: C_17  and  C_21
REMARK   15  A    between atoms: O_19  and  C_20
REMARK   16  A    between atoms: C_21  and  C_23
REMARK   17  A    between atoms: C_21  and  C_24
REMARK   18  A    between atoms: C_32  and  C_33
REMARK   19  A    between atoms: C_35  and  O_77
REMARK   20  A    between atoms: C_46  and  C_48
REMARK   21  A    between atoms: C_49  and  O_75
REMARK   22  A    between atoms: C_52  and  O_54
REMARK   23  A    between atoms: O_54  and  C_55
REMARK   24  A    between atoms: C_58  and  C_60
REMARK   25  A    between atoms: C_61  and  O_73
REMARK   26  A    between atoms: C_64  and  O_66
REMARK   27  A    between atoms: O_66  and  C_67
REMARK   28  A    between atoms: C_70  and  C_72
REMARK   29  A    between atoms: O_73  and  C_74
REMARK   30  A    between atoms: O_75  and  C_76
REMARK   31  A    between atoms: O_77  and  C_78
REMARK                            x       y       z     vdW  Elec       q    Type
REMARK                         _______ _______ _______ _____ _____    ______ ____
ROOT
ATOM      1  C   UNL     1       2.952   3.452  29.156  0.00  0.00    +0.189 C 
ATOM      2  C   UNL     1       3.140   3.772  27.613  0.00  0.00    +0.049 C 
ATOM      3  C   UNL     1       1.933   3.375  26.800  0.00  0.00    +0.015 C 
ATOM      4  C   UNL     1       3.632   5.193  27.249  0.00  0.00    -0.022 C 
ATOM      5  C   UNL     1       3.658   6.105  26.243  0.00  0.00    +0.000 C 
ATOM      6  C   UNL     1       4.017   5.808  24.796  0.00  0.00    +0.143 C 
ATOM      7  C   UNL     1       3.053   6.209  23.669  0.00  0.00    +0.068 C 
ATOM      8  C   UNL     1       2.048   5.102  23.354  0.00  0.00    +0.127 C 
ATOM      9  C   UNL     1       2.715   3.745  22.777  0.00  0.00    +0.037 C 
ATOM     10  C   UNL     1       3.178   4.026  21.342  0.00  0.00    +0.014 C 
ATOM     11  C   UNL     1       3.829   2.934  23.524  0.00  0.00    -0.023 C 
ATOM     12  C   UNL     1       4.989   2.340  23.109  0.00  0.00    +0.000 C 
ATOM     13  C   UNL     1       6.184   1.701  23.941  0.00  0.00    +0.143 C 
ATOM     14  C   UNL     1       7.098   0.659  23.201  0.00  0.00    +0.067 C 
ATOM     15  C   UNL     1       8.523   0.277  23.815  0.00  0.00    +0.127 C 
ATOM     16  C   UNL     1       9.744   1.208  23.457  0.00  0.00    +0.056 C 
ATOM     17  C   UNL     1       9.972   1.219  21.931  0.00  0.00    +0.014 C 
ATOM     18  C   UNL     1       9.508   2.639  23.990  0.00  0.00    +0.186 C 
ATOM     19  C   UNL     1      10.661   3.671  23.967  0.00  0.00    +0.076 C 
ATOM     20  C   UNL     1      10.189   5.060  23.596  0.00  0.00    -0.057 C 
ATOM     21  C   UNL     1       9.119   5.236  22.813  0.00  0.00    +0.091 C 
ATOM     22  C   UNL     1       8.269   4.135  22.402  0.00  0.00    +0.332 C 
ATOM     23  O   UNL     1       7.461   4.235  21.493  0.00  0.00    -0.246 OA
ATOM     24  C   UNL     1      10.906   6.293  24.102  0.00  0.00    +0.063 C 
ATOM     25  C   UNL     1      10.670   6.811  25.551  0.00  0.00    +0.126 C 
ATOM     26  C   UNL     1       9.211   7.104  26.071  0.00  0.00    +0.062 C 
ATOM     27  C   UNL     1       8.424   6.087  26.912  0.00  0.00    -0.070 C 
ATOM     28  C   UNL     1       8.425   4.684  26.396  0.00  0.00    +0.039 C 
ATOM     29  C   UNL     1       7.666   6.387  28.000  0.00  0.00    -0.001 C 
ATOM     30  C   UNL     1       6.992   5.335  28.764  0.00  0.00    +0.007 C 
ATOM     31  C   UNL     1       5.904   5.386  29.553  0.00  0.00    +0.091 C 
ATOM     32  C   UNL     1       5.225   4.054  29.746  0.00  0.00    +0.332 C 
ATOM     33  O   UNL     1       5.739   2.980  29.475  0.00  0.00    -0.246 OA
ATOM     34  O   UNL     1       8.386   3.060  23.149  0.00  0.00    -0.458 OA
ATOM     35  O   UNL     1       3.899   4.229  29.966  0.00  0.00    -0.457 OA
ENDROOT
BRANCH   1  36
ATOM     36  C   UNL     1       2.644   1.943  29.666  0.00  0.00    +0.056 C 
ATOM     37  C   UNL     1       1.341   1.859  30.485  0.00  0.00    +0.014 C 
BRANCH  36  38
ATOM     38  C   UNL     1       2.951   0.543  28.931  0.00  0.00    +0.127 C 
BRANCH  38  39
ATOM     39  O   UNL     1       3.845  -0.130  29.852  0.00  0.00    -0.379 OA
ATOM     40  C   UNL     1       4.022  -1.523  29.689  0.00  0.00    +0.194 C 
ENDBRANCH  38  39
BRANCH  38  41
ATOM     41  C   UNL     1       1.871  -0.482  28.411  0.00  0.00    +0.016 C 
ATOM     42  C   UNL     1       1.092   0.101  27.182  0.00  0.00    +0.010 C 
BRANCH  41  43
ATOM     43  C   UNL     1       2.189  -1.962  27.994  0.00  0.00    +0.013 C 
BRANCH  43  44
ATOM     44  C   UNL     1       2.419  -2.343  26.528  0.00  0.00    +0.075 C 
BRANCH  44  45
ATOM     45  C   UNL     1       2.997  -3.748  26.324  0.00  0.00    +0.139 C 
ATOM     46  O   UNL     1       2.600  -4.681  27.021  0.00  0.00    -0.297 OA
BRANCH  45  47
ATOM     47  C   UNL     1       4.078  -4.012  25.248  0.00  0.00    +0.081 C 
ATOM     48  C   UNL     1       3.525  -5.018  24.279  0.00  0.00    +0.018 C 
BRANCH  47  49
ATOM     49  C   UNL     1       5.471  -4.440  25.768  0.00  0.00    +0.128 C 
BRANCH  49  50
ATOM     50  O   UNL     1       5.389  -5.615  26.578  0.00  0.00    -0.379 OA
ATOM     51  C   UNL     1       6.202  -5.571  27.745  0.00  0.00    +0.194 C 
ENDBRANCH  49  50
BRANCH  49  53
ATOM     52  C   UNL     1       5.668  -1.924  26.266  0.00  0.00    +0.006 C 
ATOM     53  C   UNL     1       6.224  -3.318  26.534  0.00  0.00    +0.029 C 
ENDBRANCH  49  53
ENDBRANCH  47  49
ENDBRANCH  45  47
ENDBRANCH  44  45
ENDBRANCH  43  44
ENDBRANCH  41  43
ENDBRANCH  38  41
ENDBRANCH  36  38
ENDBRANCH   1  36
BRANCH  25  54
ATOM     54  O   UNL     1      11.444   6.014  26.452  0.00  0.00    -0.379 OA
ATOM     55  C   UNL     1      12.225   6.815  27.330  0.00  0.00    +0.194 C 
ENDBRANCH  25  54
BRANCH  15  56
ATOM     56  O   UNL     1       8.418   0.089  25.235  0.00  0.00    -0.379 OA
ATOM     57  C   UNL     1       9.460  -0.676  25.832  0.00  0.00    +0.194 C 
ENDBRANCH  15  56
BRANCH  13  58
ATOM     58  O   UNL     1       5.816   1.048  25.142  0.00  0.00    -0.376 OA
ATOM     59  C   UNL     1       5.844   1.907  26.236  0.00  0.00    +0.194 C 
ENDBRANCH  13  58
BRANCH   8  60
ATOM     60  O   UNL     1       1.247   5.076  24.534  0.00  0.00    -0.379 OA
ATOM     61  C   UNL     1       0.454   6.187  24.875  0.00  0.00    +0.194 C 
ENDBRANCH   8  60
BRANCH   6  62
ATOM     62  O   UNL     1       5.371   6.248  24.569  0.00  0.00    -0.376 OA
ATOM     63  C   UNL     1       5.905   6.111  23.266  0.00  0.00    +0.194 C 
ENDBRANCH   6  62
TORSDOF 16
ENDMDL
MODEL 7
REMARK VINA RESULT:      -1.9      1.950      3.375
REMARK  Name = 
REMARK  31 active torsions:
REMARK  status: ('A' for Active; 'I' for Inactive)
REMARK    1  A    between atoms: C_1  and  C_2
REMARK    2  A    between atoms: C_2  and  C_3
REMARK    3  A    between atoms: C_3  and  O_5
REMARK    4  A    between atoms: C_3  and  C_7
REMARK    5  A    between atoms: O_5  and  C_6
REMARK    6  A    between atoms: C_7  and  C_9
REMARK    7  A    between atoms: C_7  and  C_10
REMARK    8  A    between atoms: C_10  and  C_12
REMARK    9  A    between atoms: C_12  and  C_13
REMARK   10  A    between atoms: C_13  and  C_14
REMARK   11  A    between atoms: C_14  and  C_16
REMARK   12  A    between atoms: C_14  and  C_17
REMARK   13  A    between atoms: C_17  and  O_19
REMARK   14  A    between atoms: C_17  and  C_21
REMARK   15  A    between atoms: O_19  and  C_20
REMARK   16  A    between atoms: C_21  and  C_23
REMARK   17  A    between atoms: C_21  and  C_24
REMARK   18  A    between atoms: C_32  and  C_33
REMARK   19  A    between atoms: C_35  and  O_77
REMARK   20  A    between atoms: C_46  and  C_48
REMARK   21  A    between atoms: C_49  and  O_75
REMARK   22  A    between atoms: C_52  and  O_54
REMARK   23  A    between atoms: O_54  and  C_55
REMARK   24  A    between atoms: C_58  and  C_60
REMARK   25  A    between atoms: C_61  and  O_73
REMARK   26  A    between atoms: C_64  and  O_66
REMARK   27  A    between atoms: O_66  and  C_67
REMARK   28  A    between atoms: C_70  and  C_72
REMARK   29  A    between atoms: O_73  and  C_74
REMARK   30  A    between atoms: O_75  and  C_76
REMARK   31  A    between atoms: O_77  and  C_78
REMARK                            x       y       z     vdW  Elec       q    Type
REMARK                         _______ _______ _______ _____ _____    ______ ____
ROOT
ATOM      1  C   UNL     1       5.158  -2.517  25.851  0.00  0.00    +0.189 C 
ATOM      2  C   UNL     1       4.764  -1.254  26.726  0.00  0.00    +0.049 C 
ATOM      3  C   UNL     1       3.913  -1.630  27.914  0.00  0.00    +0.015 C 
ATOM      4  C   UNL     1       5.911  -0.295  27.127  0.00  0.00    -0.022 C 
ATOM      5  C   UNL     1       6.267   0.647  28.037  0.00  0.00    +0.000 C 
ATOM      6  C   UNL     1       5.389   1.800  28.498  0.00  0.00    +0.143 C 
ATOM      7  C   UNL     1       5.128   2.014  29.997  0.00  0.00    +0.068 C 
ATOM      8  C   UNL     1       3.896   1.250  30.479  0.00  0.00    +0.127 C 
ATOM      9  C   UNL     1       2.506   1.741  29.809  0.00  0.00    +0.037 C 
ATOM     10  C   UNL     1       2.157   3.109  30.409  0.00  0.00    +0.014 C 
ATOM     11  C   UNL     1       2.249   1.781  28.263  0.00  0.00    -0.023 C 
ATOM     12  C   UNL     1       1.662   2.701  27.437  0.00  0.00    +0.000 C 
ATOM     13  C   UNL     1       1.604   2.782  25.850  0.00  0.00    +0.143 C 
ATOM     14  C   UNL     1       0.448   3.636  25.217  0.00  0.00    +0.067 C 
ATOM     15  C   UNL     1       0.543   4.092  23.688  0.00  0.00    +0.127 C 
ATOM     16  C   UNL     1       1.340   5.414  23.370  0.00  0.00    +0.056 C 
ATOM     17  C   UNL     1       0.685   6.613  24.090  0.00  0.00    +0.014 C 
ATOM     18  C   UNL     1       2.822   5.267  23.783  0.00  0.00    +0.186 C 
ATOM     19  C   UNL     1       3.851   6.342  23.360  0.00  0.00    +0.076 C 
ATOM     20  C   UNL     1       4.861   6.638  24.447  0.00  0.00    -0.057 C 
ATOM     21  C   UNL     1       4.545   6.486  25.738  0.00  0.00    +0.091 C 
ATOM     22  C   UNL     1       3.291   5.896  26.166  0.00  0.00    +0.332 C 
ATOM     23  O   UNL     1       2.881   5.988  27.311  0.00  0.00    -0.246 OA
ATOM     24  C   UNL     1       6.260   7.108  24.112  0.00  0.00    +0.063 C 
ATOM     25  C   UNL     1       7.348   6.097  23.646  0.00  0.00    +0.126 C 
ATOM     26  C   UNL     1       7.682   4.822  24.512  0.00  0.00    +0.062 C 
ATOM     27  C   UNL     1       7.076   3.444  24.205  0.00  0.00    -0.070 C 
ATOM     28  C   UNL     1       5.601   3.427  23.963  0.00  0.00    +0.039 C 
ATOM     29  C   UNL     1       7.751   2.263  24.241  0.00  0.00    -0.001 C 
ATOM     30  C   UNL     1       7.091   1.007  23.884  0.00  0.00    +0.007 C 
ATOM     31  C   UNL     1       7.374  -0.261  24.234  0.00  0.00    +0.091 C 
ATOM     32  C   UNL     1       6.207  -1.208  24.101  0.00  0.00    +0.332 C 
ATOM     33  O   UNL     1       5.191  -0.954  23.475  0.00  0.00    -0.246 OA
ATOM     34  O   UNL     1       2.691   5.184  25.238  0.00  0.00    -0.458 OA
ATOM     35  O   UNL     1       6.316  -2.217  24.999  0.00  0.00    -0.457 OA
ENDROOT
BRANCH   1  36
ATOM     36  C   UNL     1       4.020  -3.472  25.200  0.00  0.00    +0.056 C 
ATOM     37  C   UNL     1       4.264  -3.733  23.701  0.00  0.00    +0.014 C 
BRANCH  36  38
ATOM     38  C   UNL     1       3.221  -4.700  25.872  0.00  0.00    +0.127 C 
BRANCH  38  39
ATOM     39  O   UNL     1       1.946  -4.686  25.185  0.00  0.00    -0.379 OA
ATOM     40  C   UNL     1       0.845  -4.111  25.862  0.00  0.00    +0.194 C 
ENDBRANCH  38  39
BRANCH  38  41
ATOM     41  C   UNL     1       3.737  -6.186  25.984  0.00  0.00    +0.016 C 
ATOM     42  C   UNL     1       3.533  -6.953  24.632  0.00  0.00    +0.010 C 
BRANCH  41  43
ATOM     43  C   UNL     1       5.189  -6.583  26.432  0.00  0.00    +0.013 C 
BRANCH  43  44
ATOM     44  C   UNL     1       6.022  -5.665  27.331  0.00  0.00    +0.075 C 
BRANCH  44  45
ATOM     45  C   UNL     1       7.328  -5.175  26.695  0.00  0.00    +0.139 C 
ATOM     46  O   UNL     1       7.972  -4.275  27.233  0.00  0.00    -0.297 OA
BRANCH  45  47
ATOM     47  C   UNL     1       7.852  -5.799  25.380  0.00  0.00    +0.081 C 
ATOM     48  C   UNL     1       9.332  -6.006  25.526  0.00  0.00    +0.018 C 
BRANCH  47  49
ATOM     49  C   UNL     1       7.519  -5.031  24.078  0.00  0.00    +0.128 C 
BRANCH  49  50
ATOM     50  O   UNL     1       7.702  -5.855  22.924  0.00  0.00    -0.379 OA
ATOM     51  C   UNL     1       6.531  -6.005  22.130  0.00  0.00    +0.194 C 
ENDBRANCH  49  50
BRANCH  49  53
ATOM     52  C   UNL     1       8.711  -3.411  22.474  0.00  0.00    +0.006 C 
ATOM     53  C   UNL     1       8.308  -3.703  23.915  0.00  0.00    +0.029 C 
ENDBRANCH  49  53
ENDBRANCH  47  49
ENDBRANCH  45  47
ENDBRANCH  44  45
ENDBRANCH  43  44
ENDBRANCH  41  43
ENDBRANCH  38  41
ENDBRANCH  36  38
ENDBRANCH   1  36
BRANCH  25  54
ATOM     54  O   UNL     1       7.135   5.801  22.263  0.00  0.00    -0.379 OA
ATOM     55  C   UNL     1       7.000   6.984  21.484  0.00  0.00    +0.194 C 
ENDBRANCH  25  54
BRANCH  15  56
ATOM     56  O   UNL     1       1.008   3.003  22.873  0.00  0.00    -0.379 OA
ATOM     57  C   UNL     1       0.764   3.133  21.477  0.00  0.00    +0.194 C 
ENDBRANCH  15  56
BRANCH  13  58
ATOM     58  O   UNL     1       1.529   1.541  25.174  0.00  0.00    -0.376 OA
ATOM     59  C   UNL     1       0.548   0.711  25.706  0.00  0.00    +0.194 C 
ENDBRANCH  13  58
BRANCH   8  60
ATOM     60  O   UNL     1       4.318  -0.108  30.367  0.00  0.00    -0.379 OA
ATOM     61  C   UNL     1       3.380  -1.151  30.485  0.00  0.00    +0.194 C 
ENDBRANCH   8  60
BRANCH   6  62
ATOM     62  O   UNL     1       5.824   2.995  27.821  0.00  0.00    -0.376 OA
ATOM     63  C   UNL     1       6.125   4.133  28.606  0.00  0.00    +0.194 C 
ENDBRANCH   6  62
TORSDOF 16
ENDMDL
MODEL 8
REMARK VINA RESULT:      -1.7      1.336      2.018
REMARK  Name = 
REMARK  31 active torsions:
REMARK  status: ('A' for Active; 'I' for Inactive)
REMARK    1  A    between atoms: C_1  and  C_2
REMARK    2  A    between atoms: C_2  and  C_3
REMARK    3  A    between atoms: C_3  and  O_5
REMARK    4  A    between atoms: C_3  and  C_7
REMARK    5  A    between atoms: O_5  and  C_6
REMARK    6  A    between atoms: C_7  and  C_9
REMARK    7  A    between atoms: C_7  and  C_10
REMARK    8  A    between atoms: C_10  and  C_12
REMARK    9  A    between atoms: C_12  and  C_13
REMARK   10  A    between atoms: C_13  and  C_14
REMARK   11  A    between atoms: C_14  and  C_16
REMARK   12  A    between atoms: C_14  and  C_17
REMARK   13  A    between atoms: C_17  and  O_19
REMARK   14  A    between atoms: C_17  and  C_21
REMARK   15  A    between atoms: O_19  and  C_20
REMARK   16  A    between atoms: C_21  and  C_23
REMARK   17  A    between atoms: C_21  and  C_24
REMARK   18  A    between atoms: C_32  and  C_33
REMARK   19  A    between atoms: C_35  and  O_77
REMARK   20  A    between atoms: C_46  and  C_48
REMARK   21  A    between atoms: C_49  and  O_75
REMARK   22  A    between atoms: C_52  and  O_54
REMARK   23  A    between atoms: O_54  and  C_55
REMARK   24  A    between atoms: C_58  and  C_60
REMARK   25  A    between atoms: C_61  and  O_73
REMARK   26  A    between atoms: C_64  and  O_66
REMARK   27  A    between atoms: O_66  and  C_67
REMARK   28  A    between atoms: C_70  and  C_72
REMARK   29  A    between atoms: O_73  and  C_74
REMARK   30  A    between atoms: O_75  and  C_76
REMARK   31  A    between atoms: O_77  and  C_78
REMARK                            x       y       z     vdW  Elec       q    Type
REMARK                         _______ _______ _______ _____ _____    ______ ____
ROOT
ATOM      1  C   UNL     1       5.999  -2.429  25.977  0.00  0.00    +0.189 C 
ATOM      2  C   UNL     1       5.646  -1.126  26.812  0.00  0.00    +0.049 C 
ATOM      3  C   UNL     1       4.854  -1.446  28.055  0.00  0.00    +0.015 C 
ATOM      4  C   UNL     1       6.811  -0.152  27.112  0.00  0.00    -0.022 C 
ATOM      5  C   UNL     1       7.209   0.831  27.960  0.00  0.00    +0.000 C 
ATOM      6  C   UNL     1       6.354   2.005  28.410  0.00  0.00    +0.143 C 
ATOM      7  C   UNL     1       6.165   2.287  29.908  0.00  0.00    +0.068 C 
ATOM      8  C   UNL     1       4.958   1.549  30.483  0.00  0.00    +0.127 C 
ATOM      9  C   UNL     1       3.538   2.011  29.859  0.00  0.00    +0.037 C 
ATOM     10  C   UNL     1       3.217   3.405  30.412  0.00  0.00    +0.014 C 
ATOM     11  C   UNL     1       3.207   1.980  28.327  0.00  0.00    -0.023 C 
ATOM     12  C   UNL     1       2.580   2.862  27.489  0.00  0.00    +0.000 C 
ATOM     13  C   UNL     1       2.446   2.871  25.905  0.00  0.00    +0.143 C 
ATOM     14  C   UNL     1       1.260   3.697  25.289  0.00  0.00    +0.067 C 
ATOM     15  C   UNL     1       1.281   4.082  23.738  0.00  0.00    +0.127 C 
ATOM     16  C   UNL     1       2.061   5.387  23.323  0.00  0.00    +0.056 C 
ATOM     17  C   UNL     1       1.440   6.618  24.017  0.00  0.00    +0.014 C 
ATOM     18  C   UNL     1       3.561   5.256  23.670  0.00  0.00    +0.186 C 
ATOM     19  C   UNL     1       4.568   6.310  23.149  0.00  0.00    +0.076 C 
ATOM     20  C   UNL     1       5.629   6.653  24.172  0.00  0.00    -0.057 C 
ATOM     21  C   UNL     1       5.376   6.561  25.482  0.00  0.00    +0.091 C 
ATOM     22  C   UNL     1       4.144   5.993  25.996  0.00  0.00    +0.332 C 
ATOM     23  O   UNL     1       3.789   6.139  27.154  0.00  0.00    -0.246 OA
ATOM     24  C   UNL     1       7.010   7.105  23.749  0.00  0.00    +0.063 C 
ATOM     25  C   UNL     1       8.075   6.072  23.277  0.00  0.00    +0.126 C 
ATOM     26  C   UNL     1       8.451   4.838  24.184  0.00  0.00    +0.062 C 
ATOM     27  C   UNL     1       7.832   3.448  23.970  0.00  0.00    -0.070 C 
ATOM     28  C   UNL     1       6.347   3.422  23.800  0.00  0.00    +0.039 C 
ATOM     29  C   UNL     1       8.508   2.269  24.027  0.00  0.00    -0.001 C 
ATOM     30  C   UNL     1       7.833   0.999  23.760  0.00  0.00    +0.007 C 
ATOM     31  C   UNL     1       8.132  -0.253  24.153  0.00  0.00    +0.091 C 
ATOM     32  C   UNL     1       6.961  -1.202  24.121  0.00  0.00    +0.332 C 
ATOM     33  O   UNL     1       5.916  -0.975  23.533  0.00  0.00    -0.246 OA
ATOM     34  O   UNL     1       3.500   5.240  25.132  0.00  0.00    -0.458 OA
ATOM     35  O   UNL     1       7.114  -2.169  25.057  0.00  0.00    -0.457 OA
ENDROOT
BRANCH   1  36
ATOM     36  C   UNL     1       4.831  -3.410  25.426  0.00  0.00    +0.056 C 
ATOM     37  C   UNL     1       3.550  -2.640  25.050  0.00  0.00    +0.014 C 
BRANCH  36  38
ATOM     38  C   UNL     1       4.968  -4.756  24.551  0.00  0.00    +0.127 C 
BRANCH  38  39
ATOM     39  O   UNL     1       6.328  -4.698  24.057  0.00  0.00    -0.379 OA
ATOM     40  C   UNL     1       6.614  -5.372  22.847  0.00  0.00    +0.194 C 
ENDBRANCH  38  39
BRANCH  38  41
ATOM     41  C   UNL     1       4.658  -6.219  25.052  0.00  0.00    +0.016 C 
ATOM     42  C   UNL     1       5.363  -6.502  26.424  0.00  0.00    +0.010 C 
BRANCH  41  43
ATOM     43  C   UNL     1       3.210  -6.798  25.241  0.00  0.00    +0.013 C 
BRANCH  43  44
ATOM     44  C   UNL     1       1.982  -5.883  25.242  0.00  0.00    +0.075 C 
BRANCH  44  45
ATOM     45  C   UNL     1       1.310  -5.730  26.611  0.00  0.00    +0.139 C 
ATOM     46  O   UNL     1       0.443  -4.873  26.776  0.00  0.00    -0.297 OA
BRANCH  45  47
ATOM     47  C   UNL     1       1.707  -6.644  27.795  0.00  0.00    +0.081 C 
ATOM     48  C   UNL     1       0.478  -7.384  28.238  0.00  0.00    +0.018 C 
BRANCH  47  49
ATOM     49  C   UNL     1       2.406  -5.951  28.990  0.00  0.00    +0.128 C 
BRANCH  49  50
ATOM     50  O   UNL     1       2.776  -4.608  28.671  0.00  0.00    -0.379 OA
ATOM     51  C   UNL     1       1.887  -3.625  29.190  0.00  0.00    +0.194 C 
ENDBRANCH  49  50
BRANCH  49  53
ATOM     52  C   UNL     1       4.788  -5.822  29.954  0.00  0.00    +0.006 C 
ATOM     53  C   UNL     1       3.637  -6.729  29.531  0.00  0.00    +0.029 C 
ENDBRANCH  49  53
ENDBRANCH  47  49
ENDBRANCH  45  47
ENDBRANCH  44  45
ENDBRANCH  43  44
ENDBRANCH  41  43
ENDBRANCH  38  41
ENDBRANCH  36  38
ENDBRANCH   1  36
BRANCH  25  54
ATOM     54  O   UNL     1       7.796   5.714  21.921  0.00  0.00    -0.379 OA
ATOM     55  C   UNL     1       7.117   6.755  21.229  0.00  0.00    +0.194 C 
ENDBRANCH  25  54
BRANCH  15  56
ATOM     56  O   UNL     1       1.707   2.957  22.953  0.00  0.00    -0.379 OA
ATOM     57  C   UNL     1       0.745   2.449  22.035  0.00  0.00    +0.194 C 
ENDBRANCH  15  56
BRANCH  13  58
ATOM     58  O   UNL     1       2.339   1.600  25.290  0.00  0.00    -0.376 OA
ATOM     59  C   UNL     1       1.058   1.070  25.400  0.00  0.00    +0.194 C 
ENDBRANCH  13  58
BRANCH   8  60
ATOM     60  O   UNL     1       5.376   0.186  30.413  0.00  0.00    -0.379 OA
ATOM     61  C   UNL     1       4.421  -0.839  30.273  0.00  0.00    +0.194 C 
ENDBRANCH   8  60
BRANCH   6  62
ATOM     62  O   UNL     1       6.756   3.167  27.658  0.00  0.00    -0.376 OA
ATOM     63  C   UNL     1       6.549   4.440  28.241  0.00  0.00    +0.194 C 
ENDBRANCH   6  62
TORSDOF 16
ENDMDL
MODEL 9
REMARK VINA RESULT:      -1.1      2.121      9.953
REMARK  Name = 
REMARK  31 active torsions:
REMARK  status: ('A' for Active; 'I' for Inactive)
REMARK    1  A    between atoms: C_1  and  C_2
REMARK    2  A    between atoms: C_2  and  C_3
REMARK    3  A    between atoms: C_3  and  O_5
REMARK    4  A    between atoms: C_3  and  C_7
REMARK    5  A    between atoms: O_5  and  C_6
REMARK    6  A    between atoms: C_7  and  C_9
REMARK    7  A    between atoms: C_7  and  C_10
REMARK    8  A    between atoms: C_10  and  C_12
REMARK    9  A    between atoms: C_12  and  C_13
REMARK   10  A    between atoms: C_13  and  C_14
REMARK   11  A    between atoms: C_14  and  C_16
REMARK   12  A    between atoms: C_14  and  C_17
REMARK   13  A    between atoms: C_17  and  O_19
REMARK   14  A    between atoms: C_17  and  C_21
REMARK   15  A    between atoms: O_19  and  C_20
REMARK   16  A    between atoms: C_21  and  C_23
REMARK   17  A    between atoms: C_21  and  C_24
REMARK   18  A    between atoms: C_32  and  C_33
REMARK   19  A    between atoms: C_35  and  O_77
REMARK   20  A    between atoms: C_46  and  C_48
REMARK   21  A    between atoms: C_49  and  O_75
REMARK   22  A    between atoms: C_52  and  O_54
REMARK   23  A    between atoms: O_54  and  C_55
REMARK   24  A    between atoms: C_58  and  C_60
REMARK   25  A    between atoms: C_61  and  O_73
REMARK   26  A    between atoms: C_64  and  O_66
REMARK   27  A    between atoms: O_66  and  C_67
REMARK   28  A    between atoms: C_70  and  C_72
REMARK   29  A    between atoms: O_73  and  C_74
REMARK   30  A    between atoms: O_75  and  C_76
REMARK   31  A    between atoms: O_77  and  C_78
REMARK                            x       y       z     vdW  Elec       q    Type
REMARK                         _______ _______ _______ _____ _____    ______ ____
ROOT
ATOM      1  C   UNL     1       7.058   1.068  24.739  0.00  0.00    +0.189 C 
ATOM      2  C   UNL     1       7.334  -0.488  24.884  0.00  0.00    +0.049 C 
ATOM      3  C   UNL     1       8.392  -0.969  23.922  0.00  0.00    +0.015 C 
ATOM      4  C   UNL     1       7.578  -1.025  26.315  0.00  0.00    -0.022 C 
ATOM      5  C   UNL     1       8.143  -2.048  27.006  0.00  0.00    +0.000 C 
ATOM      6  C   UNL     1       7.987  -3.524  26.676  0.00  0.00    +0.143 C 
ATOM      7  C   UNL     1       9.232  -4.404  26.487  0.00  0.00    +0.068 C 
ATOM      8  C   UNL     1       9.710  -4.418  25.037  0.00  0.00    +0.127 C 
ATOM      9  C   UNL     1       8.657  -5.075  23.997  0.00  0.00    +0.037 C 
ATOM     10  C   UNL     1       8.653  -6.590  24.234  0.00  0.00    +0.014 C 
ATOM     11  C   UNL     1       7.180  -4.581  23.822  0.00  0.00    -0.023 C 
ATOM     12  C   UNL     1       5.985  -5.235  23.695  0.00  0.00    +0.000 C 
ATOM     13  C   UNL     1       4.493  -4.686  23.719  0.00  0.00    +0.143 C 
ATOM     14  C   UNL     1       3.389  -5.574  23.042  0.00  0.00    +0.067 C 
ATOM     15  C   UNL     1       1.846  -5.304  23.360  0.00  0.00    +0.127 C 
ATOM     16  C   UNL     1       1.237  -5.986  24.644  0.00  0.00    +0.056 C 
ATOM     17  C   UNL     1       1.344  -7.521  24.529  0.00  0.00    +0.014 C 
ATOM     18  C   UNL     1       1.950  -5.478  25.917  0.00  0.00    +0.186 C 
ATOM     19  C   UNL     1       1.376  -5.824  27.313  0.00  0.00    +0.076 C 
ATOM     20  C   UNL     1       2.458  -6.134  28.324  0.00  0.00    -0.057 C 
ATOM     21  C   UNL     1       3.633  -6.645  27.938  0.00  0.00    +0.091 C 
ATOM     22  C   UNL     1       3.995  -6.790  26.542  0.00  0.00    +0.332 C 
ATOM     23  O   UNL     1       4.932  -7.481  26.176  0.00  0.00    -0.246 OA
ATOM     24  C   UNL     1       2.251  -5.873  29.800  0.00  0.00    +0.063 C 
ATOM     25  C   UNL     1       2.392  -4.435  30.380  0.00  0.00    +0.126 C 
ATOM     26  C   UNL     1       3.702  -3.594  30.129  0.00  0.00    +0.062 C 
ATOM     27  C   UNL     1       3.796  -2.542  29.012  0.00  0.00    -0.070 C 
ATOM     28  C   UNL     1       3.300  -2.979  27.671  0.00  0.00    +0.039 C 
ATOM     29  C   UNL     1       4.378  -1.319  29.131  0.00  0.00    -0.001 C 
ATOM     30  C   UNL     1       4.373  -0.369  28.018  0.00  0.00    +0.007 C 
ATOM     31  C   UNL     1       5.198   0.656  27.737  0.00  0.00    +0.091 C 
ATOM     32  C   UNL     1       5.191   1.067  26.286  0.00  0.00    +0.332 C 
ATOM     33  O   UNL     1       4.334   0.729  25.485  0.00  0.00    -0.246 OA
ATOM     34  O   UNL     1       3.286  -6.044  25.724  0.00  0.00    -0.458 OA
ATOM     35  O   UNL     1       6.392   1.590  25.940  0.00  0.00    -0.457 OA
ENDROOT
BRANCH   1  36
ATOM     36  C   UNL     1       6.585   1.705  23.325  0.00  0.00    +0.056 C 
ATOM     37  C   UNL     1       6.060   0.634  22.348  0.00  0.00    +0.014 C 
BRANCH  36  38
ATOM     38  C   UNL     1       5.893   3.132  23.037  0.00  0.00    +0.127 C 
BRANCH  38  39
ATOM     39  O   UNL     1       4.477   2.843  23.134  0.00  0.00    -0.379 OA
ATOM     40  C   UNL     1       3.630   3.385  22.140  0.00  0.00    +0.194 C 
ENDBRANCH  38  39
BRANCH  38  41
ATOM     41  C   UNL     1       6.204   4.478  23.797  0.00  0.00    +0.016 C 
ATOM     42  C   UNL     1       7.665   4.964  23.503  0.00  0.00    +0.010 C 
BRANCH  41  43
ATOM     43  C   UNL     1       5.337   5.781  23.672  0.00  0.00    +0.013 C 
BRANCH  43  44
ATOM     44  C   UNL     1       5.389   6.876  24.741  0.00  0.00    +0.075 C 
BRANCH  44  45
ATOM     45  C   UNL     1       4.732   6.491  26.072  0.00  0.00    +0.139 C 
ATOM     46  O   UNL     1       5.428   6.321  27.072  0.00  0.00    -0.297 OA
BRANCH  45  47
ATOM     47  C   UNL     1       3.199   6.314  26.177  0.00  0.00    +0.081 C 
ATOM     48  C   UNL     1       2.756   6.901  27.486  0.00  0.00    +0.018 C 
BRANCH  47  49
ATOM     49  C   UNL     1       2.663   4.873  25.997  0.00  0.00    +0.128 C 
BRANCH  49  50
ATOM     50  O   UNL     1       1.810   4.771  24.854  0.00  0.00    -0.379 OA
ATOM     51  C   UNL     1       0.478   5.215  25.087  0.00  0.00    +0.194 C 
ENDBRANCH  49  50
BRANCH  49  53
ATOM     52  C   UNL     1       2.714   3.203  27.953  0.00  0.00    +0.006 C 
ATOM     53  C   UNL     1       1.940   4.314  27.253  0.00  0.00    +0.029 C 
ENDBRANCH  49  53
ENDBRANCH  47  49
ENDBRANCH  45  47
ENDBRANCH  44  45
ENDBRANCH  43  44
ENDBRANCH  41  43
ENDBRANCH  38  41
ENDBRANCH  36  38
ENDBRANCH   1  36
BRANCH  25  54
ATOM     54  O   UNL     1       1.192  -3.710  30.101  0.00  0.00    -0.379 OA
ATOM     55  C   UNL     1       1.297  -2.344  30.484  0.00  0.00    +0.194 C 
ENDBRANCH  25  54
BRANCH  15  56
ATOM     56  O   UNL     1       1.577  -3.892  23.351  0.00  0.00    -0.379 OA
ATOM     57  C   UNL     1       0.448  -3.477  24.112  0.00  0.00    +0.194 C 
ENDBRANCH  15  56
BRANCH  13  58
ATOM     58  O   UNL     1       4.302  -3.402  23.152  0.00  0.00    -0.376 OA
ATOM     59  C   UNL     1       5.340  -3.046  22.299  0.00  0.00    +0.194 C 
ENDBRANCH  13  58
BRANCH   8  60
ATOM     60  O   UNL     1      10.172  -3.079  24.857  0.00  0.00    -0.379 OA
ATOM     61  C   UNL     1      10.436  -2.591  23.564  0.00  0.00    +0.194 C 
ENDBRANCH   8  60
BRANCH   6  62
ATOM     62  O   UNL     1       7.025  -4.089  27.589  0.00  0.00    -0.376 OA
ATOM     63  C   UNL     1       7.100  -5.476  27.860  0.00  0.00    +0.194 C 
ENDBRANCH   6  62
TORSDOF 16
ENDMDL
