MODEL 1
REMARK VINA RESULT:      -7.6      0.000      0.000
REMARK  Name = 
REMARK  8 active torsions:
REMARK  status: ('A' for Active; 'I' for Inactive)
REMARK    1  A    between atoms: C_2  and  C_3
REMARK    2  A    between atoms: C_3  and  C_4
REMARK    3  A    between atoms: N_7  and  C_8
REMARK    4  A    between atoms: C_8  and  C_9
REMARK    5  A    between atoms: C_20  and  O_21
REMARK    6  A    between atoms: O_21  and  C_22
REMARK    7  A    between atoms: C_23  and  O_24
REMARK    8  A    between atoms: O_24  and  C_25
REMARK                            x       y       z     vdW  Elec       q    Type
REMARK                         _______ _______ _______ _____ _____    ______ ____
ROOT
ATOM      1  C   UNL     1       8.787  -3.946  26.227  0.00  0.00    +0.065 C 
ATOM      2  C   UNL     1       7.534  -4.674  26.682  0.00  0.00    +0.167 C 
ATOM      3  O   UNL     1       7.178  -4.883  27.825  0.00  0.00    -0.292 OA
ATOM      4  C   UNL     1       6.770  -5.017  25.486  0.00  0.00    +0.025 A 
ATOM      5  C   UNL     1       7.659  -4.992  24.418  0.00  0.00    -0.033 A 
ATOM      6  C   UNL     1       7.213  -5.262  23.139  0.00  0.00    +0.053 A 
ATOM      7  C   UNL     1       5.837  -5.442  22.940  0.00  0.00    +0.162 A 
ATOM      8  C   UNL     1       4.925  -5.321  24.028  0.00  0.00    +0.162 A 
ATOM      9  C   UNL     1       5.404  -5.154  25.331  0.00  0.00    +0.061 A 
ATOM     10  C   UNL     1       9.044  -4.631  24.862  0.00  0.00    +0.047 C 
ENDROOT
BRANCH   8  11
ATOM     11  O   UNL     1       3.593  -5.370  23.694  0.00  0.00    -0.491 OA
ATOM     12  C   UNL     1       2.686  -5.871  24.667  0.00  0.00    +0.277 C 
ENDBRANCH   8  11
BRANCH   7  13
ATOM     13  O   UNL     1       5.277  -5.693  21.708  0.00  0.00    -0.491 OA
ATOM     14  C   UNL     1       6.173  -5.838  20.615  0.00  0.00    +0.277 C 
ENDBRANCH   7  13
BRANCH   1  15
ATOM     15  C   UNL     1       8.400  -2.448  26.152  0.00  0.00    +0.015 C 
BRANCH  15  16
ATOM     16  C   UNL     1       8.422  -1.777  24.765  0.00  0.00    -0.008 C 
ATOM     17  C   UNL     1       9.792  -1.205  24.390  0.00  0.00    +0.019 C 
ATOM     18  C   UNL     1      10.121   0.072  25.170  0.00  0.00    +0.085 C 
ATOM     19  N   UNL     1       9.098   1.121  25.059  0.00  0.00    -0.298 NA
ATOM     20  C   UNL     1       7.777   0.605  25.443  0.00  0.00    +0.085 C 
ATOM     21  C   UNL     1       7.359  -0.662  24.689  0.00  0.00    +0.019 C 
BRANCH  19  22
ATOM     22  C   UNL     1       9.117   1.767  23.736  0.00  0.00    +0.119 C 
BRANCH  22  23
ATOM     23  C   UNL     1       9.796   3.121  23.726  0.00  0.00    -0.033 A 
ATOM     24  C   UNL     1       9.091   4.274  24.096  0.00  0.00    +0.005 A 
ATOM     25  C   UNL     1       9.720   5.523  24.093  0.00  0.00    +0.000 A 
ATOM     26  C   UNL     1      11.057   5.628  23.716  0.00  0.00    +0.000 A 
ATOM     27  C   UNL     1      11.766   4.491  23.336  0.00  0.00    +0.000 A 
ATOM     28  C   UNL     1      11.138   3.243  23.337  0.00  0.00    +0.005 A 
ENDBRANCH  22  23
ENDBRANCH  19  22
ENDBRANCH  15  16
ENDBRANCH   1  15
TORSDOF 6
ENDMDL
MODEL 2
REMARK VINA RESULT:      -7.4      1.805      3.154
REMARK  Name = 
REMARK  8 active torsions:
REMARK  status: ('A' for Active; 'I' for Inactive)
REMARK    1  A    between atoms: C_2  and  C_3
REMARK    2  A    between atoms: C_3  and  C_4
REMARK    3  A    between atoms: N_7  and  C_8
REMARK    4  A    between atoms: C_8  and  C_9
REMARK    5  A    between atoms: C_20  and  O_21
REMARK    6  A    between atoms: O_21  and  C_22
REMARK    7  A    between atoms: C_23  and  O_24
REMARK    8  A    between atoms: O_24  and  C_25
REMARK                            x       y       z     vdW  Elec       q    Type
REMARK                         _______ _______ _______ _____ _____    ______ ____
ROOT
ATOM      1  C   UNL     1       8.209  -4.161  23.316  0.00  0.00    +0.065 C 
ATOM      2  C   UNL     1       8.743  -4.829  24.572  0.00  0.00    +0.167 C 
ATOM      3  O   UNL     1       9.905  -5.053  24.848  0.00  0.00    -0.292 OA
ATOM      4  C   UNL     1       7.604  -5.087  25.448  0.00  0.00    +0.025 A 
ATOM      5  C   UNL     1       6.469  -5.079  24.647  0.00  0.00    -0.033 A 
ATOM      6  C   UNL     1       5.224  -5.281  25.209  0.00  0.00    +0.053 A 
ATOM      7  C   UNL     1       5.132  -5.373  26.604  0.00  0.00    +0.162 A 
ATOM      8  C   UNL     1       6.293  -5.235  27.418  0.00  0.00    +0.162 A 
ATOM      9  C   UNL     1       7.557  -5.138  26.828  0.00  0.00    +0.061 A 
ATOM     10  C   UNL     1       6.809  -4.815  23.212  0.00  0.00    +0.047 C 
ENDROOT
BRANCH   8  11
ATOM     11  O   UNL     1       6.067  -5.194  28.772  0.00  0.00    -0.491 OA
ATOM     12  C   UNL     1       6.261  -6.393  29.511  0.00  0.00    +0.277 C 
ENDBRANCH   8  11
BRANCH   7  13
ATOM     13  O   UNL     1       3.942  -5.550  27.275  0.00  0.00    -0.491 OA
ATOM     14  C   UNL     1       3.247  -6.765  27.033  0.00  0.00    +0.277 C 
ENDBRANCH   7  13
BRANCH   1  15
ATOM     15  C   UNL     1       8.207  -2.642  23.617  0.00  0.00    +0.015 C 
BRANCH  15  16
ATOM     16  C   UNL     1       9.568  -1.968  23.880  0.00  0.00    -0.008 C 
ATOM     17  C   UNL     1       9.538  -0.980  25.050  0.00  0.00    +0.019 C 
ATOM     18  C   UNL     1       8.804   0.317  24.697  0.00  0.00    +0.085 C 
ATOM     19  N   UNL     1       9.318   0.987  23.495  0.00  0.00    -0.298 NA
ATOM     20  C   UNL     1       9.328   0.069  22.348  0.00  0.00    +0.085 C 
ATOM     21  C   UNL     1      10.067  -1.248  22.611  0.00  0.00    +0.019 C 
BRANCH  19  22
ATOM     22  C   UNL     1      10.617   1.636  23.742  0.00  0.00    +0.119 C 
BRANCH  22  23
ATOM     23  C   UNL     1      10.556   3.149  23.737  0.00  0.00    -0.033 A 
ATOM     24  C   UNL     1       9.379   3.816  24.100  0.00  0.00    +0.005 A 
ATOM     25  C   UNL     1       9.324   5.213  24.101  0.00  0.00    +0.000 A 
ATOM     26  C   UNL     1      10.446   5.953  23.734  0.00  0.00    +0.000 A 
ATOM     27  C   UNL     1      11.619   5.303  23.361  0.00  0.00    +0.000 A 
ATOM     28  C   UNL     1      11.675   3.907  23.358  0.00  0.00    +0.005 A 
ENDBRANCH  22  23
ENDBRANCH  19  22
ENDBRANCH  15  16
ENDBRANCH   1  15
TORSDOF 6
ENDMDL
MODEL 3
REMARK VINA RESULT:      -7.4      1.851      3.322
REMARK  Name = 
REMARK  8 active torsions:
REMARK  status: ('A' for Active; 'I' for Inactive)
REMARK    1  A    between atoms: C_2  and  C_3
REMARK    2  A    between atoms: C_3  and  C_4
REMARK    3  A    between atoms: N_7  and  C_8
REMARK    4  A    between atoms: C_8  and  C_9
REMARK    5  A    between atoms: C_20  and  O_21
REMARK    6  A    between atoms: O_21  and  C_22
REMARK    7  A    between atoms: C_23  and  O_24
REMARK    8  A    between atoms: O_24  and  C_25
REMARK                            x       y       z     vdW  Elec       q    Type
REMARK                         _______ _______ _______ _____ _____    ______ ____
ROOT
ATOM      1  C   UNL     1       8.154  -3.946  23.421  0.00  0.00    +0.065 C 
ATOM      2  C   UNL     1       8.458  -5.036  24.434  0.00  0.00    +0.167 C 
ATOM      3  O   UNL     1       9.437  -5.754  24.471  0.00  0.00    -0.292 OA
ATOM      4  C   UNL     1       7.390  -5.017  25.430  0.00  0.00    +0.025 A 
ATOM      5  C   UNL     1       6.302  -4.383  24.842  0.00  0.00    -0.033 A 
ATOM      6  C   UNL     1       5.136  -4.202  25.560  0.00  0.00    +0.053 A 
ATOM      7  C   UNL     1       5.126  -4.564  26.914  0.00  0.00    +0.162 A 
ATOM      8  C   UNL     1       6.300  -5.081  27.535  0.00  0.00    +0.162 A 
ATOM      9  C   UNL     1       7.437  -5.357  26.768  0.00  0.00    +0.061 A 
ATOM     10  C   UNL     1       6.605  -3.956  23.439  0.00  0.00    +0.047 C 
ENDROOT
BRANCH   8  11
ATOM     11  O   UNL     1       6.221  -5.263  28.894  0.00  0.00    -0.491 OA
ATOM     12  C   UNL     1       6.246  -6.598  29.384  0.00  0.00    +0.277 C 
ENDBRANCH   8  11
BRANCH   7  13
ATOM     13  O   UNL     1       4.030  -4.408  27.732  0.00  0.00    -0.491 OA
ATOM     14  C   UNL     1       3.027  -5.410  27.655  0.00  0.00    +0.277 C 
ENDBRANCH   7  13
BRANCH   1  15
ATOM     15  C   UNL     1       8.812  -2.659  23.977  0.00  0.00    +0.015 C 
BRANCH  15  16
ATOM     16  C   UNL     1       8.001  -1.351  23.890  0.00  0.00    -0.008 C 
ATOM     17  C   UNL     1       8.313  -0.527  22.638  0.00  0.00    +0.019 C 
ATOM     18  C   UNL     1       9.679   0.160  22.719  0.00  0.00    +0.085 C 
ATOM     19  N   UNL     1       9.861   0.990  23.918  0.00  0.00    -0.298 NA
ATOM     20  C   UNL     1       9.597   0.213  25.137  0.00  0.00    +0.085 C 
ATOM     21  C   UNL     1       8.235  -0.488  25.147  0.00  0.00    +0.019 C 
BRANCH  19  22
ATOM     22  C   UNL     1       9.089   2.243  23.839  0.00  0.00    +0.119 C 
BRANCH  22  23
ATOM     23  C   UNL     1       9.950   3.487  23.768  0.00  0.00    -0.033 A 
ATOM     24  C   UNL     1      11.278   3.412  23.329  0.00  0.00    +0.005 A 
ATOM     25  C   UNL     1      12.070   4.561  23.258  0.00  0.00    +0.000 A 
ATOM     26  C   UNL     1      11.541   5.795  23.630  0.00  0.00    +0.000 A 
ATOM     27  C   UNL     1      10.226   5.882  24.080  0.00  0.00    +0.000 A 
ATOM     28  C   UNL     1       9.433   4.734  24.152  0.00  0.00    +0.005 A 
ENDBRANCH  22  23
ENDBRANCH  19  22
ENDBRANCH  15  16
ENDBRANCH   1  15
TORSDOF 6
ENDMDL
MODEL 4
REMARK VINA RESULT:      -7.2      1.648      2.284
REMARK  Name = 
REMARK  8 active torsions:
REMARK  status: ('A' for Active; 'I' for Inactive)
REMARK    1  A    between atoms: C_2  and  C_3
REMARK    2  A    between atoms: C_3  and  C_4
REMARK    3  A    between atoms: N_7  and  C_8
REMARK    4  A    between atoms: C_8  and  C_9
REMARK    5  A    between atoms: C_20  and  O_21
REMARK    6  A    between atoms: O_21  and  C_22
REMARK    7  A    between atoms: C_23  and  O_24
REMARK    8  A    between atoms: O_24  and  C_25
REMARK                            x       y       z     vdW  Elec       q    Type
REMARK                         _______ _______ _______ _____ _____    ______ ____
ROOT
ATOM      1  C   UNL     1       8.265  -3.793  23.604  0.00  0.00    +0.065 C 
ATOM      2  C   UNL     1       7.451  -3.559  24.865  0.00  0.00    +0.167 C 
ATOM      3  O   UNL     1       7.842  -3.093  25.917  0.00  0.00    -0.292 OA
ATOM      4  C   UNL     1       6.068  -3.918  24.565  0.00  0.00    +0.025 A 
ATOM      5  C   UNL     1       6.101  -4.759  23.459  0.00  0.00    -0.033 A 
ATOM      6  C   UNL     1       4.924  -5.252  22.930  0.00  0.00    +0.053 A 
ATOM      7  C   UNL     1       3.712  -4.790  23.460  0.00  0.00    +0.162 A 
ATOM      8  C   UNL     1       3.700  -3.816  24.500  0.00  0.00    +0.162 A 
ATOM      9  C   UNL     1       4.898  -3.409  25.096  0.00  0.00    +0.061 A 
ATOM     10  C   UNL     1       7.502  -4.989  22.982  0.00  0.00    +0.047 C 
ENDROOT
BRANCH   8  11
ATOM     11  O   UNL     1       2.462  -3.327  24.841  0.00  0.00    -0.491 OA
ATOM     12  C   UNL     1       1.861  -3.823  26.030  0.00  0.00    +0.277 C 
ENDBRANCH   8  11
BRANCH   7  13
ATOM     13  O   UNL     1       2.480  -5.193  22.996  0.00  0.00    -0.491 OA
ATOM     14  C   UNL     1       2.217  -6.589  23.009  0.00  0.00    +0.277 C 
ENDBRANCH   7  13
BRANCH   1  15
ATOM     15  C   UNL     1       8.188  -2.471  22.801  0.00  0.00    +0.015 C 
BRANCH  15  16
ATOM     16  C   UNL     1       9.510  -1.732  22.520  0.00  0.00    -0.008 C 
ATOM     17  C   UNL     1      10.207  -1.234  23.790  0.00  0.00    +0.019 C 
ATOM     18  C   UNL     1       9.497  -0.025  24.407  0.00  0.00    +0.085 C 
ATOM     19  N   UNL     1       9.304   1.095  23.475  0.00  0.00    -0.298 NA
ATOM     20  C   UNL     1       8.609   0.650  22.260  0.00  0.00    +0.085 C 
ATOM     21  C   UNL     1       9.271  -0.545  21.565  0.00  0.00    +0.019 C 
BRANCH  19  22
ATOM     22  C   UNL     1      10.565   1.807  23.206  0.00  0.00    +0.119 C 
BRANCH  22  23
ATOM     23  C   UNL     1      10.501   3.293  23.490  0.00  0.00    -0.033 A 
ATOM     24  C   UNL     1       9.302   3.888  23.906  0.00  0.00    +0.005 A 
ATOM     25  C   UNL     1       9.245   5.259  24.174  0.00  0.00    +0.000 A 
ATOM     26  C   UNL     1      10.384   6.046  24.023  0.00  0.00    +0.000 A 
ATOM     27  C   UNL     1      11.579   5.469  23.599  0.00  0.00    +0.000 A 
ATOM     28  C   UNL     1      11.638   4.100  23.330  0.00  0.00    +0.005 A 
ENDBRANCH  22  23
ENDBRANCH  19  22
ENDBRANCH  15  16
ENDBRANCH   1  15
TORSDOF 6
ENDMDL
MODEL 5
REMARK VINA RESULT:      -7.2      3.777      9.054
REMARK  Name = 
REMARK  8 active torsions:
REMARK  status: ('A' for Active; 'I' for Inactive)
REMARK    1  A    between atoms: C_2  and  C_3
REMARK    2  A    between atoms: C_3  and  C_4
REMARK    3  A    between atoms: N_7  and  C_8
REMARK    4  A    between atoms: C_8  and  C_9
REMARK    5  A    between atoms: C_20  and  O_21
REMARK    6  A    between atoms: O_21  and  C_22
REMARK    7  A    between atoms: C_23  and  O_24
REMARK    8  A    between atoms: O_24  and  C_25
REMARK                            x       y       z     vdW  Elec       q    Type
REMARK                         _______ _______ _______ _____ _____    ______ ____
ROOT
ATOM      1  C   UNL     1      10.207   0.814  23.309  0.00  0.00    +0.065 C 
ATOM      2  C   UNL     1       9.318   1.240  22.152  0.00  0.00    +0.167 C 
ATOM      3  O   UNL     1       9.008   0.578  21.181  0.00  0.00    -0.292 OA
ATOM      4  C   UNL     1       8.821   2.579  22.453  0.00  0.00    +0.025 A 
ATOM      5  C   UNL     1       9.689   3.130  23.389  0.00  0.00    -0.033 A 
ATOM      6  C   UNL     1       9.459   4.400  23.881  0.00  0.00    +0.053 A 
ATOM      7  C   UNL     1       8.280   5.056  23.503  0.00  0.00    +0.162 A 
ATOM      8  C   UNL     1       7.332   4.414  22.654  0.00  0.00    +0.162 A 
ATOM      9  C   UNL     1       7.631   3.173  22.081  0.00  0.00    +0.061 A 
ATOM     10  C   UNL     1      10.791   2.181  23.745  0.00  0.00    +0.047 C 
ENDROOT
BRANCH   8  11
ATOM     11  O   UNL     1       6.149   5.086  22.469  0.00  0.00    -0.491 OA
ATOM     12  C   UNL     1       4.975   4.528  23.043  0.00  0.00    +0.277 C 
ENDBRANCH   8  11
BRANCH   7  13
ATOM     13  O   UNL     1       7.936   6.312  23.949  0.00  0.00    -0.491 OA
ATOM     14  C   UNL     1       8.982   7.108  24.489  0.00  0.00    +0.277 C 
ENDBRANCH   7  13
BRANCH   1  15
ATOM     15  C   UNL     1       9.266   0.139  24.336  0.00  0.00    +0.015 C 
BRANCH  15  16
ATOM     16  C   UNL     1       9.593  -1.306  24.758  0.00  0.00    -0.008 C 
ATOM     17  C   UNL     1       9.846  -2.241  23.571  0.00  0.00    +0.019 C 
ATOM     18  C   UNL     1       8.555  -2.600  22.828  0.00  0.00    +0.085 C 
ATOM     19  N   UNL     1       7.506  -3.163  23.689  0.00  0.00    -0.298 NA
ATOM     20  C   UNL     1       7.223  -2.270  24.821  0.00  0.00    +0.085 C 
ATOM     21  C   UNL     1       8.462  -1.881  25.634  0.00  0.00    +0.019 C 
BRANCH  19  22
ATOM     22  C   UNL     1       7.813  -4.546  24.093  0.00  0.00    +0.119 C 
BRANCH  22  23
ATOM     23  C   UNL     1       6.604  -5.330  24.557  0.00  0.00    -0.033 A 
ATOM     24  C   UNL     1       5.632  -5.752  23.640  0.00  0.00    +0.005 A 
ATOM     25  C   UNL     1       4.519  -6.481  24.068  0.00  0.00    +0.000 A 
ATOM     26  C   UNL     1       4.366  -6.790  25.418  0.00  0.00    +0.000 A 
ATOM     27  C   UNL     1       5.319  -6.367  26.342  0.00  0.00    +0.000 A 
ATOM     28  C   UNL     1       6.431  -5.637  25.915  0.00  0.00    +0.005 A 
ENDBRANCH  22  23
ENDBRANCH  19  22
ENDBRANCH  15  16
ENDBRANCH   1  15
TORSDOF 6
ENDMDL
MODEL 6
REMARK VINA RESULT:      -6.9      1.543      2.306
REMARK  Name = 
REMARK  8 active torsions:
REMARK  status: ('A' for Active; 'I' for Inactive)
REMARK    1  A    between atoms: C_2  and  C_3
REMARK    2  A    between atoms: C_3  and  C_4
REMARK    3  A    between atoms: N_7  and  C_8
REMARK    4  A    between atoms: C_8  and  C_9
REMARK    5  A    between atoms: C_20  and  O_21
REMARK    6  A    between atoms: O_21  and  C_22
REMARK    7  A    between atoms: C_23  and  O_24
REMARK    8  A    between atoms: O_24  and  C_25
REMARK                            x       y       z     vdW  Elec       q    Type
REMARK                         _______ _______ _______ _____ _____    ______ ____
ROOT
ATOM      1  C   UNL     1       9.182  -2.150  25.035  0.00  0.00    +0.065 C 
ATOM      2  C   UNL     1       7.730  -2.243  25.472  0.00  0.00    +0.167 C 
ATOM      3  O   UNL     1       7.167  -1.559  26.304  0.00  0.00    -0.292 OA
ATOM      4  C   UNL     1       7.088  -3.259  24.644  0.00  0.00    +0.025 A 
ATOM      5  C   UNL     1       8.102  -4.064  24.137  0.00  0.00    -0.033 A 
ATOM      6  C   UNL     1       7.795  -5.115  23.295  0.00  0.00    +0.053 A 
ATOM      7  C   UNL     1       6.465  -5.267  22.880  0.00  0.00    +0.162 A 
ATOM      8  C   UNL     1       5.464  -4.343  23.298  0.00  0.00    +0.162 A 
ATOM      9  C   UNL     1       5.772  -3.350  24.235  0.00  0.00    +0.061 A 
ATOM     10  C   UNL     1       9.451  -3.613  24.606  0.00  0.00    +0.047 C 
ENDROOT
BRANCH   8  11
ATOM     11  O   UNL     1       4.230  -4.500  22.716  0.00  0.00    -0.491 OA
ATOM     12  C   UNL     1       3.165  -4.959  23.538  0.00  0.00    +0.277 C 
ENDBRANCH   8  11
BRANCH   7  13
ATOM     13  O   UNL     1       6.048  -6.262  22.024  0.00  0.00    -0.491 OA
ATOM     14  C   UNL     1       6.179  -6.006  20.633  0.00  0.00    +0.277 C 
ENDBRANCH   7  13
BRANCH   1  15
ATOM     15  C   UNL     1       9.211  -1.110  23.888  0.00  0.00    +0.015 C 
BRANCH  15  16
ATOM     16  C   UNL     1       8.450   0.212  24.109  0.00  0.00    -0.008 C 
ATOM     17  C   UNL     1       8.068   0.916  22.803  0.00  0.00    +0.019 C 
ATOM     18  C   UNL     1       9.276   1.561  22.115  0.00  0.00    +0.085 C 
ATOM     19  N   UNL     1      10.030   2.484  22.974  0.00  0.00    -0.298 NA
ATOM     20  C   UNL     1      10.435   1.823  24.222  0.00  0.00    +0.085 C 
ATOM     21  C   UNL     1       9.279   1.171  24.987  0.00  0.00    +0.019 C 
BRANCH  19  22
ATOM     22  C   UNL     1       9.308   3.750  23.186  0.00  0.00    +0.119 C 
BRANCH  22  23
ATOM     23  C   UNL     1      10.148   4.832  23.832  0.00  0.00    -0.033 A 
ATOM     24  C   UNL     1      11.498   4.986  23.491  0.00  0.00    +0.005 A 
ATOM     25  C   UNL     1      12.271   5.988  24.084  0.00  0.00    +0.000 A 
ATOM     26  C   UNL     1      11.701   6.842  25.025  0.00  0.00    +0.000 A 
ATOM     27  C   UNL     1      10.363   6.694  25.381  0.00  0.00    +0.000 A 
ATOM     28  C   UNL     1       9.589   5.691  24.791  0.00  0.00    +0.005 A 
ENDBRANCH  22  23
ENDBRANCH  19  22
ENDBRANCH  15  16
ENDBRANCH   1  15
TORSDOF 6
ENDMDL
MODEL 7
REMARK VINA RESULT:      -6.9      3.479      8.905
REMARK  Name = 
REMARK  8 active torsions:
REMARK  status: ('A' for Active; 'I' for Inactive)
REMARK    1  A    between atoms: C_2  and  C_3
REMARK    2  A    between atoms: C_3  and  C_4
REMARK    3  A    between atoms: N_7  and  C_8
REMARK    4  A    between atoms: C_8  and  C_9
REMARK    5  A    between atoms: C_20  and  O_21
REMARK    6  A    between atoms: O_21  and  C_22
REMARK    7  A    between atoms: C_23  and  O_24
REMARK    8  A    between atoms: O_24  and  C_25
REMARK                            x       y       z     vdW  Elec       q    Type
REMARK                         _______ _______ _______ _____ _____    ______ ____
ROOT
ATOM      1  C   UNL     1       9.925  -0.988  24.027  0.00  0.00    +0.065 C 
ATOM      2  C   UNL     1       9.364  -0.567  22.679  0.00  0.00    +0.167 C 
ATOM      3  O   UNL     1       9.095  -1.287  21.738  0.00  0.00    -0.292 OA
ATOM      4  C   UNL     1       9.119   0.871  22.737  0.00  0.00    +0.025 A 
ATOM      5  C   UNL     1       9.907   1.373  23.766  0.00  0.00    -0.033 A 
ATOM      6  C   UNL     1       9.871   2.719  24.071  0.00  0.00    +0.053 A 
ATOM      7  C   UNL     1       8.944   3.528  23.400  0.00  0.00    +0.162 A 
ATOM      8  C   UNL     1       8.045   2.965  22.448  0.00  0.00    +0.162 A 
ATOM      9  C   UNL     1       8.168   1.622  22.075  0.00  0.00    +0.061 A 
ATOM     10  C   UNL     1      10.701   0.290  24.431  0.00  0.00    +0.047 C 
ENDROOT
BRANCH   8  11
ATOM     11  O   UNL     1       7.084   3.818  21.962  0.00  0.00    -0.491 OA
ATOM     12  C   UNL     1       5.761   3.676  22.462  0.00  0.00    +0.277 C 
ENDBRANCH   8  11
BRANCH   7  13
ATOM     13  O   UNL     1       8.803   4.877  23.638  0.00  0.00    -0.491 OA
ATOM     14  C   UNL     1       8.625   5.272  24.991  0.00  0.00    +0.277 C 
ENDBRANCH   7  13
BRANCH   1  15
ATOM     15  C   UNL     1       8.696  -1.320  24.908  0.00  0.00    +0.015 C 
BRANCH  15  16
ATOM     16  C   UNL     1       8.552  -2.770  25.410  0.00  0.00    -0.008 C 
ATOM     17  C   UNL     1       8.811  -3.816  24.321  0.00  0.00    +0.019 C 
ATOM     18  C   UNL     1       7.662  -3.902  23.312  0.00  0.00    +0.085 C 
ATOM     19  N   UNL     1       6.346  -4.136  23.922  0.00  0.00    -0.298 NA
ATOM     20  C   UNL     1       6.060  -3.126  24.950  0.00  0.00    +0.085 C 
ATOM     21  C   UNL     1       7.152  -2.994  26.016  0.00  0.00    +0.019 C 
BRANCH  19  22
ATOM     22  C   UNL     1       6.203  -5.521  24.400  0.00  0.00    +0.119 C 
BRANCH  22  23
ATOM     23  C   UNL     1       4.806  -6.083  24.238  0.00  0.00    -0.033 A 
ATOM     24  C   UNL     1       4.332  -7.077  25.103  0.00  0.00    +0.005 A 
ATOM     25  C   UNL     1       3.040  -7.591  24.957  0.00  0.00    +0.000 A 
ATOM     26  C   UNL     1       2.214  -7.117  23.940  0.00  0.00    +0.000 A 
ATOM     27  C   UNL     1       2.676  -6.136  23.066  0.00  0.00    +0.000 A 
ATOM     28  C   UNL     1       3.968  -5.623  23.210  0.00  0.00    +0.005 A 
ENDBRANCH  22  23
ENDBRANCH  19  22
ENDBRANCH  15  16
ENDBRANCH   1  15
TORSDOF 6
ENDMDL
MODEL 8
REMARK VINA RESULT:      -6.9      3.847      9.338
REMARK  Name = 
REMARK  8 active torsions:
REMARK  status: ('A' for Active; 'I' for Inactive)
REMARK    1  A    between atoms: C_2  and  C_3
REMARK    2  A    between atoms: C_3  and  C_4
REMARK    3  A    between atoms: N_7  and  C_8
REMARK    4  A    between atoms: C_8  and  C_9
REMARK    5  A    between atoms: C_20  and  O_21
REMARK    6  A    between atoms: O_21  and  C_22
REMARK    7  A    between atoms: C_23  and  O_24
REMARK    8  A    between atoms: O_24  and  C_25
REMARK                            x       y       z     vdW  Elec       q    Type
REMARK                         _______ _______ _______ _____ _____    ______ ____
ROOT
ATOM      1  C   UNL     1       8.756   0.213  22.762  0.00  0.00    +0.065 C 
ATOM      2  C   UNL     1       7.895   1.448  22.561  0.00  0.00    +0.167 C 
ATOM      3  O   UNL     1       6.723   1.484  22.243  0.00  0.00    -0.292 OA
ATOM      4  C   UNL     1       8.710   2.610  22.905  0.00  0.00    +0.025 A 
ATOM      5  C   UNL     1      10.038   2.212  22.814  0.00  0.00    -0.033 A 
ATOM      6  C   UNL     1      11.050   3.106  23.103  0.00  0.00    +0.053 A 
ATOM      7  C   UNL     1      10.699   4.369  23.597  0.00  0.00    +0.162 A 
ATOM      8  C   UNL     1       9.332   4.708  23.818  0.00  0.00    +0.162 A 
ATOM      9  C   UNL     1       8.318   3.830  23.420  0.00  0.00    +0.061 A 
ATOM     10  C   UNL     1      10.156   0.774  22.410  0.00  0.00    +0.047 C 
ENDROOT
BRANCH   8  11
ATOM     11  O   UNL     1       9.112   5.912  24.441  0.00  0.00    -0.491 OA
ATOM     12  C   UNL     1       8.630   5.886  25.778  0.00  0.00    +0.277 C 
ENDBRANCH   8  11
BRANCH   7  13
ATOM     13  O   UNL     1      11.622   5.332  23.940  0.00  0.00    -0.491 OA
ATOM     14  C   UNL     1      12.846   5.330  23.219  0.00  0.00    +0.277 C 
ENDBRANCH   7  13
BRANCH   1  15
ATOM     15  C   UNL     1       8.563  -0.198  24.242  0.00  0.00    +0.015 C 
BRANCH  15  16
ATOM     16  C   UNL     1       9.107  -1.573  24.675  0.00  0.00    -0.008 C 
ATOM     17  C   UNL     1       8.959  -2.650  23.595  0.00  0.00    +0.019 C 
ATOM     18  C   UNL     1       7.509  -3.116  23.434  0.00  0.00    +0.085 C 
ATOM     19  N   UNL     1       6.886  -3.577  24.683  0.00  0.00    -0.298 NA
ATOM     20  C   UNL     1       6.988  -2.549  25.728  0.00  0.00    +0.085 C 
ATOM     21  C   UNL     1       8.414  -2.044  25.970  0.00  0.00    +0.019 C 
BRANCH  19  22
ATOM     22  C   UNL     1       7.401  -4.893  25.099  0.00  0.00    +0.119 C 
BRANCH  22  23
ATOM     23  C   UNL     1       6.578  -5.555  26.184  0.00  0.00    -0.033 A 
ATOM     24  C   UNL     1       7.019  -5.555  27.514  0.00  0.00    +0.005 A 
ATOM     25  C   UNL     1       6.256  -6.161  28.516  0.00  0.00    +0.000 A 
ATOM     26  C   UNL     1       5.048  -6.778  28.195  0.00  0.00    +0.000 A 
ATOM     27  C   UNL     1       4.604  -6.795  26.875  0.00  0.00    +0.000 A 
ATOM     28  C   UNL     1       5.366  -6.191  25.872  0.00  0.00    +0.005 A 
ENDBRANCH  22  23
ENDBRANCH  19  22
ENDBRANCH  15  16
ENDBRANCH   1  15
TORSDOF 6
ENDMDL
MODEL 9
REMARK VINA RESULT:      -6.9      3.715      8.940
REMARK  Name = 
REMARK  8 active torsions:
REMARK  status: ('A' for Active; 'I' for Inactive)
REMARK    1  A    between atoms: C_2  and  C_3
REMARK    2  A    between atoms: C_3  and  C_4
REMARK    3  A    between atoms: N_7  and  C_8
REMARK    4  A    between atoms: C_8  and  C_9
REMARK    5  A    between atoms: C_20  and  O_21
REMARK    6  A    between atoms: O_21  and  C_22
REMARK    7  A    between atoms: C_23  and  O_24
REMARK    8  A    between atoms: O_24  and  C_25
REMARK                            x       y       z     vdW  Elec       q    Type
REMARK                         _______ _______ _______ _____ _____    ______ ____
ROOT
ATOM      1  C   UNL     1      10.502   0.382  23.331  0.00  0.00    +0.065 C 
ATOM      2  C   UNL     1       9.634   0.742  22.137  0.00  0.00    +0.167 C 
ATOM      3  O   UNL     1       9.397   0.052  21.165  0.00  0.00    -0.292 OA
ATOM      4  C   UNL     1       9.052   2.055  22.399  0.00  0.00    +0.025 A 
ATOM      5  C   UNL     1       9.852   2.666  23.357  0.00  0.00    -0.033 A 
ATOM      6  C   UNL     1       9.534   3.927  23.821  0.00  0.00    +0.053 A 
ATOM      7  C   UNL     1       8.334   4.510  23.392  0.00  0.00    +0.162 A 
ATOM      8  C   UNL     1       7.457   3.805  22.518  0.00  0.00    +0.162 A 
ATOM      9  C   UNL     1       7.845   2.576  21.975  0.00  0.00    +0.061 A 
ATOM     10  C   UNL     1      10.992   1.785  23.768  0.00  0.00    +0.047 C 
ENDROOT
BRANCH   8  11
ATOM     11  O   UNL     1       6.246   4.407  22.280  0.00  0.00    -0.491 OA
ATOM     12  C   UNL     1       5.071   3.706  22.667  0.00  0.00    +0.277 C 
ENDBRANCH   8  11
BRANCH   7  13
ATOM     13  O   UNL     1       7.904   5.751  23.806  0.00  0.00    -0.491 OA
ATOM     14  C   UNL     1       8.882   6.780  23.864  0.00  0.00    +0.277 C 
ENDBRANCH   7  13
BRANCH   1  15
ATOM     15  C   UNL     1       9.562  -0.332  24.334  0.00  0.00    +0.015 C 
BRANCH  15  16
ATOM     16  C   UNL     1       8.513  -1.302  23.758  0.00  0.00    -0.008 C 
ATOM     17  C   UNL     1       7.287  -1.474  24.660  0.00  0.00    +0.019 C 
ATOM     18  C   UNL     1       7.594  -2.319  25.901  0.00  0.00    +0.085 C 
ATOM     19  N   UNL     1       8.179  -3.633  25.601  0.00  0.00    -0.298 NA
ATOM     20  C   UNL     1       9.375  -3.493  24.760  0.00  0.00    +0.085 C 
ATOM     21  C   UNL     1       9.147  -2.680  23.481  0.00  0.00    +0.019 C 
BRANCH  19  22
ATOM     22  C   UNL     1       7.178  -4.565  25.052  0.00  0.00    +0.119 C 
BRANCH  22  23
ATOM     23  C   UNL     1       6.441  -5.360  26.108  0.00  0.00    -0.033 A 
ATOM     24  C   UNL     1       5.266  -6.054  25.788  0.00  0.00    +0.005 A 
ATOM     25  C   UNL     1       4.588  -6.793  26.762  0.00  0.00    +0.000 A 
ATOM     26  C   UNL     1       5.078  -6.840  28.066  0.00  0.00    +0.000 A 
ATOM     27  C   UNL     1       6.238  -6.147  28.400  0.00  0.00    +0.000 A 
ATOM     28  C   UNL     1       6.916  -5.406  27.428  0.00  0.00    +0.005 A 
ENDBRANCH  22  23
ENDBRANCH  19  22
ENDBRANCH  15  16
ENDBRANCH   1  15
TORSDOF 6
ENDMDL
