MODEL 1
REMARK VINA RESULT:      -8.2      0.000      0.000
REMARK  Name = 
REMARK  2 active torsions:
REMARK  status: ('A' for Active; 'I' for Inactive)
REMARK    1  A    between atoms: N_10  and  C_11
REMARK    2  A    between atoms: C_11  and  C_12
REMARK                            x       y       z     vdW  Elec       q    Type
REMARK                         _______ _______ _______ _____ _____    ______ ____
ROOT
ATOM      1  N   UNL     1       6.208  -7.131  29.726  0.00  0.00    -0.329 N 
ATOM      2  H   UNL     1       5.296  -7.235  30.151  0.00  0.00    +0.145 HD
ATOM      3  H   UNL     1       6.860  -6.627  30.320  0.00  0.00    +0.145 HD
ATOM      4  C   UNL     1       6.238  -6.672  28.453  0.00  0.00    +0.194 A 
ATOM      5  N   UNL     1       5.214  -7.049  27.638  0.00  0.00    -0.295 N 
ATOM      6  H   UNL     1       4.514  -7.693  27.969  0.00  0.00    +0.172 HD
ATOM      7  C   UNL     1       5.115  -6.678  26.320  0.00  0.00    +0.260 A 
ATOM      8  O   UNL     1       4.205  -7.069  25.597  0.00  0.00    -0.267 OA
ATOM      9  C   UNL     1       6.164  -5.764  25.834  0.00  0.00    +0.067 A 
ATOM     10  C   UNL     1       7.178  -5.422  26.738  0.00  0.00    +0.082 A 
ATOM     11  C   UNL     1       8.194  -4.546  26.330  0.00  0.00    +0.058 A 
ATOM     12  C   UNL     1       8.148  -3.992  25.044  0.00  0.00    +0.093 A 
ATOM     13  N   UNL     1       9.001  -3.100  24.442  0.00  0.00    -0.215 NA
ATOM     14  C   UNL     1       8.474  -2.845  23.270  0.00  0.00    +0.194 A 
ATOM     15  N   UNL     1       8.892  -2.005  22.316  0.00  0.00    -0.310 N 
ATOM     16  H   UNL     1       8.326  -1.714  21.528  0.00  0.00    +0.149 HD
ATOM     17  N   UNL     1       7.344  -3.591  23.066  0.00  0.00    -0.326 N 
ATOM     18  H   UNL     1       6.789  -3.585  22.225  0.00  0.00    +0.169 HD
ATOM     19  C   UNL     1       7.109  -4.343  24.188  0.00  0.00    +0.068 A 
ATOM     20  C   UNL     1       6.105  -5.251  24.528  0.00  0.00    +0.043 A 
ATOM     21  N   UNL     1       7.200  -5.903  28.060  0.00  0.00    -0.216 NA
ENDROOT
BRANCH  15  22
ATOM     22  C   UNL     1      10.233  -1.454  22.346  0.00  0.00    +0.146 C 
BRANCH  22  23
ATOM     23  C   UNL     1      10.218  -0.000  22.736  0.00  0.00    +0.007 A 
ATOM     24  S   UNL     1      10.567   0.476  24.344  0.00  0.00    -0.100 S 
ATOM     25  C   UNL     1      10.280   2.123  23.985  0.00  0.00    +0.045 A 
ATOM     26  C   UNL     1       9.927   2.312  22.666  0.00  0.00    +0.008 A 
ATOM     27  C   UNL     1       9.892   1.085  21.945  0.00  0.00    +0.013 A 
ENDBRANCH  22  23
ENDBRANCH  15  22
TORSDOF 2
ENDMDL
MODEL 2
REMARK VINA RESULT:      -7.7      1.422      2.272
REMARK  Name = 
REMARK  2 active torsions:
REMARK  status: ('A' for Active; 'I' for Inactive)
REMARK    1  A    between atoms: N_10  and  C_11
REMARK    2  A    between atoms: C_11  and  C_12
REMARK                            x       y       z     vdW  Elec       q    Type
REMARK                         _______ _______ _______ _____ _____    ______ ____
ROOT
ATOM      1  N   UNL     1       2.905  -7.916  25.609  0.00  0.00    -0.329 N 
ATOM      2  H   UNL     1       2.879  -8.815  26.071  0.00  0.00    +0.145 HD
ATOM      3  H   UNL     1       2.675  -7.978  24.621  0.00  0.00    +0.145 HD
ATOM      4  C   UNL     1       4.005  -7.155  25.816  0.00  0.00    +0.194 A 
ATOM      5  N   UNL     1       4.588  -7.237  27.044  0.00  0.00    -0.295 N 
ATOM      6  H   UNL     1       4.165  -7.793  27.769  0.00  0.00    +0.172 HD
ATOM      7  C   UNL     1       5.698  -6.516  27.408  0.00  0.00    +0.260 A 
ATOM      8  O   UNL     1       6.175  -6.576  28.536  0.00  0.00    -0.267 OA
ATOM      9  C   UNL     1       6.290  -5.678  26.351  0.00  0.00    +0.067 A 
ATOM     10  C   UNL     1       5.630  -5.654  25.114  0.00  0.00    +0.082 A 
ATOM     11  C   UNL     1       6.158  -4.882  24.070  0.00  0.00    +0.058 A 
ATOM     12  C   UNL     1       7.361  -4.190  24.268  0.00  0.00    +0.093 A 
ATOM     13  N   UNL     1       8.075  -3.406  23.395  0.00  0.00    -0.215 NA
ATOM     14  C   UNL     1       9.158  -3.054  24.043  0.00  0.00    +0.194 A 
ATOM     15  N   UNL     1      10.201  -2.328  23.624  0.00  0.00    -0.310 N 
ATOM     16  H   UNL     1      11.086  -2.270  24.113  0.00  0.00    +0.149 HD
ATOM     17  N   UNL     1       9.138  -3.529  25.328  0.00  0.00    -0.326 N 
ATOM     18  H   UNL     1       9.849  -3.358  26.020  0.00  0.00    +0.169 HD
ATOM     19  C   UNL     1       7.993  -4.261  25.504  0.00  0.00    +0.068 A 
ATOM     20  C   UNL     1       7.479  -4.971  26.591  0.00  0.00    +0.043 A 
ATOM     21  N   UNL     1       4.467  -6.405  24.869  0.00  0.00    -0.216 NA
ENDROOT
BRANCH  15  22
ATOM     22  C   UNL     1      10.117  -1.542  22.408  0.00  0.00    +0.146 C 
BRANCH  22  23
ATOM     23  C   UNL     1      10.172  -0.067  22.708  0.00  0.00    +0.007 A 
ATOM     24  S   UNL     1      10.634   0.491  24.260  0.00  0.00    -0.100 S 
ATOM     25  C   UNL     1      10.378   2.123  23.818  0.00  0.00    +0.045 A 
ATOM     26  C   UNL     1       9.951   2.246  22.513  0.00  0.00    +0.008 A 
ATOM     27  C   UNL     1       9.833   0.980  21.872  0.00  0.00    +0.013 A 
ENDBRANCH  22  23
ENDBRANCH  15  22
TORSDOF 2
ENDMDL
MODEL 3
REMARK VINA RESULT:      -7.5      1.490      2.305
REMARK  Name = 
REMARK  2 active torsions:
REMARK  status: ('A' for Active; 'I' for Inactive)
REMARK    1  A    between atoms: N_10  and  C_11
REMARK    2  A    between atoms: C_11  and  C_12
REMARK                            x       y       z     vdW  Elec       q    Type
REMARK                         _______ _______ _______ _____ _____    ______ ____
ROOT
ATOM      1  N   UNL     1       3.457  -7.469  26.003  0.00  0.00    -0.329 N 
ATOM      2  H   UNL     1       3.536  -8.374  26.448  0.00  0.00    +0.145 HD
ATOM      3  H   UNL     1       3.046  -7.524  25.076  0.00  0.00    +0.145 HD
ATOM      4  C   UNL     1       4.562  -6.688  26.011  0.00  0.00    +0.194 A 
ATOM      5  N   UNL     1       5.369  -6.772  27.105  0.00  0.00    -0.295 N 
ATOM      6  H   UNL     1       5.101  -7.345  27.888  0.00  0.00    +0.172 HD
ATOM      7  C   UNL     1       6.514  -6.031  27.265  0.00  0.00    +0.260 A 
ATOM      8  O   UNL     1       7.197  -6.095  28.281  0.00  0.00    -0.267 OA
ATOM      9  C   UNL     1       6.879  -5.168  26.128  0.00  0.00    +0.067 A 
ATOM     10  C   UNL     1       5.997  -5.144  25.039  0.00  0.00    +0.082 A 
ATOM     11  C   UNL     1       6.303  -4.347  23.927  0.00  0.00    +0.058 A 
ATOM     12  C   UNL     1       7.508  -3.632  23.904  0.00  0.00    +0.093 A 
ATOM     13  N   UNL     1       8.028  -2.822  22.925  0.00  0.00    -0.215 NA
ATOM     14  C   UNL     1       9.208  -2.455  23.362  0.00  0.00    +0.194 A 
ATOM     15  N   UNL     1      10.138  -1.702  22.765  0.00  0.00    -0.310 N 
ATOM     16  H   UNL     1      11.099  -1.630  23.079  0.00  0.00    +0.149 HD
ATOM     17  N   UNL     1       9.441  -2.946  24.620  0.00  0.00    -0.326 N 
ATOM     18  H   UNL     1      10.266  -2.768  25.168  0.00  0.00    +0.169 HD
ATOM     19  C   UNL     1       8.363  -3.704  24.998  0.00  0.00    +0.068 A 
ATOM     20  C   UNL     1       8.078  -4.438  26.151  0.00  0.00    +0.043 A 
ATOM     21  N   UNL     1       4.823  -5.916  25.007  0.00  0.00    -0.216 NA
ENDROOT
BRANCH  15  22
ATOM     22  C   UNL     1       9.811  -0.902  21.600  0.00  0.00    +0.146 C 
BRANCH  22  23
ATOM     23  C   UNL     1       9.448   0.506  21.989  0.00  0.00    +0.007 A 
ATOM     24  S   UNL     1      10.194   1.259  23.335  0.00  0.00    -0.100 S 
ATOM     25  C   UNL     1       9.247   2.671  23.148  0.00  0.00    +0.045 A 
ATOM     26  C   UNL     1       8.381   2.577  22.081  0.00  0.00    +0.008 A 
ATOM     27  C   UNL     1       8.497   1.326  21.411  0.00  0.00    +0.013 A 
ENDBRANCH  22  23
ENDBRANCH  15  22
TORSDOF 2
ENDMDL
MODEL 4
REMARK VINA RESULT:      -7.2      4.786      9.177
REMARK  Name = 
REMARK  2 active torsions:
REMARK  status: ('A' for Active; 'I' for Inactive)
REMARK    1  A    between atoms: N_10  and  C_11
REMARK    2  A    between atoms: C_11  and  C_12
REMARK                            x       y       z     vdW  Elec       q    Type
REMARK                         _______ _______ _______ _____ _____    ______ ____
ROOT
ATOM      1  N   UNL     1      12.920   5.669  23.109  0.00  0.00    -0.329 N 
ATOM      2  H   UNL     1      12.868   6.490  22.521  0.00  0.00    +0.145 HD
ATOM      3  H   UNL     1      13.672   5.042  22.840  0.00  0.00    +0.145 HD
ATOM      4  C   UNL     1      11.764   4.996  23.320  0.00  0.00    +0.194 A 
ATOM      5  N   UNL     1      10.624   5.737  23.390  0.00  0.00    -0.295 N 
ATOM      6  H   UNL     1      10.670   6.742  23.349  0.00  0.00    +0.172 HD
ATOM      7  C   UNL     1       9.380   5.200  23.614  0.00  0.00    +0.260 A 
ATOM      8  O   UNL     1       8.376   5.896  23.716  0.00  0.00    -0.267 OA
ATOM      9  C   UNL     1       9.327   3.730  23.707  0.00  0.00    +0.067 A 
ATOM     10  C   UNL     1      10.546   3.043  23.620  0.00  0.00    +0.082 A 
ATOM     11  C   UNL     1      10.551   1.643  23.691  0.00  0.00    +0.058 A 
ATOM     12  C   UNL     1       9.333   0.957  23.796  0.00  0.00    +0.093 A 
ATOM     13  N   UNL     1       9.090  -0.394  23.849  0.00  0.00    -0.215 NA
ATOM     14  C   UNL     1       7.786  -0.516  23.869  0.00  0.00    +0.194 A 
ATOM     15  N   UNL     1       7.036  -1.624  23.873  0.00  0.00    -0.310 N 
ATOM     16  H   UNL     1       6.041  -1.638  23.686  0.00  0.00    +0.149 HD
ATOM     17  N   UNL     1       7.177   0.711  23.897  0.00  0.00    -0.326 N 
ATOM     18  H   UNL     1       6.183   0.864  23.947  0.00  0.00    +0.169 HD
ATOM     19  C   UNL     1       8.147   1.679  23.855  0.00  0.00    +0.068 A 
ATOM     20  C   UNL     1       8.094   3.074  23.844  0.00  0.00    +0.043 A 
ATOM     21  N   UNL     1      11.771   3.708  23.433  0.00  0.00    -0.216 NA
ENDROOT
BRANCH  15  22
ATOM     22  C   UNL     1       7.623  -2.916  24.174  0.00  0.00    +0.146 C 
BRANCH  22  23
ATOM     23  C   UNL     1       7.239  -3.943  23.143  0.00  0.00    +0.007 A 
ATOM     24  S   UNL     1       6.145  -3.549  21.885  0.00  0.00    -0.100 S 
ATOM     25  C   UNL     1       6.185  -5.144  21.266  0.00  0.00    +0.045 A 
ATOM     26  C   UNL     1       7.016  -5.963  21.998  0.00  0.00    +0.008 A 
ATOM     27  C   UNL     1       7.626  -5.269  23.082  0.00  0.00    +0.013 A 
ENDBRANCH  22  23
ENDBRANCH  15  22
TORSDOF 2
ENDMDL
MODEL 5
REMARK VINA RESULT:      -7.0      3.379      4.818
REMARK  Name = 
REMARK  2 active torsions:
REMARK  status: ('A' for Active; 'I' for Inactive)
REMARK    1  A    between atoms: N_10  and  C_11
REMARK    2  A    between atoms: C_11  and  C_12
REMARK                            x       y       z     vdW  Elec       q    Type
REMARK                         _______ _______ _______ _____ _____    ______ ____
ROOT
ATOM      1  N   UNL     1       6.065  -6.269  21.801  0.00  0.00    -0.329 N 
ATOM      2  H   UNL     1       6.481  -7.166  21.588  0.00  0.00    +0.145 HD
ATOM      3  H   UNL     1       5.605  -5.850  20.998  0.00  0.00    +0.145 HD
ATOM      4  C   UNL     1       6.846  -5.373  22.450  0.00  0.00    +0.194 A 
ATOM      5  N   UNL     1       7.738  -5.872  23.349  0.00  0.00    -0.295 N 
ATOM      6  H   UNL     1       7.752  -6.857  23.555  0.00  0.00    +0.172 HD
ATOM      7  C   UNL     1       8.586  -5.089  24.094  0.00  0.00    +0.260 A 
ATOM      8  O   UNL     1       9.348  -5.563  24.929  0.00  0.00    -0.267 OA
ATOM      9  C   UNL     1       8.533  -3.644  23.811  0.00  0.00    +0.067 A 
ATOM     10  C   UNL     1       7.590  -3.215  22.867  0.00  0.00    +0.082 A 
ATOM     11  C   UNL     1       7.506  -1.851  22.553  0.00  0.00    +0.058 A 
ATOM     12  C   UNL     1       8.400  -0.952  23.151  0.00  0.00    +0.093 A 
ATOM     13  N   UNL     1       8.526   0.404  22.977  0.00  0.00    -0.215 NA
ATOM     14  C   UNL     1       9.556   0.758  23.706  0.00  0.00    +0.194 A 
ATOM     15  N   UNL     1      10.123   1.961  23.848  0.00  0.00    -0.310 N 
ATOM     16  H   UNL     1      11.032   2.115  24.267  0.00  0.00    +0.149 HD
ATOM     17  N   UNL     1      10.059  -0.312  24.397  0.00  0.00    -0.326 N 
ATOM     18  H   UNL     1      10.830  -0.274  25.045  0.00  0.00    +0.169 HD
ATOM     19  C   UNL     1       9.334  -1.426  24.064  0.00  0.00    +0.068 A 
ATOM     20  C   UNL     1       9.421  -2.765  24.451  0.00  0.00    +0.043 A 
ATOM     21  N   UNL     1       6.738  -4.110  22.196  0.00  0.00    -0.216 NA
ENDROOT
BRANCH  15  22
ATOM     22  C   UNL     1       9.438   3.161  23.407  0.00  0.00    +0.146 C 
BRANCH  22  23
ATOM     23  C   UNL     1      10.241   4.395  23.723  0.00  0.00    +0.007 A 
ATOM     24  S   UNL     1      11.911   4.469  23.346  0.00  0.00    -0.100 S 
ATOM     25  C   UNL     1      12.062   6.026  24.039  0.00  0.00    +0.045 A 
ATOM     26  C   UNL     1      10.866   6.485  24.546  0.00  0.00    +0.008 A 
ATOM     27  C   UNL     1       9.814   5.543  24.363  0.00  0.00    +0.013 A 
ENDBRANCH  22  23
ENDBRANCH  15  22
TORSDOF 2
ENDMDL
MODEL 6
REMARK VINA RESULT:      -7.0      4.072      8.408
REMARK  Name = 
REMARK  2 active torsions:
REMARK  status: ('A' for Active; 'I' for Inactive)
REMARK    1  A    between atoms: N_10  and  C_11
REMARK    2  A    between atoms: C_11  and  C_12
REMARK                            x       y       z     vdW  Elec       q    Type
REMARK                         _______ _______ _______ _____ _____    ______ ____
ROOT
ATOM      1  N   UNL     1       6.655   4.806  21.999  0.00  0.00    -0.329 N 
ATOM      2  H   UNL     1       6.790   5.688  22.475  0.00  0.00    +0.145 HD
ATOM      3  H   UNL     1       5.679   4.527  21.962  0.00  0.00    +0.145 HD
ATOM      4  C   UNL     1       7.451   3.779  22.378  0.00  0.00    +0.194 A 
ATOM      5  N   UNL     1       8.722   4.092  22.754  0.00  0.00    -0.295 N 
ATOM      6  H   UNL     1       9.052   5.041  22.681  0.00  0.00    +0.172 HD
ATOM      7  C   UNL     1       9.650   3.160  23.149  0.00  0.00    +0.260 A 
ATOM      8  O   UNL     1      10.801   3.466  23.439  0.00  0.00    -0.267 OA
ATOM      9  C   UNL     1       9.167   1.770  23.219  0.00  0.00    +0.067 A 
ATOM     10  C   UNL     1       7.844   1.535  22.820  0.00  0.00    +0.082 A 
ATOM     11  C   UNL     1       7.332   0.232  22.878  0.00  0.00    +0.058 A 
ATOM     12  C   UNL     1       8.135  -0.801  23.381  0.00  0.00    +0.093 A 
ATOM     13  N   UNL     1       7.843  -2.131  23.560  0.00  0.00    -0.215 NA
ATOM     14  C   UNL     1       8.903  -2.650  24.128  0.00  0.00    +0.194 A 
ATOM     15  N   UNL     1       9.113  -3.902  24.552  0.00  0.00    -0.310 N 
ATOM     16  H   UNL     1       9.876  -4.176  25.160  0.00  0.00    +0.149 HD
ATOM     17  N   UNL     1       9.897  -1.716  24.263  0.00  0.00    -0.326 N 
ATOM     18  H   UNL     1      10.812  -1.894  24.643  0.00  0.00    +0.169 HD
ATOM     19  C   UNL     1       9.434  -0.517  23.787  0.00  0.00    +0.068 A 
ATOM     20  C   UNL     1      10.008   0.753  23.698  0.00  0.00    +0.043 A 
ATOM     21  N   UNL     1       6.995   2.570  22.388  0.00  0.00    -0.216 NA
ENDROOT
BRANCH  15  22
ATOM     22  C   UNL     1       8.237  -4.982  24.139  0.00  0.00    +0.146 C 
BRANCH  22  23
ATOM     23  C   UNL     1       7.189  -5.264  25.182  0.00  0.00    +0.007 A 
ATOM     24  S   UNL     1       7.581  -5.214  26.849  0.00  0.00    -0.100 S 
ATOM     25  C   UNL     1       6.000  -5.687  27.299  0.00  0.00    +0.045 A 
ATOM     26  C   UNL     1       5.185  -5.877  26.204  0.00  0.00    +0.008 A 
ATOM     27  C   UNL     1       5.872  -5.633  24.981  0.00  0.00    +0.013 A 
ENDBRANCH  22  23
ENDBRANCH  15  22
TORSDOF 2
ENDMDL
MODEL 7
REMARK VINA RESULT:      -6.9      4.044      8.307
REMARK  Name = 
REMARK  2 active torsions:
REMARK  status: ('A' for Active; 'I' for Inactive)
REMARK    1  A    between atoms: N_10  and  C_11
REMARK    2  A    between atoms: C_11  and  C_12
REMARK                            x       y       z     vdW  Elec       q    Type
REMARK                         _______ _______ _______ _____ _____    ______ ____
ROOT
ATOM      1  N   UNL     1      11.888   4.569  23.300  0.00  0.00    -0.329 N 
ATOM      2  H   UNL     1      11.830   5.456  22.816  0.00  0.00    +0.145 HD
ATOM      3  H   UNL     1      12.710   4.034  23.037  0.00  0.00    +0.145 HD
ATOM      4  C   UNL     1      10.774   3.801  23.301  0.00  0.00    +0.194 A 
ATOM      5  N   UNL     1       9.578   4.451  23.340  0.00  0.00    -0.295 N 
ATOM      6  H   UNL     1       9.549   5.453  23.431  0.00  0.00    +0.172 HD
ATOM      7  C   UNL     1       8.364   3.809  23.361  0.00  0.00    +0.260 A 
ATOM      8  O   UNL     1       7.303   4.419  23.442  0.00  0.00    -0.267 OA
ATOM      9  C   UNL     1       8.417   2.340  23.263  0.00  0.00    +0.067 A 
ATOM     10  C   UNL     1       9.688   1.751  23.223  0.00  0.00    +0.082 A 
ATOM     11  C   UNL     1       9.795   0.357  23.118  0.00  0.00    +0.058 A 
ATOM     12  C   UNL     1       8.630  -0.415  23.006  0.00  0.00    +0.093 A 
ATOM     13  N   UNL     1       8.490  -1.773  22.864  0.00  0.00    -0.215 NA
ATOM     14  C   UNL     1       7.203  -1.982  22.728  0.00  0.00    +0.194 A 
ATOM     15  N   UNL     1       6.546  -3.127  22.515  0.00  0.00    -0.310 N 
ATOM     16  H   UNL     1       5.578  -3.180  22.222  0.00  0.00    +0.149 HD
ATOM     17  N   UNL     1       6.501  -0.811  22.845  0.00  0.00    -0.326 N 
ATOM     18  H   UNL     1       5.498  -0.731  22.807  0.00  0.00    +0.169 HD
ATOM     19  C   UNL     1       7.391   0.215  23.028  0.00  0.00    +0.068 A 
ATOM     20  C   UNL     1       7.231   1.593  23.185  0.00  0.00    +0.043 A 
ATOM     21  N   UNL     1      10.870   2.512  23.252  0.00  0.00    -0.216 NA
ENDROOT
BRANCH  15  22
ATOM     22  C   UNL     1       7.200  -4.406  22.712  0.00  0.00    +0.146 C 
BRANCH  22  23
ATOM     23  C   UNL     1       7.207  -4.797  24.166  0.00  0.00    +0.007 A 
ATOM     24  S   UNL     1       8.674  -4.833  25.052  0.00  0.00    -0.100 S 
ATOM     25  C   UNL     1       7.882  -5.400  26.458  0.00  0.00    +0.045 A 
ATOM     26  C   UNL     1       6.528  -5.557  26.263  0.00  0.00    +0.008 A 
ATOM     27  C   UNL     1       6.138  -5.208  24.939  0.00  0.00    +0.013 A 
ENDBRANCH  22  23
ENDBRANCH  15  22
TORSDOF 2
ENDMDL
MODEL 8
REMARK VINA RESULT:      -6.9      4.775      9.335
REMARK  Name = 
REMARK  2 active torsions:
REMARK  status: ('A' for Active; 'I' for Inactive)
REMARK    1  A    between atoms: N_10  and  C_11
REMARK    2  A    between atoms: C_11  and  C_12
REMARK                            x       y       z     vdW  Elec       q    Type
REMARK                         _______ _______ _______ _____ _____    ______ ____
ROOT
ATOM      1  N   UNL     1       6.804   6.688  21.477  0.00  0.00    -0.329 N 
ATOM      2  H   UNL     1       6.680   7.564  21.968  0.00  0.00    +0.145 HD
ATOM      3  H   UNL     1       5.930   6.313  21.119  0.00  0.00    +0.145 HD
ATOM      4  C   UNL     1       7.532   5.735  22.105  0.00  0.00    +0.194 A 
ATOM      5  N   UNL     1       8.566   6.162  22.882  0.00  0.00    -0.295 N 
ATOM      6  H   UNL     1       8.800   7.141  22.919  0.00  0.00    +0.172 HD
ATOM      7  C   UNL     1       9.402   5.316  23.567  0.00  0.00    +0.260 A 
ATOM      8  O   UNL     1      10.353   5.727  24.224  0.00  0.00    -0.267 OA
ATOM      9  C   UNL     1       9.073   3.882  23.478  0.00  0.00    +0.067 A 
ATOM     10  C   UNL     1       7.990   3.529  22.661  0.00  0.00    +0.082 A 
ATOM     11  C   UNL     1       7.627   2.179  22.550  0.00  0.00    +0.058 A 
ATOM     12  C   UNL     1       8.322   1.217  23.297  0.00  0.00    +0.093 A 
ATOM     13  N   UNL     1       8.129  -0.140  23.374  0.00  0.00    -0.215 NA
ATOM     14  C   UNL     1       8.989  -0.568  24.265  0.00  0.00    +0.194 A 
ATOM     15  N   UNL     1       9.176  -1.805  24.739  0.00  0.00    -0.310 N 
ATOM     16  H   UNL     1       9.718  -2.020  25.568  0.00  0.00    +0.149 HD
ATOM     17  N   UNL     1       9.777   0.456  24.719  0.00  0.00    -0.326 N 
ATOM     18  H   UNL     1      10.528   0.359  25.383  0.00  0.00    +0.169 HD
ATOM     19  C   UNL     1       9.375   1.617  24.112  0.00  0.00    +0.068 A 
ATOM     20  C   UNL     1       9.809   2.941  24.214  0.00  0.00    +0.043 A 
ATOM     21  N   UNL     1       7.229   4.486  21.967  0.00  0.00    -0.216 NA
ENDROOT
BRANCH  15  22
ATOM     22  C   UNL     1       8.606  -2.954  24.062  0.00  0.00    +0.146 C 
BRANCH  22  23
ATOM     23  C   UNL     1       7.969  -3.904  25.041  0.00  0.00    +0.007 A 
ATOM     24  S   UNL     1       8.810  -4.399  26.449  0.00  0.00    -0.100 S 
ATOM     25  C   UNL     1       7.534  -5.436  26.921  0.00  0.00    +0.045 A 
ATOM     26  C   UNL     1       6.485  -5.406  26.029  0.00  0.00    +0.008 A 
ATOM     27  C   UNL     1       6.736  -4.520  24.943  0.00  0.00    +0.013 A 
ENDBRANCH  22  23
ENDBRANCH  15  22
TORSDOF 2
ENDMDL
MODEL 9
REMARK VINA RESULT:      -6.9      2.811      3.757
REMARK  Name = 
REMARK  2 active torsions:
REMARK  status: ('A' for Active; 'I' for Inactive)
REMARK    1  A    between atoms: N_10  and  C_11
REMARK    2  A    between atoms: C_11  and  C_12
REMARK                            x       y       z     vdW  Elec       q    Type
REMARK                         _______ _______ _______ _____ _____    ______ ____
ROOT
ATOM      1  N   UNL     1       6.618  -5.917  27.929  0.00  0.00    -0.329 N 
ATOM      2  H   UNL     1       6.211  -6.770  27.569  0.00  0.00    +0.145 HD
ATOM      3  H   UNL     1       5.944  -5.339  28.421  0.00  0.00    +0.145 HD
ATOM      4  C   UNL     1       7.363  -5.186  27.066  0.00  0.00    +0.194 A 
ATOM      5  N   UNL     1       8.084  -5.874  26.139  0.00  0.00    -0.295 N 
ATOM      6  H   UNL     1       8.100  -6.881  26.156  0.00  0.00    +0.172 HD
ATOM      7  C   UNL     1       8.897  -5.275  25.209  0.00  0.00    +0.260 A 
ATOM      8  O   UNL     1       9.570  -5.922  24.414  0.00  0.00    -0.267 OA
ATOM      9  C   UNL     1       8.894  -3.801  25.214  0.00  0.00    +0.067 A 
ATOM     10  C   UNL     1       8.120  -3.171  26.198  0.00  0.00    +0.082 A 
ATOM     11  C   UNL     1       8.073  -1.770  26.241  0.00  0.00    +0.058 A 
ATOM     12  C   UNL     1       8.760  -1.030  25.269  0.00  0.00    +0.093 A 
ATOM     13  N   UNL     1       8.834   0.330  25.093  0.00  0.00    -0.215 NA
ATOM     14  C   UNL     1       9.537   0.506  24.002  0.00  0.00    +0.194 A 
ATOM     15  N   UNL     1       9.858   1.642  23.372  0.00  0.00    -0.310 N 
ATOM     16  H   UNL     1      10.230   1.684  22.431  0.00  0.00    +0.149 HD
ATOM     17  N   UNL     1       9.977  -0.692  23.502  0.00  0.00    -0.326 N 
ATOM     18  H   UNL     1      10.561  -0.801  22.689  0.00  0.00    +0.169 HD
ATOM     19  C   UNL     1       9.497  -1.699  24.298  0.00  0.00    +0.068 A 
ATOM     20  C   UNL     1       9.619  -3.089  24.246  0.00  0.00    +0.043 A 
ATOM     21  N   UNL     1       7.359  -3.895  27.133  0.00  0.00    -0.216 NA
ENDROOT
BRANCH  15  22
ATOM     22  C   UNL     1       9.703   2.925  24.029  0.00  0.00    +0.146 C 
BRANCH  22  23
ATOM     23  C   UNL     1       8.343   3.513  23.763  0.00  0.00    +0.007 A 
ATOM     24  S   UNL     1       7.387   4.118  25.050  0.00  0.00    -0.100 S 
ATOM     25  C   UNL     1       6.092   4.490  23.996  0.00  0.00    +0.045 A 
ATOM     26  C   UNL     1       6.379   4.164  22.688  0.00  0.00    +0.008 A 
ATOM     27  C   UNL     1       7.679   3.600  22.554  0.00  0.00    +0.013 A 
ENDBRANCH  22  23
ENDBRANCH  15  22
TORSDOF 2
ENDMDL
