MODEL 1
REMARK VINA RESULT:      -6.0      0.000      0.000
REMARK  Name = 
REMARK  12 active torsions:
REMARK  status: ('A' for Active; 'I' for Inactive)
REMARK    1  A    between atoms: C_1  and  C_2
REMARK    2  A    between atoms: N_4  and  C_5
REMARK    3  A    between atoms: C_7  and  O_9
REMARK    4  A    between atoms: C_11  and  O_12
REMARK    5  A    between atoms: C_11  and  C_24
REMARK    6  A    between atoms: C_14  and  C_16
REMARK    7  A    between atoms: C_16  and  O_18
REMARK    8  A    between atoms: C_16  and  C_19
REMARK    9  A    between atoms: C_19  and  O_21
REMARK   10  A    between atoms: C_19  and  C_22
REMARK   11  A    between atoms: C_22  and  O_23
REMARK   12  A    between atoms: C_24  and  O_25
REMARK                            x       y       z     vdW  Elec       q    Type
REMARK                         _______ _______ _______ _____ _____    ______ ____
ROOT
ATOM      1  C   UNL     1       7.305  -2.907  22.945  0.00  0.00    +0.133 C 
ATOM      2  C   UNL     1       8.755  -2.693  23.433  0.00  0.00    +0.176 C 
ATOM      3  O   UNL     1       9.014  -3.486  24.615  0.00  0.00    -0.332 OA
ATOM      4  C   UNL     1       8.094  -3.347  25.701  0.00  0.00    +0.270 C 
ATOM      5  C   UNL     1       6.621  -3.469  25.294  0.00  0.00    +0.110 C 
ATOM      6  C   UNL     1       6.318  -2.590  24.089  0.00  0.00    +0.143 C 
ENDROOT
BRANCH   1   9
ATOM      7  C   UNL     1       6.313  -6.015  20.975  0.00  0.00    +0.109 C 
ATOM      8  C   UNL     1       6.288  -4.571  21.393  0.00  0.00    +0.210 C 
ATOM      9  N   UNL     1       7.131  -4.280  22.442  0.00  0.00    -0.308 N 
ATOM     10  H   UNL     1       7.725  -5.018  22.814  0.00  0.00    +0.149 HD
ATOM     11  O   UNL     1       5.583  -3.734  20.844  0.00  0.00    -0.276 OA
ENDBRANCH   1   9
BRANCH   4  12
ATOM     12  O   UNL     1       8.325  -2.115  26.405  0.00  0.00    -0.356 OA
ATOM     13  H   UNL     1       8.142  -1.397  25.760  0.00  0.00    +0.213 HD
ENDBRANCH   4  12
BRANCH   4  14
ATOM     14  C   UNL     1       8.401  -4.478  26.726  0.00  0.00    +0.365 C 
ATOM     15  O   UNL     1       7.591  -4.989  27.486  0.00  0.00    -0.245 OA
BRANCH  14  16
ATOM     16  O   UNL     1       9.712  -4.850  26.688  0.00  0.00    -0.477 OA
ATOM     17  H   UNL     1       9.906  -5.131  25.760  0.00  0.00    +0.295 HD
ENDBRANCH  14  16
ENDBRANCH   4  14
BRANCH   6  18
ATOM     18  O   UNL     1       6.424  -1.224  24.512  0.00  0.00    -0.390 OA
ATOM     19  H   UNL     1       7.145  -1.193  25.184  0.00  0.00    +0.210 HD
ENDBRANCH   6  18
BRANCH   2  20
ATOM     20  C   UNL     1       9.262  -1.241  23.663  0.00  0.00    +0.176 C 
BRANCH  20  21
ATOM     21  O   UNL     1      10.259  -1.292  24.702  0.00  0.00    -0.387 OA
ATOM     22  H   UNL     1       9.795  -1.042  25.527  0.00  0.00    +0.210 HD
ENDBRANCH  20  21
BRANCH  20  23
ATOM     23  C   UNL     1       9.862  -0.540  22.436  0.00  0.00    +0.171 C 
BRANCH  23  24
ATOM     24  O   UNL     1      10.161  -1.483  21.397  0.00  0.00    -0.387 OA
ATOM     25  H   UNL     1      10.238  -2.346  21.856  0.00  0.00    +0.210 HD
ENDBRANCH  23  24
BRANCH  23  26
ATOM     26  C   UNL     1       8.876   0.483  21.846  0.00  0.00    +0.189 C 
BRANCH  26  27
ATOM     27  O   UNL     1       9.623   1.615  21.385  0.00  0.00    -0.392 OA
ATOM     28  H   UNL     1       9.658   1.554  20.414  0.00  0.00    +0.210 HD
ENDBRANCH  26  27
ENDBRANCH  23  26
ENDBRANCH  20  23
ENDBRANCH   2  20
TORSDOF 11
ENDMDL
MODEL 2
REMARK VINA RESULT:      -5.8      3.938      6.326
REMARK  Name = 
REMARK  12 active torsions:
REMARK  status: ('A' for Active; 'I' for Inactive)
REMARK    1  A    between atoms: C_1  and  C_2
REMARK    2  A    between atoms: N_4  and  C_5
REMARK    3  A    between atoms: C_7  and  O_9
REMARK    4  A    between atoms: C_11  and  O_12
REMARK    5  A    between atoms: C_11  and  C_24
REMARK    6  A    between atoms: C_14  and  C_16
REMARK    7  A    between atoms: C_16  and  O_18
REMARK    8  A    between atoms: C_16  and  C_19
REMARK    9  A    between atoms: C_19  and  O_21
REMARK   10  A    between atoms: C_19  and  C_22
REMARK   11  A    between atoms: C_22  and  O_23
REMARK   12  A    between atoms: C_24  and  O_25
REMARK                            x       y       z     vdW  Elec       q    Type
REMARK                         _______ _______ _______ _____ _____    ______ ____
ROOT
ATOM      1  C   UNL     1       8.695   2.154  24.788  0.00  0.00    +0.133 C 
ATOM      2  C   UNL     1       7.749   2.162  23.567  0.00  0.00    +0.176 C 
ATOM      3  O   UNL     1       7.823   0.902  22.860  0.00  0.00    -0.332 OA
ATOM      4  C   UNL     1       9.125   0.450  22.481  0.00  0.00    +0.270 C 
ATOM      5  C   UNL     1      10.155   0.481  23.616  0.00  0.00    +0.110 C 
ATOM      6  C   UNL     1      10.133   1.825  24.330  0.00  0.00    +0.143 C 
ENDROOT
BRANCH   1   9
ATOM      7  C   UNL     1       6.901   0.431  27.675  0.00  0.00    +0.109 C 
ATOM      8  C   UNL     1       7.331   1.568  26.790  0.00  0.00    +0.210 C 
ATOM      9  N   UNL     1       8.217   1.200  25.802  0.00  0.00    -0.308 N 
ATOM     10  H   UNL     1       8.470   0.218  25.710  0.00  0.00    +0.149 HD
ATOM     11  O   UNL     1       6.926   2.714  26.937  0.00  0.00    -0.276 OA
ENDBRANCH   1   9
BRANCH   4  12
ATOM     12  O   UNL     1       9.604   1.185  21.342  0.00  0.00    -0.356 OA
ATOM     13  H   UNL     1       8.923   1.867  21.155  0.00  0.00    +0.213 HD
ENDBRANCH   4  12
BRANCH   4  14
ATOM     14  C   UNL     1       8.990  -1.024  22.000  0.00  0.00    +0.365 C 
ATOM     15  O   UNL     1       8.016  -1.744  22.173  0.00  0.00    -0.245 OA
BRANCH  14  16
ATOM     16  O   UNL     1      10.109  -1.445  21.345  0.00  0.00    -0.477 OA
ATOM     17  H   UNL     1      10.375  -0.716  20.732  0.00  0.00    +0.295 HD
ENDBRANCH  14  16
ENDBRANCH   4  14
BRANCH   6  18
ATOM     18  O   UNL     1      10.631   2.810  23.415  0.00  0.00    -0.390 OA
ATOM     19  H   UNL     1      11.033   3.525  23.962  0.00  0.00    +0.210 HD
ENDBRANCH   6  18
BRANCH   2  20
ATOM     20  C   UNL     1       7.847   3.333  22.549  0.00  0.00    +0.176 C 
BRANCH  20  21
ATOM     21  O   UNL     1       6.705   3.241  21.675  0.00  0.00    -0.387 OA
ATOM     22  H   UNL     1       6.766   4.013  21.077  0.00  0.00    +0.210 HD
ENDBRANCH  20  21
BRANCH  20  23
ATOM     23  C   UNL     1       7.894   4.743  23.155  0.00  0.00    +0.171 C 
BRANCH  23  24
ATOM     24  O   UNL     1       9.193   5.331  22.995  0.00  0.00    -0.387 OA
ATOM     25  H   UNL     1       9.265   5.983  23.724  0.00  0.00    +0.210 HD
ENDBRANCH  23  24
BRANCH  23  26
ATOM     26  C   UNL     1       6.888   5.678  22.461  0.00  0.00    +0.189 C 
BRANCH  26  27
ATOM     27  O   UNL     1       7.495   6.185  21.267  0.00  0.00    -0.392 OA
ATOM     28  H   UNL     1       8.186   6.811  21.545  0.00  0.00    +0.210 HD
ENDBRANCH  26  27
ENDBRANCH  23  26
ENDBRANCH  20  23
ENDBRANCH   2  20
TORSDOF 11
ENDMDL
MODEL 3
REMARK VINA RESULT:      -5.6      3.407      6.298
REMARK  Name = 
REMARK  12 active torsions:
REMARK  status: ('A' for Active; 'I' for Inactive)
REMARK    1  A    between atoms: C_1  and  C_2
REMARK    2  A    between atoms: N_4  and  C_5
REMARK    3  A    between atoms: C_7  and  O_9
REMARK    4  A    between atoms: C_11  and  O_12
REMARK    5  A    between atoms: C_11  and  C_24
REMARK    6  A    between atoms: C_14  and  C_16
REMARK    7  A    between atoms: C_16  and  O_18
REMARK    8  A    between atoms: C_16  and  C_19
REMARK    9  A    between atoms: C_19  and  O_21
REMARK   10  A    between atoms: C_19  and  C_22
REMARK   11  A    between atoms: C_22  and  O_23
REMARK   12  A    between atoms: C_24  and  O_25
REMARK                            x       y       z     vdW  Elec       q    Type
REMARK                         _______ _______ _______ _____ _____    ______ ____
ROOT
ATOM      1  C   UNL     1       7.496   1.152  23.281  0.00  0.00    +0.133 C 
ATOM      2  C   UNL     1       8.789   1.134  24.125  0.00  0.00    +0.176 C 
ATOM      3  O   UNL     1       9.183   2.480  24.480  0.00  0.00    -0.332 OA
ATOM      4  C   UNL     1       9.297   3.422  23.411  0.00  0.00    +0.270 C 
ATOM      5  C   UNL     1       8.085   3.455  22.472  0.00  0.00    +0.110 C 
ATOM      6  C   UNL     1       7.697   2.048  22.039  0.00  0.00    +0.143 C 
ENDROOT
BRANCH   1   9
ATOM      7  C   UNL     1       4.657   1.454  25.805  0.00  0.00    +0.109 C 
ATOM      8  C   UNL     1       5.744   0.780  25.014  0.00  0.00    +0.210 C 
ATOM      9  N   UNL     1       6.357   1.604  24.097  0.00  0.00    -0.308 N 
ATOM     10  H   UNL     1       6.080   2.584  24.054  0.00  0.00    +0.149 HD
ATOM     11  O   UNL     1       6.053  -0.393  25.177  0.00  0.00    -0.276 OA
ENDBRANCH   1   9
BRANCH   4  12
ATOM     12  O   UNL     1      10.507   3.201  22.668  0.00  0.00    -0.356 OA
ATOM     13  H   UNL     1      10.230   2.809  21.811  0.00  0.00    +0.213 HD
ENDBRANCH   4  12
BRANCH   4  14
ATOM     14  C   UNL     1       9.448   4.836  24.043  0.00  0.00    +0.365 C 
ATOM     15  O   UNL     1       9.080   5.158  25.164  0.00  0.00    -0.245 OA
BRANCH  14  16
ATOM     16  O   UNL     1      10.051   5.709  23.188  0.00  0.00    -0.477 OA
ATOM     17  H   UNL     1      10.735   5.198  22.689  0.00  0.00    +0.295 HD
ENDBRANCH  14  16
ENDBRANCH   4  14
BRANCH   6  18
ATOM     18  O   UNL     1       8.745   1.550  21.197  0.00  0.00    -0.390 OA
ATOM     19  H   UNL     1       9.587   1.936  21.537  0.00  0.00    +0.210 HD
ENDBRANCH   6  18
BRANCH   2  20
ATOM     20  C   UNL     1      10.025   0.358  23.588  0.00  0.00    +0.176 C 
BRANCH  20  21
ATOM     21  O   UNL     1      11.173   0.801  24.339  0.00  0.00    -0.387 OA
ATOM     22  H   UNL     1      11.024   1.753  24.512  0.00  0.00    +0.210 HD
ENDBRANCH  20  21
BRANCH  20  23
ATOM     23  C   UNL     1       9.941  -1.173  23.670  0.00  0.00    +0.171 C 
BRANCH  23  24
ATOM     24  O   UNL     1       8.989  -1.586  24.661  0.00  0.00    -0.387 OA
ATOM     25  H   UNL     1       8.139  -1.190  24.372  0.00  0.00    +0.210 HD
ENDBRANCH  23  24
BRANCH  23  26
ATOM     26  C   UNL     1       9.488  -1.775  22.329  0.00  0.00    +0.189 C 
BRANCH  26  27
ATOM     27  O   UNL     1       9.977  -0.941  21.272  0.00  0.00    -0.392 OA
ATOM     28  H   UNL     1      10.705  -0.413  21.643  0.00  0.00    +0.210 HD
ENDBRANCH  26  27
ENDBRANCH  23  26
ENDBRANCH  20  23
ENDBRANCH   2  20
TORSDOF 11
ENDMDL
MODEL 4
REMARK VINA RESULT:      -5.6      2.528      5.748
REMARK  Name = 
REMARK  12 active torsions:
REMARK  status: ('A' for Active; 'I' for Inactive)
REMARK    1  A    between atoms: C_1  and  C_2
REMARK    2  A    between atoms: N_4  and  C_5
REMARK    3  A    between atoms: C_7  and  O_9
REMARK    4  A    between atoms: C_11  and  O_12
REMARK    5  A    between atoms: C_11  and  C_24
REMARK    6  A    between atoms: C_14  and  C_16
REMARK    7  A    between atoms: C_16  and  O_18
REMARK    8  A    between atoms: C_16  and  C_19
REMARK    9  A    between atoms: C_19  and  O_21
REMARK   10  A    between atoms: C_19  and  C_22
REMARK   11  A    between atoms: C_22  and  O_23
REMARK   12  A    between atoms: C_24  and  O_25
REMARK                            x       y       z     vdW  Elec       q    Type
REMARK                         _______ _______ _______ _____ _____    ______ ____
ROOT
ATOM      1  C   UNL     1       7.380  -0.966  25.131  0.00  0.00    +0.133 C 
ATOM      2  C   UNL     1       8.788  -1.503  24.791  0.00  0.00    +0.176 C 
ATOM      3  O   UNL     1       9.602  -0.458  24.208  0.00  0.00    -0.332 OA
ATOM      4  C   UNL     1       9.050   0.243  23.091  0.00  0.00    +0.270 C 
ATOM      5  C   UNL     1       7.619   0.748  23.313  0.00  0.00    +0.110 C 
ATOM      6  C   UNL     1       6.734  -0.360  23.867  0.00  0.00    +0.143 C 
ENDROOT
BRANCH   1   9
ATOM      7  C   UNL     1       6.911   0.997  28.364  0.00  0.00    +0.109 C 
ATOM      8  C   UNL     1       6.618  -0.042  27.317  0.00  0.00    +0.210 C 
ATOM      9  N   UNL     1       7.457   0.015  26.226  0.00  0.00    -0.308 N 
ATOM     10  H   UNL     1       8.217   0.693  26.225  0.00  0.00    +0.149 HD
ATOM     11  O   UNL     1       5.717  -0.863  27.430  0.00  0.00    -0.276 OA
ENDBRANCH   1   9
BRANCH   4  12
ATOM     12  O   UNL     1       9.124  -0.560  21.902  0.00  0.00    -0.356 OA
ATOM     13  H   UNL     1       9.891  -1.161  22.029  0.00  0.00    +0.213 HD
ENDBRANCH   4  12
BRANCH   4  14
ATOM     14  C   UNL     1       9.954   1.480  22.818  0.00  0.00    +0.365 C 
ATOM     15  O   UNL     1      10.692   2.017  23.632  0.00  0.00    -0.245 OA
BRANCH  14  16
ATOM     16  O   UNL     1       9.834   1.918  21.533  0.00  0.00    -0.477 OA
ATOM     17  H   UNL     1      10.680   2.377  21.305  0.00  0.00    +0.295 HD
ENDBRANCH  14  16
ENDBRANCH   4  14
BRANCH   6  18
ATOM     18  O   UNL     1       6.574  -1.342  22.836  0.00  0.00    -0.390 OA
ATOM     19  H   UNL     1       6.922  -2.191  23.199  0.00  0.00    +0.210 HD
ENDBRANCH   6  18
BRANCH   2  20
ATOM     20  C   UNL     1       8.911  -2.794  23.932  0.00  0.00    +0.176 C 
BRANCH  20  21
ATOM     21  O   UNL     1      10.304  -2.960  23.600  0.00  0.00    -0.387 OA
ATOM     22  H   UNL     1      10.490  -2.299  22.903  0.00  0.00    +0.210 HD
ENDBRANCH  20  21
BRANCH  20  23
ATOM     23  C   UNL     1       8.402  -4.085  24.590  0.00  0.00    +0.171 C 
BRANCH  23  24
ATOM     24  O   UNL     1       8.406  -5.176  23.657  0.00  0.00    -0.387 OA
ATOM     25  H   UNL     1       7.681  -5.764  23.956  0.00  0.00    +0.210 HD
ENDBRANCH  23  24
BRANCH  23  26
ATOM     26  C   UNL     1       9.299  -4.497  25.769  0.00  0.00    +0.189 C 
BRANCH  26  27
ATOM     27  O   UNL     1      10.236  -5.474  25.302  0.00  0.00    -0.392 OA
ATOM     28  H   UNL     1       9.720  -6.179  24.873  0.00  0.00    +0.210 HD
ENDBRANCH  26  27
ENDBRANCH  23  26
ENDBRANCH  20  23
ENDBRANCH   2  20
TORSDOF 11
ENDMDL
MODEL 5
REMARK VINA RESULT:      -5.6      2.210      4.745
REMARK  Name = 
REMARK  12 active torsions:
REMARK  status: ('A' for Active; 'I' for Inactive)
REMARK    1  A    between atoms: C_1  and  C_2
REMARK    2  A    between atoms: N_4  and  C_5
REMARK    3  A    between atoms: C_7  and  O_9
REMARK    4  A    between atoms: C_11  and  O_12
REMARK    5  A    between atoms: C_11  and  C_24
REMARK    6  A    between atoms: C_14  and  C_16
REMARK    7  A    between atoms: C_16  and  O_18
REMARK    8  A    between atoms: C_16  and  C_19
REMARK    9  A    between atoms: C_19  and  O_21
REMARK   10  A    between atoms: C_19  and  C_22
REMARK   11  A    between atoms: C_22  and  O_23
REMARK   12  A    between atoms: C_24  and  O_25
REMARK                            x       y       z     vdW  Elec       q    Type
REMARK                         _______ _______ _______ _____ _____    ______ ____
ROOT
ATOM      1  C   UNL     1       7.604  -4.052  25.726  0.00  0.00    +0.133 C 
ATOM      2  C   UNL     1       7.176  -2.681  25.158  0.00  0.00    +0.176 C 
ATOM      3  O   UNL     1       6.484  -2.847  23.899  0.00  0.00    -0.332 OA
ATOM      4  C   UNL     1       7.145  -3.621  22.895  0.00  0.00    +0.270 C 
ATOM      5  C   UNL     1       7.674  -4.972  23.391  0.00  0.00    +0.110 C 
ATOM      6  C   UNL     1       8.460  -4.804  24.684  0.00  0.00    +0.143 C 
ENDROOT
BRANCH   1   9
ATOM      7  C   UNL     1       5.106  -6.317  27.503  0.00  0.00    +0.109 C 
ATOM      8  C   UNL     1       6.434  -5.674  27.215  0.00  0.00    +0.210 C 
ATOM      9  N   UNL     1       6.421  -4.834  26.123  0.00  0.00    -0.308 N 
ATOM     10  H   UNL     1       5.541  -4.673  25.638  0.00  0.00    +0.149 HD
ATOM     11  O   UNL     1       7.432  -5.879  27.893  0.00  0.00    -0.276 OA
ENDBRANCH   1   9
BRANCH   4  12
ATOM     12  O   UNL     1       8.199  -2.859  22.282  0.00  0.00    -0.356 OA
ATOM     13  H   UNL     1       8.640  -2.371  23.012  0.00  0.00    +0.213 HD
ENDBRANCH   4  12
BRANCH   4  14
ATOM     14  C   UNL     1       6.117  -3.899  21.760  0.00  0.00    +0.365 C 
ATOM     15  O   UNL     1       6.054  -4.920  21.090  0.00  0.00    -0.245 OA
BRANCH  14  16
ATOM     16  O   UNL     1       5.266  -2.849  21.583  0.00  0.00    -0.477 OA
ATOM     17  H   UNL     1       4.731  -2.768  22.411  0.00  0.00    +0.295 HD
ENDBRANCH  14  16
ENDBRANCH   4  14
BRANCH   6  18
ATOM     18  O   UNL     1       9.659  -4.083  24.371  0.00  0.00    -0.390 OA
ATOM     19  H   UNL     1      10.148  -4.625  23.708  0.00  0.00    +0.210 HD
ENDBRANCH   6  18
BRANCH   2  20
ATOM     20  C   UNL     1       8.246  -1.561  25.016  0.00  0.00    +0.176 C 
BRANCH  20  21
ATOM     21  O   UNL     1       7.662  -0.504  24.229  0.00  0.00    -0.387 OA
ATOM     22  H   UNL     1       8.380   0.145  24.083  0.00  0.00    +0.210 HD
ENDBRANCH  20  21
BRANCH  20  23
ATOM     23  C   UNL     1       8.771  -0.967  26.331  0.00  0.00    +0.171 C 
BRANCH  23  24
ATOM     24  O   UNL     1       9.796   0.007  26.085  0.00  0.00    -0.387 OA
ATOM     25  H   UNL     1       9.763   0.607  26.859  0.00  0.00    +0.210 HD
ENDBRANCH  23  24
BRANCH  23  26
ATOM     26  C   UNL     1       7.648  -0.254  27.103  0.00  0.00    +0.189 C 
BRANCH  26  27
ATOM     27  O   UNL     1       7.718   1.146  26.810  0.00  0.00    -0.392 OA
ATOM     28  H   UNL     1       8.354   1.535  27.437  0.00  0.00    +0.210 HD
ENDBRANCH  26  27
ENDBRANCH  23  26
ENDBRANCH  20  23
ENDBRANCH   2  20
TORSDOF 11
ENDMDL
MODEL 6
REMARK VINA RESULT:      -5.6      1.867      5.333
REMARK  Name = 
REMARK  12 active torsions:
REMARK  status: ('A' for Active; 'I' for Inactive)
REMARK    1  A    between atoms: C_1  and  C_2
REMARK    2  A    between atoms: N_4  and  C_5
REMARK    3  A    between atoms: C_7  and  O_9
REMARK    4  A    between atoms: C_11  and  O_12
REMARK    5  A    between atoms: C_11  and  C_24
REMARK    6  A    between atoms: C_14  and  C_16
REMARK    7  A    between atoms: C_16  and  O_18
REMARK    8  A    between atoms: C_16  and  C_19
REMARK    9  A    between atoms: C_19  and  O_21
REMARK   10  A    between atoms: C_19  and  C_22
REMARK   11  A    between atoms: C_22  and  O_23
REMARK   12  A    between atoms: C_24  and  O_25
REMARK                            x       y       z     vdW  Elec       q    Type
REMARK                         _______ _______ _______ _____ _____    ______ ____
ROOT
ATOM      1  C   UNL     1       7.457  -2.397  23.981  0.00  0.00    +0.133 C 
ATOM      2  C   UNL     1       7.712  -3.899  24.239  0.00  0.00    +0.176 C 
ATOM      3  O   UNL     1       7.329  -4.684  23.085  0.00  0.00    -0.332 OA
ATOM      4  C   UNL     1       6.009  -4.480  22.575  0.00  0.00    +0.270 C 
ATOM      5  C   UNL     1       5.640  -3.008  22.360  0.00  0.00    +0.110 C 
ATOM      6  C   UNL     1       5.979  -2.179  23.591  0.00  0.00    +0.143 C 
ENDROOT
BRANCH   1   9
ATOM      7  C   UNL     1       9.840  -0.307  21.865  0.00  0.00    +0.109 C 
ATOM      8  C   UNL     1       8.855  -0.603  22.961  0.00  0.00    +0.210 C 
ATOM      9  N   UNL     1       8.373  -1.892  22.944  0.00  0.00    -0.308 N 
ATOM     10  H   UNL     1       8.738  -2.544  22.252  0.00  0.00    +0.149 HD
ATOM     11  O   UNL     1       8.518   0.230  23.793  0.00  0.00    -0.276 OA
ENDBRANCH   1   9
BRANCH   4  12
ATOM     12  O   UNL     1       5.038  -5.129  23.412  0.00  0.00    -0.356 OA
ATOM     13  H   UNL     1       5.045  -6.076  23.152  0.00  0.00    +0.213 HD
ENDBRANCH   4  12
BRANCH   4  14
ATOM     14  C   UNL     1       5.920  -5.200  21.198  0.00  0.00    +0.365 C 
ATOM     15  O   UNL     1       5.873  -4.648  20.107  0.00  0.00    -0.245 OA
BRANCH  14  16
ATOM     16  O   UNL     1       5.898  -6.556  21.338  0.00  0.00    -0.477 OA
ATOM     17  H   UNL     1       6.839  -6.853  21.410  0.00  0.00    +0.295 HD
ENDBRANCH  14  16
ENDBRANCH   4  14
BRANCH   6  18
ATOM     18  O   UNL     1       5.093  -2.584  24.642  0.00  0.00    -0.390 OA
ATOM     19  H   UNL     1       4.342  -3.056  24.212  0.00  0.00    +0.210 HD
ENDBRANCH   6  18
BRANCH   2  20
ATOM     20  C   UNL     1       7.127  -4.549  25.524  0.00  0.00    +0.176 C 
BRANCH  20  21
ATOM     21  O   UNL     1       6.753  -5.901  25.192  0.00  0.00    -0.387 OA
ATOM     22  H   UNL     1       7.235  -6.114  24.368  0.00  0.00    +0.210 HD
ENDBRANCH  20  21
BRANCH  20  23
ATOM     23  C   UNL     1       8.060  -4.579  26.743  0.00  0.00    +0.171 C 
BRANCH  23  24
ATOM     24  O   UNL     1       7.795  -5.723  27.568  0.00  0.00    -0.387 OA
ATOM     25  H   UNL     1       7.258  -5.377  28.312  0.00  0.00    +0.210 HD
ENDBRANCH  23  24
BRANCH  23  26
ATOM     26  C   UNL     1       9.533  -4.667  26.310  0.00  0.00    +0.189 C 
BRANCH  26  27
ATOM     27  O   UNL     1       9.764  -5.968  25.759  0.00  0.00    -0.392 OA
ATOM     28  H   UNL     1      10.377  -6.426  26.360  0.00  0.00    +0.210 HD
ENDBRANCH  26  27
ENDBRANCH  23  26
ENDBRANCH  20  23
ENDBRANCH   2  20
TORSDOF 11
ENDMDL
MODEL 7
REMARK VINA RESULT:      -5.5      3.166      4.357
REMARK  Name = 
REMARK  12 active torsions:
REMARK  status: ('A' for Active; 'I' for Inactive)
REMARK    1  A    between atoms: C_1  and  C_2
REMARK    2  A    between atoms: N_4  and  C_5
REMARK    3  A    between atoms: C_7  and  O_9
REMARK    4  A    between atoms: C_11  and  O_12
REMARK    5  A    between atoms: C_11  and  C_24
REMARK    6  A    between atoms: C_14  and  C_16
REMARK    7  A    between atoms: C_16  and  O_18
REMARK    8  A    between atoms: C_16  and  C_19
REMARK    9  A    between atoms: C_19  and  O_21
REMARK   10  A    between atoms: C_19  and  C_22
REMARK   11  A    between atoms: C_22  and  O_23
REMARK   12  A    between atoms: C_24  and  O_25
REMARK                            x       y       z     vdW  Elec       q    Type
REMARK                         _______ _______ _______ _____ _____    ______ ____
ROOT
ATOM      1  C   UNL     1       5.082  -4.317  25.256  0.00  0.00    +0.133 C 
ATOM      2  C   UNL     1       6.221  -5.334  25.487  0.00  0.00    +0.176 C 
ATOM      3  O   UNL     1       5.884  -6.239  26.564  0.00  0.00    -0.332 OA
ATOM      4  C   UNL     1       5.483  -5.646  27.803  0.00  0.00    +0.270 C 
ATOM      5  C   UNL     1       4.405  -4.565  27.661  0.00  0.00    +0.110 C 
ATOM      6  C   UNL     1       4.777  -3.569  26.572  0.00  0.00    +0.143 C 
ENDROOT
BRANCH   1   9
ATOM      7  C   UNL     1       2.432  -5.933  23.044  0.00  0.00    +0.109 C 
ATOM      8  C   UNL     1       3.663  -5.137  23.378  0.00  0.00    +0.210 C 
ATOM      9  N   UNL     1       3.886  -4.997  24.729  0.00  0.00    -0.308 N 
ATOM     10  H   UNL     1       3.260  -5.464  25.382  0.00  0.00    +0.149 HD
ATOM     11  O   UNL     1       4.398  -4.661  22.522  0.00  0.00    -0.276 OA
ENDBRANCH   1   9
BRANCH   4  12
ATOM     12  O   UNL     1       6.624  -5.134  28.511  0.00  0.00    -0.356 OA
ATOM     13  H   UNL     1       6.628  -5.587  29.382  0.00  0.00    +0.213 HD
ENDBRANCH   4  12
BRANCH   4  14
ATOM     14  C   UNL     1       4.908  -6.779  28.702  0.00  0.00    +0.365 C 
ATOM     15  O   UNL     1       3.971  -6.664  29.480  0.00  0.00    -0.245 OA
BRANCH  14  16
ATOM     16  O   UNL     1       5.581  -7.951  28.528  0.00  0.00    -0.477 OA
ATOM     17  H   UNL     1       6.543  -7.751  28.639  0.00  0.00    +0.295 HD
ENDBRANCH  14  16
ENDBRANCH   4  14
BRANCH   6  18
ATOM     18  O   UNL     1       5.917  -2.831  27.032  0.00  0.00    -0.390 OA
ATOM     19  H   UNL     1       5.681  -1.876  26.960  0.00  0.00    +0.210 HD
ENDBRANCH   6  18
BRANCH   2  20
ATOM     20  C   UNL     1       7.669  -4.805  25.689  0.00  0.00    +0.176 C 
BRANCH  20  21
ATOM     21  O   UNL     1       8.427  -5.854  26.324  0.00  0.00    -0.387 OA
ATOM     22  H   UNL     1       9.222  -5.420  26.695  0.00  0.00    +0.210 HD
ENDBRANCH  20  21
BRANCH  20  23
ATOM     23  C   UNL     1       8.405  -4.364  24.416  0.00  0.00    +0.171 C 
BRANCH  23  24
ATOM     24  O   UNL     1       9.815  -4.610  24.522  0.00  0.00    -0.387 OA
ATOM     25  H   UNL     1       9.892  -5.580  24.647  0.00  0.00    +0.210 HD
ENDBRANCH  23  24
BRANCH  23  26
ATOM     26  C   UNL     1       7.903  -5.144  23.188  0.00  0.00    +0.189 C 
BRANCH  26  27
ATOM     27  O   UNL     1       7.300  -4.215  22.281  0.00  0.00    -0.392 OA
ATOM     28  H   UNL     1       6.487  -3.889  22.707  0.00  0.00    +0.210 HD
ENDBRANCH  26  27
ENDBRANCH  23  26
ENDBRANCH  20  23
ENDBRANCH   2  20
TORSDOF 11
ENDMDL
MODEL 8
REMARK VINA RESULT:      -5.5      1.937      5.130
REMARK  Name = 
REMARK  12 active torsions:
REMARK  status: ('A' for Active; 'I' for Inactive)
REMARK    1  A    between atoms: C_1  and  C_2
REMARK    2  A    between atoms: N_4  and  C_5
REMARK    3  A    between atoms: C_7  and  O_9
REMARK    4  A    between atoms: C_11  and  O_12
REMARK    5  A    between atoms: C_11  and  C_24
REMARK    6  A    between atoms: C_14  and  C_16
REMARK    7  A    between atoms: C_16  and  O_18
REMARK    8  A    between atoms: C_16  and  C_19
REMARK    9  A    between atoms: C_19  and  O_21
REMARK   10  A    between atoms: C_19  and  C_22
REMARK   11  A    between atoms: C_22  and  O_23
REMARK   12  A    between atoms: C_24  and  O_25
REMARK                            x       y       z     vdW  Elec       q    Type
REMARK                         _______ _______ _______ _____ _____    ______ ____
ROOT
ATOM      1  C   UNL     1       7.626  -5.178  24.631  0.00  0.00    +0.133 C 
ATOM      2  C   UNL     1       6.731  -4.078  25.242  0.00  0.00    +0.176 C 
ATOM      3  O   UNL     1       7.194  -2.767  24.841  0.00  0.00    -0.332 OA
ATOM      4  C   UNL     1       8.575  -2.473  25.068  0.00  0.00    +0.270 C 
ATOM      5  C   UNL     1       9.538  -3.553  24.560  0.00  0.00    +0.110 C 
ATOM      6  C   UNL     1       9.098  -4.933  25.027  0.00  0.00    +0.143 C 
ENDROOT
BRANCH   1   9
ATOM      7  C   UNL     1       6.340  -5.693  21.081  0.00  0.00    +0.109 C 
ATOM      8  C   UNL     1       6.370  -5.827  22.578  0.00  0.00    +0.210 C 
ATOM      9  N   UNL     1       7.457  -5.223  23.169  0.00  0.00    -0.308 N 
ATOM     10  H   UNL     1       8.111  -4.706  22.584  0.00  0.00    +0.149 HD
ATOM     11  O   UNL     1       5.504  -6.418  23.209  0.00  0.00    -0.276 OA
ENDBRANCH   1   9
BRANCH   4  12
ATOM     12  O   UNL     1       8.812  -2.196  26.458  0.00  0.00    -0.356 OA
ATOM     13  H   UNL     1       7.937  -1.968  26.842  0.00  0.00    +0.213 HD
ENDBRANCH   4  12
BRANCH   4  14
ATOM     14  C   UNL     1       8.904  -1.150  24.317  0.00  0.00    +0.365 C 
ATOM     15  O   UNL     1       8.369  -0.764  23.287  0.00  0.00    -0.245 OA
BRANCH  14  16
ATOM     16  O   UNL     1       9.885  -0.444  24.946  0.00  0.00    -0.477 OA
ATOM     17  H   UNL     1       9.933   0.440  24.504  0.00  0.00    +0.295 HD
ENDBRANCH  14  16
ENDBRANCH   4  14
BRANCH   6  18
ATOM     18  O   UNL     1       9.274  -4.985  26.449  0.00  0.00    -0.390 OA
ATOM     19  H   UNL     1       8.673  -4.304  26.833  0.00  0.00    +0.210 HD
ENDBRANCH   6  18
BRANCH   2  20
ATOM     20  C   UNL     1       6.470  -4.088  26.775  0.00  0.00    +0.176 C 
BRANCH  20  21
ATOM     21  O   UNL     1       6.065  -2.757  27.153  0.00  0.00    -0.387 OA
ATOM     22  H   UNL     1       6.863  -2.335  27.533  0.00  0.00    +0.210 HD
ENDBRANCH  20  21
BRANCH  20  23
ATOM     23  C   UNL     1       5.412  -5.086  27.268  0.00  0.00    +0.171 C 
BRANCH  23  24
ATOM     24  O   UNL     1       4.901  -5.874  26.183  0.00  0.00    -0.387 OA
ATOM     25  H   UNL     1       5.176  -6.792  26.388  0.00  0.00    +0.210 HD
ENDBRANCH  23  24
BRANCH  23  26
ATOM     26  C   UNL     1       6.009  -6.064  28.294  0.00  0.00    +0.189 C 
BRANCH  26  27
ATOM     27  O   UNL     1       7.417  -6.163  28.055  0.00  0.00    -0.392 OA
ATOM     28  H   UNL     1       7.582  -7.054  27.697  0.00  0.00    +0.210 HD
ENDBRANCH  26  27
ENDBRANCH  23  26
ENDBRANCH  20  23
ENDBRANCH   2  20
TORSDOF 11
ENDMDL
MODEL 9
REMARK VINA RESULT:      -5.4      2.753      4.487
REMARK  Name = 
REMARK  12 active torsions:
REMARK  status: ('A' for Active; 'I' for Inactive)
REMARK    1  A    between atoms: C_1  and  C_2
REMARK    2  A    between atoms: N_4  and  C_5
REMARK    3  A    between atoms: C_7  and  O_9
REMARK    4  A    between atoms: C_11  and  O_12
REMARK    5  A    between atoms: C_11  and  C_24
REMARK    6  A    between atoms: C_14  and  C_16
REMARK    7  A    between atoms: C_16  and  O_18
REMARK    8  A    between atoms: C_16  and  C_19
REMARK    9  A    between atoms: C_19  and  O_21
REMARK   10  A    between atoms: C_19  and  C_22
REMARK   11  A    between atoms: C_22  and  O_23
REMARK   12  A    between atoms: C_24  and  O_25
REMARK                            x       y       z     vdW  Elec       q    Type
REMARK                         _______ _______ _______ _____ _____    ______ ____
ROOT
ATOM      1  C   UNL     1       6.263  -4.422  24.563  0.00  0.00    +0.133 C 
ATOM      2  C   UNL     1       6.834  -5.472  25.541  0.00  0.00    +0.176 C 
ATOM      3  O   UNL     1       5.796  -6.388  25.963  0.00  0.00    -0.332 OA
ATOM      4  C   UNL     1       4.600  -5.809  26.492  0.00  0.00    +0.270 C 
ATOM      5  C   UNL     1       4.003  -4.697  25.620  0.00  0.00    +0.110 C 
ATOM      6  C   UNL     1       5.072  -3.691  25.219  0.00  0.00    +0.143 C 
ENDROOT
BRANCH   1   9
ATOM      7  C   UNL     1       6.130  -5.753  20.995  0.00  0.00    +0.109 C 
ATOM      8  C   UNL     1       6.655  -4.965  22.162  0.00  0.00    +0.210 C 
ATOM      9  N   UNL     1       5.876  -5.059  23.293  0.00  0.00    -0.308 N 
ATOM     10  H   UNL     1       5.062  -5.670  23.280  0.00  0.00    +0.149 HD
ATOM     11  O   UNL     1       7.683  -4.302  22.106  0.00  0.00    -0.276 OA
ENDBRANCH   1   9
BRANCH   4  12
ATOM     12  O   UNL     1       4.815  -5.340  27.833  0.00  0.00    -0.356 OA
ATOM     13  H   UNL     1       4.131  -5.778  28.386  0.00  0.00    +0.213 HD
ENDBRANCH   4  12
BRANCH   4  14
ATOM     14  C   UNL     1       3.541  -6.943  26.610  0.00  0.00    +0.365 C 
ATOM     15  O   UNL     1       2.672  -7.019  27.468  0.00  0.00    -0.245 OA
BRANCH  14  16
ATOM     16  O   UNL     1       3.688  -7.875  25.627  0.00  0.00    -0.477 OA
ATOM     17  H   UNL     1       2.932  -8.507  25.713  0.00  0.00    +0.295 HD
ENDBRANCH  14  16
ENDBRANCH   4  14
BRANCH   6  18
ATOM     18  O   UNL     1       5.474  -2.991  26.405  0.00  0.00    -0.390 OA
ATOM     19  H   UNL     1       5.929  -2.169  26.106  0.00  0.00    +0.210 HD
ENDBRANCH   6  18
BRANCH   2  20
ATOM     20  C   UNL     1       7.632  -4.985  26.784  0.00  0.00    +0.176 C 
BRANCH  20  21
ATOM     21  O   UNL     1       7.673  -6.076  27.724  0.00  0.00    -0.387 OA
ATOM     22  H   UNL     1       7.114  -6.781  27.338  0.00  0.00    +0.210 HD
ENDBRANCH  20  21
BRANCH  20  23
ATOM     23  C   UNL     1       9.066  -4.510  26.514  0.00  0.00    +0.171 C 
BRANCH  23  24
ATOM     24  O   UNL     1       9.864  -5.566  25.959  0.00  0.00    -0.387 OA
ATOM     25  H   UNL     1       9.327  -5.927  25.223  0.00  0.00    +0.210 HD
ENDBRANCH  23  24
BRANCH  23  26
ATOM     26  C   UNL     1       9.085  -3.352  25.501  0.00  0.00    +0.189 C 
BRANCH  26  27
ATOM     27  O   UNL     1       9.746  -3.803  24.314  0.00  0.00    -0.392 OA
ATOM     28  H   UNL     1      10.477  -3.182  24.143  0.00  0.00    +0.210 HD
ENDBRANCH  26  27
ENDBRANCH  23  26
ENDBRANCH  20  23
ENDBRANCH   2  20
TORSDOF 11
ENDMDL
