MODEL 1
REMARK VINA RESULT:      -7.6      0.000      0.000
REMARK  Name = 
REMARK  16 active torsions:
REMARK  status: ('A' for Active; 'I' for Inactive)
REMARK    1  A    between atoms: C_1  and  C_2
REMARK    2  A    between atoms: C_5  and  C_8
REMARK    3  A    between atoms: C_8  and  O_10
REMARK    4  A    between atoms: O_10  and  C_11
REMARK    5  A    between atoms: C_12  and  O_13
REMARK    6  A    between atoms: O_13  and  C_14
REMARK    7  A    between atoms: C_14  and  C_16
REMARK    8  A    between atoms: C_19  and  C_20
REMARK    9  A    between atoms: C_24  and  C_27
REMARK   10  A    between atoms: C_27  and  O_28
REMARK   11  A    between atoms: C_27  and  C_29
REMARK   12  A    between atoms: C_29  and  N_30
REMARK   13  A    between atoms: N_30  and  C_31
REMARK   14  A    between atoms: C_31  and  C_32
REMARK   15  A    between atoms: C_31  and  C_33
REMARK   16  A    between atoms: C_31  and  C_34
REMARK                            x       y       z     vdW  Elec       q    Type
REMARK                         _______ _______ _______ _____ _____    ______ ____
ROOT
ATOM      1  C   UNL     1       7.499  -3.352  22.555  0.00  0.00    +0.174 A 
ATOM      2  C   UNL     1       7.708  -4.733  22.650  0.00  0.00    +0.050 A 
ATOM      3  C   UNL     1       6.705  -5.573  23.127  0.00  0.00    +0.010 A 
ATOM      4  C   UNL     1       5.491  -5.050  23.580  0.00  0.00    -0.014 A 
ATOM      5  C   UNL     1       5.280  -3.659  23.480  0.00  0.00    +0.056 A 
ATOM      6  C   UNL     1       6.278  -2.809  22.974  0.00  0.00    +0.174 A 
ENDROOT
BRANCH   1   7
ATOM      7  O   UNL     1       8.544  -2.491  22.141  0.00  0.00    -0.419 OA
BRANCH   7   8
ATOM      8  C   UNL     1       9.553  -2.193  23.051  0.00  0.00    +0.345 C 
ATOM      9  O   UNL     1      10.147  -2.982  23.775  0.00  0.00    -0.245 OA
BRANCH   8  14
ATOM     10  C   UNL     1      10.884   3.443  23.401  0.00  0.00    +0.044 C 
ATOM     11  C   UNL     1      10.509   1.993  23.301  0.00  0.00    -0.050 A 
ATOM     12  C   UNL     1      10.121   1.445  22.069  0.00  0.00    +0.004 A 
ATOM     13  C   UNL     1       9.793   0.087  21.958  0.00  0.00    +0.015 A 
ATOM     14  C   UNL     1       9.859  -0.738  23.085  0.00  0.00    +0.059 A 
ATOM     15  C   UNL     1      10.227  -0.185  24.320  0.00  0.00    +0.015 A 
ATOM     16  C   UNL     1      10.555   1.170  24.428  0.00  0.00    +0.004 A 
ENDBRANCH   8  14
ENDBRANCH   7   8
ENDBRANCH   1   7
BRANCH   4  17
ATOM     17  C   UNL     1       4.420  -5.929  24.195  0.00  0.00    +0.158 C 
BRANCH  17  18
ATOM     18  O   UNL     1       4.589  -7.265  23.707  0.00  0.00    -0.386 OA
ATOM     19  H   UNL     1       3.969  -7.375  22.964  0.00  0.00    +0.210 HD
ENDBRANCH  17  18
BRANCH  17  20
ATOM     20  C   UNL     1       4.382  -5.999  25.749  0.00  0.00    +0.117 C 
BRANCH  20  21
ATOM     21  N   UNL     1       5.607  -6.492  26.401  0.00  0.00    -0.309 NA
ATOM     22  H   UNL     1       6.236  -6.864  25.688  0.00  0.00    +0.123 HD
BRANCH  21  23
ATOM     23  C   UNL     1       6.321  -5.496  27.227  0.00  0.00    +0.011 C 
ATOM     24  C   UNL     1       7.762  -5.277  26.737  0.00  0.00    +0.027 C 
ATOM     25  C   UNL     1       6.383  -6.038  28.670  0.00  0.00    +0.027 C 
ATOM     26  C   UNL     1       5.561  -4.158  27.268  0.00  0.00    +0.027 C 
ENDBRANCH  21  23
ENDBRANCH  20  21
ENDBRANCH  17  20
ENDBRANCH   4  17
BRANCH   6  27
ATOM     27  O   UNL     1       6.134  -1.395  23.014  0.00  0.00    -0.419 OA
BRANCH  27  28
ATOM     28  C   UNL     1       6.422  -0.690  24.178  0.00  0.00    +0.345 C 
ATOM     29  O   UNL     1       6.515  -1.145  25.309  0.00  0.00    -0.245 OA
BRANCH  28  30
ATOM     30  C   UNL     1       6.599   0.765  23.903  0.00  0.00    +0.059 A 
ATOM     31  C   UNL     1       6.986   1.589  24.971  0.00  0.00    +0.015 A 
ATOM     32  C   UNL     1       7.240   2.948  24.768  0.00  0.00    +0.004 A 
ATOM     33  C   UNL     1       7.128   3.505  23.490  0.00  0.00    -0.050 A 
ATOM     34  C   UNL     1       7.446   4.956  23.280  0.00  0.00    +0.044 C 
ATOM     35  C   UNL     1       6.735   2.684  22.423  0.00  0.00    +0.004 A 
ATOM     36  C   UNL     1       6.471   1.322  22.626  0.00  0.00    +0.015 A 
ENDBRANCH  28  30
ENDBRANCH  27  28
ENDBRANCH   6  27
TORSDOF 11
ENDMDL
MODEL 2
REMARK VINA RESULT:      -7.3      2.920      8.196
REMARK  Name = 
REMARK  16 active torsions:
REMARK  status: ('A' for Active; 'I' for Inactive)
REMARK    1  A    between atoms: C_1  and  C_2
REMARK    2  A    between atoms: C_5  and  C_8
REMARK    3  A    between atoms: C_8  and  O_10
REMARK    4  A    between atoms: O_10  and  C_11
REMARK    5  A    between atoms: C_12  and  O_13
REMARK    6  A    between atoms: O_13  and  C_14
REMARK    7  A    between atoms: C_14  and  C_16
REMARK    8  A    between atoms: C_19  and  C_20
REMARK    9  A    between atoms: C_24  and  C_27
REMARK   10  A    between atoms: C_27  and  O_28
REMARK   11  A    between atoms: C_27  and  C_29
REMARK   12  A    between atoms: C_29  and  N_30
REMARK   13  A    between atoms: N_30  and  C_31
REMARK   14  A    between atoms: C_31  and  C_32
REMARK   15  A    between atoms: C_31  and  C_33
REMARK   16  A    between atoms: C_31  and  C_34
REMARK                            x       y       z     vdW  Elec       q    Type
REMARK                         _______ _______ _______ _____ _____    ______ ____
ROOT
ATOM      1  C   UNL     1       8.745  -0.016  22.624  0.00  0.00    +0.174 A 
ATOM      2  C   UNL     1       9.443   0.722  21.661  0.00  0.00    +0.050 A 
ATOM      3  C   UNL     1      10.130   1.881  22.014  0.00  0.00    +0.010 A 
ATOM      4  C   UNL     1      10.085   2.368  23.324  0.00  0.00    -0.014 A 
ATOM      5  C   UNL     1       9.384   1.621  24.293  0.00  0.00    +0.056 A 
ATOM      6  C   UNL     1       8.712   0.436  23.949  0.00  0.00    +0.174 A 
ENDROOT
BRANCH   1   7
ATOM      7  O   UNL     1       7.986  -1.151  22.252  0.00  0.00    -0.419 OA
BRANCH   7   8
ATOM      8  C   UNL     1       8.464  -2.409  22.604  0.00  0.00    +0.345 C 
ATOM      9  O   UNL     1       9.634  -2.734  22.758  0.00  0.00    -0.245 OA
BRANCH   8  14
ATOM     10  C   UNL     1       4.001  -6.074  23.162  0.00  0.00    +0.044 C 
ATOM     11  C   UNL     1       5.168  -5.137  23.047  0.00  0.00    -0.050 A 
ATOM     12  C   UNL     1       6.476  -5.638  22.987  0.00  0.00    +0.004 A 
ATOM     13  C   UNL     1       7.572  -4.774  22.854  0.00  0.00    +0.015 A 
ATOM     14  C   UNL     1       7.363  -3.395  22.772  0.00  0.00    +0.059 A 
ATOM     15  C   UNL     1       6.055  -2.893  22.852  0.00  0.00    +0.015 A 
ATOM     16  C   UNL     1       4.964  -3.757  22.983  0.00  0.00    +0.004 A 
ENDBRANCH   8  14
ENDBRANCH   7   8
ENDBRANCH   1   7
BRANCH   4  17
ATOM     17  C   UNL     1      10.740   3.678  23.714  0.00  0.00    +0.158 C 
BRANCH  17  18
ATOM     18  O   UNL     1      11.596   4.097  22.645  0.00  0.00    -0.386 OA
ATOM     19  H   UNL     1      11.358   5.018  22.437  0.00  0.00    +0.210 HD
ENDBRANCH  17  18
BRANCH  17  20
ATOM     20  C   UNL     1       9.788   4.863  24.045  0.00  0.00    +0.117 C 
BRANCH  20  21
ATOM     21  N   UNL     1       9.148   5.516  22.890  0.00  0.00    -0.309 NA
ATOM     22  H   UNL     1       9.526   5.115  22.030  0.00  0.00    +0.123 HD
BRANCH  21  23
ATOM     23  C   UNL     1       7.672   5.443  22.869  0.00  0.00    +0.011 C 
ATOM     24  C   UNL     1       7.174   4.184  22.141  0.00  0.00    +0.027 C 
ATOM     25  C   UNL     1       7.150   6.677  22.102  0.00  0.00    +0.027 C 
ATOM     26  C   UNL     1       7.089   5.504  24.292  0.00  0.00    +0.027 C 
ENDBRANCH  21  23
ENDBRANCH  20  21
ENDBRANCH  17  20
ENDBRANCH   4  17
BRANCH   6  27
ATOM     27  O   UNL     1       7.876  -0.237  24.883  0.00  0.00    -0.419 OA
BRANCH  27  28
ATOM     28  C   UNL     1       8.425  -0.867  25.995  0.00  0.00    +0.345 C 
ATOM     29  O   UNL     1       9.332  -0.452  26.701  0.00  0.00    -0.245 OA
BRANCH  28  30
ATOM     30  C   UNL     1       7.776  -2.185  26.249  0.00  0.00    +0.059 A 
ATOM     31  C   UNL     1       6.380  -2.210  26.384  0.00  0.00    +0.015 A 
ATOM     32  C   UNL     1       5.701  -3.419  26.550  0.00  0.00    +0.004 A 
ATOM     33  C   UNL     1       6.402  -4.629  26.569  0.00  0.00    -0.050 A 
ATOM     34  C   UNL     1       5.655  -5.922  26.705  0.00  0.00    +0.044 C 
ATOM     35  C   UNL     1       7.798  -4.605  26.441  0.00  0.00    +0.004 A 
ATOM     36  C   UNL     1       8.484  -3.392  26.282  0.00  0.00    +0.015 A 
ENDBRANCH  28  30
ENDBRANCH  27  28
ENDBRANCH   6  27
TORSDOF 11
ENDMDL
MODEL 3
REMARK VINA RESULT:      -7.0      1.552      3.990
REMARK  Name = 
REMARK  16 active torsions:
REMARK  status: ('A' for Active; 'I' for Inactive)
REMARK    1  A    between atoms: C_1  and  C_2
REMARK    2  A    between atoms: C_5  and  C_8
REMARK    3  A    between atoms: C_8  and  O_10
REMARK    4  A    between atoms: O_10  and  C_11
REMARK    5  A    between atoms: C_12  and  O_13
REMARK    6  A    between atoms: O_13  and  C_14
REMARK    7  A    between atoms: C_14  and  C_16
REMARK    8  A    between atoms: C_19  and  C_20
REMARK    9  A    between atoms: C_24  and  C_27
REMARK   10  A    between atoms: C_27  and  O_28
REMARK   11  A    between atoms: C_27  and  C_29
REMARK   12  A    between atoms: C_29  and  N_30
REMARK   13  A    between atoms: N_30  and  C_31
REMARK   14  A    between atoms: C_31  and  C_32
REMARK   15  A    between atoms: C_31  and  C_33
REMARK   16  A    between atoms: C_31  and  C_34
REMARK                            x       y       z     vdW  Elec       q    Type
REMARK                         _______ _______ _______ _____ _____    ______ ____
ROOT
ATOM      1  C   UNL     1       6.360  -1.677  23.815  0.00  0.00    +0.174 A 
ATOM      2  C   UNL     1       5.280  -2.150  24.569  0.00  0.00    +0.050 A 
ATOM      3  C   UNL     1       5.148  -3.507  24.849  0.00  0.00    +0.010 A 
ATOM      4  C   UNL     1       6.057  -4.435  24.332  0.00  0.00    -0.014 A 
ATOM      5  C   UNL     1       7.147  -3.957  23.576  0.00  0.00    +0.056 A 
ATOM      6  C   UNL     1       7.301  -2.586  23.312  0.00  0.00    +0.174 A 
ENDROOT
BRANCH   1   7
ATOM      7  O   UNL     1       6.453  -0.309  23.467  0.00  0.00    -0.419 OA
BRANCH   7   8
ATOM      8  C   UNL     1       6.762   0.608  24.467  0.00  0.00    +0.345 C 
ATOM      9  O   UNL     1       6.862   0.381  25.666  0.00  0.00    -0.245 OA
BRANCH   8  14
ATOM     10  C   UNL     1       7.341   5.899  22.159  0.00  0.00    +0.044 C 
ATOM     11  C   UNL     1       7.224   4.530  22.762  0.00  0.00    -0.050 A 
ATOM     12  C   UNL     1       7.573   4.314  24.103  0.00  0.00    +0.004 A 
ATOM     13  C   UNL     1       7.444   3.045  24.684  0.00  0.00    +0.015 A 
ATOM     14  C   UNL     1       6.955   1.979  23.924  0.00  0.00    +0.059 A 
ATOM     15  C   UNL     1       6.624   2.191  22.577  0.00  0.00    +0.015 A 
ATOM     16  C   UNL     1       6.753   3.458  22.001  0.00  0.00    +0.004 A 
ENDBRANCH   8  14
ENDBRANCH   7   8
ENDBRANCH   1   7
BRANCH   4  17
ATOM     17  C   UNL     1       5.884  -5.927  24.539  0.00  0.00    +0.158 C 
BRANCH  17  18
ATOM     18  O   UNL     1       5.434  -6.153  25.880  0.00  0.00    -0.386 OA
ATOM     19  H   UNL     1       5.424  -5.287  26.325  0.00  0.00    +0.210 HD
ENDBRANCH  17  18
BRANCH  17  20
ATOM     20  C   UNL     1       4.893  -6.653  23.584  0.00  0.00    +0.117 C 
BRANCH  20  21
ATOM     21  N   UNL     1       3.908  -7.538  24.229  0.00  0.00    -0.309 NA
ATOM     22  H   UNL     1       4.127  -7.609  25.224  0.00  0.00    +0.123 HD
BRANCH  21  23
ATOM     23  C   UNL     1       2.497  -7.135  24.055  0.00  0.00    +0.011 C 
ATOM     24  C   UNL     1       2.368  -5.872  23.188  0.00  0.00    +0.027 C 
ATOM     25  C   UNL     1       1.922  -6.817  25.452  0.00  0.00    +0.027 C 
ATOM     26  C   UNL     1       1.658  -8.280  23.460  0.00  0.00    +0.027 C 
ENDBRANCH  21  23
ENDBRANCH  20  21
ENDBRANCH  17  20
ENDBRANCH   4  17
BRANCH   6  27
ATOM     27  O   UNL     1       8.305  -2.112  22.424  0.00  0.00    -0.419 OA
BRANCH  27  28
ATOM     28  C   UNL     1       9.600  -1.883  22.880  0.00  0.00    +0.345 C 
ATOM     29  O   UNL     1      10.424  -2.726  23.202  0.00  0.00    -0.245 OA
BRANCH  28  30
ATOM     30  C   UNL     1       9.897  -0.425  22.962  0.00  0.00    +0.059 A 
ATOM     31  C   UNL     1      10.390   0.074  24.177  0.00  0.00    +0.015 A 
ATOM     32  C   UNL     1      10.758   1.416  24.302  0.00  0.00    +0.004 A 
ATOM     33  C   UNL     1      10.656   2.282  23.209  0.00  0.00    -0.050 A 
ATOM     34  C   UNL     1      11.095   3.710  23.345  0.00  0.00    +0.044 C 
ATOM     35  C   UNL     1      10.157   1.787  21.995  0.00  0.00    +0.004 A 
ATOM     36  C   UNL     1       9.778   0.442  21.870  0.00  0.00    +0.015 A 
ENDBRANCH  28  30
ENDBRANCH  27  28
ENDBRANCH   6  27
TORSDOF 11
ENDMDL
MODEL 4
REMARK VINA RESULT:      -6.9      1.617      2.650
REMARK  Name = 
REMARK  16 active torsions:
REMARK  status: ('A' for Active; 'I' for Inactive)
REMARK    1  A    between atoms: C_1  and  C_2
REMARK    2  A    between atoms: C_5  and  C_8
REMARK    3  A    between atoms: C_8  and  O_10
REMARK    4  A    between atoms: O_10  and  C_11
REMARK    5  A    between atoms: C_12  and  O_13
REMARK    6  A    between atoms: O_13  and  C_14
REMARK    7  A    between atoms: C_14  and  C_16
REMARK    8  A    between atoms: C_19  and  C_20
REMARK    9  A    between atoms: C_24  and  C_27
REMARK   10  A    between atoms: C_27  and  O_28
REMARK   11  A    between atoms: C_27  and  C_29
REMARK   12  A    between atoms: C_29  and  N_30
REMARK   13  A    between atoms: N_30  and  C_31
REMARK   14  A    between atoms: C_31  and  C_32
REMARK   15  A    between atoms: C_31  and  C_33
REMARK   16  A    between atoms: C_31  and  C_34
REMARK                            x       y       z     vdW  Elec       q    Type
REMARK                         _______ _______ _______ _____ _____    ______ ____
ROOT
ATOM      1  C   UNL     1       9.024  -3.168  24.760  0.00  0.00    +0.174 A 
ATOM      2  C   UNL     1       8.896  -4.535  24.488  0.00  0.00    +0.050 A 
ATOM      3  C   UNL     1       7.961  -5.312  25.167  0.00  0.00    +0.010 A 
ATOM      4  C   UNL     1       7.173  -4.757  26.180  0.00  0.00    -0.014 A 
ATOM      5  C   UNL     1       7.300  -3.379  26.451  0.00  0.00    +0.056 A 
ATOM      6  C   UNL     1       8.222  -2.584  25.750  0.00  0.00    +0.174 A 
ENDROOT
BRANCH   1   7
ATOM      7  O   UNL     1      10.025  -2.396  24.124  0.00  0.00    -0.419 OA
BRANCH   7   8
ATOM      8  C   UNL     1       9.708  -1.762  22.927  0.00  0.00    +0.345 C 
ATOM      9  O   UNL     1       9.241  -2.281  21.921  0.00  0.00    -0.245 OA
BRANCH   8  14
ATOM     10  C   UNL     1      11.108   3.857  23.278  0.00  0.00    +0.044 C 
ATOM     11  C   UNL     1      10.714   2.412  23.183  0.00  0.00    -0.050 A 
ATOM     12  C   UNL     1      10.134   1.912  22.008  0.00  0.00    +0.004 A 
ATOM     13  C   UNL     1       9.785   0.559  21.898  0.00  0.00    +0.015 A 
ATOM     14  C   UNL     1      10.023  -0.309  22.968  0.00  0.00    +0.059 A 
ATOM     15  C   UNL     1      10.585   0.196  24.149  0.00  0.00    +0.015 A 
ATOM     16  C   UNL     1      10.934   1.545  24.256  0.00  0.00    +0.004 A 
ENDBRANCH   8  14
ENDBRANCH   7   8
ENDBRANCH   1   7
BRANCH   4  17
ATOM     17  C   UNL     1       6.217  -5.599  27.002  0.00  0.00    +0.158 C 
BRANCH  17  18
ATOM     18  O   UNL     1       5.847  -4.859  28.171  0.00  0.00    -0.386 OA
ATOM     19  H   UNL     1       6.568  -4.229  28.347  0.00  0.00    +0.210 HD
ENDBRANCH  17  18
BRANCH  17  20
ATOM     20  C   UNL     1       4.905  -6.052  26.300  0.00  0.00    +0.117 C 
BRANCH  20  21
ATOM     21  N   UNL     1       4.137  -4.992  25.625  0.00  0.00    -0.309 NA
ATOM     22  H   UNL     1       4.526  -4.084  25.883  0.00  0.00    +0.123 HD
BRANCH  21  23
ATOM     23  C   UNL     1       4.071  -5.107  24.153  0.00  0.00    +0.011 C 
ATOM     24  C   UNL     1       4.826  -6.346  23.644  0.00  0.00    +0.027 C 
ATOM     25  C   UNL     1       4.744  -3.855  23.552  0.00  0.00    +0.027 C 
ATOM     26  C   UNL     1       2.613  -5.129  23.660  0.00  0.00    +0.027 C 
ENDBRANCH  21  23
ENDBRANCH  20  21
ENDBRANCH  17  20
ENDBRANCH   4  17
BRANCH   6  27
ATOM     27  O   UNL     1       8.467  -1.234  26.122  0.00  0.00    -0.419 OA
BRANCH  27  28
ATOM     28  C   UNL     1       7.411  -0.390  26.450  0.00  0.00    +0.345 C 
ATOM     29  O   UNL     1       6.717  -0.440  27.455  0.00  0.00    -0.245 OA
BRANCH  28  30
ATOM     30  C   UNL     1       7.180   0.630  25.389  0.00  0.00    +0.059 A 
ATOM     31  C   UNL     1       7.601   1.945  25.643  0.00  0.00    +0.015 A 
ATOM     32  C   UNL     1       7.481   2.934  24.665  0.00  0.00    +0.004 A 
ATOM     33  C   UNL     1       6.954   2.626  23.407  0.00  0.00    -0.050 A 
ATOM     34  C   UNL     1       6.872   3.690  22.352  0.00  0.00    +0.044 C 
ATOM     35  C   UNL     1       6.527   1.315  23.153  0.00  0.00    +0.004 A 
ATOM     36  C   UNL     1       6.637   0.321  24.136  0.00  0.00    +0.015 A 
ENDBRANCH  28  30
ENDBRANCH  27  28
ENDBRANCH   6  27
TORSDOF 11
ENDMDL
MODEL 5
REMARK VINA RESULT:      -6.9      2.585      7.597
REMARK  Name = 
REMARK  16 active torsions:
REMARK  status: ('A' for Active; 'I' for Inactive)
REMARK    1  A    between atoms: C_1  and  C_2
REMARK    2  A    between atoms: C_5  and  C_8
REMARK    3  A    between atoms: C_8  and  O_10
REMARK    4  A    between atoms: O_10  and  C_11
REMARK    5  A    between atoms: C_12  and  O_13
REMARK    6  A    between atoms: O_13  and  C_14
REMARK    7  A    between atoms: C_14  and  C_16
REMARK    8  A    between atoms: C_19  and  C_20
REMARK    9  A    between atoms: C_24  and  C_27
REMARK   10  A    between atoms: C_27  and  O_28
REMARK   11  A    between atoms: C_27  and  C_29
REMARK   12  A    between atoms: C_29  and  N_30
REMARK   13  A    between atoms: N_30  and  C_31
REMARK   14  A    between atoms: C_31  and  C_32
REMARK   15  A    between atoms: C_31  and  C_33
REMARK   16  A    between atoms: C_31  and  C_34
REMARK                            x       y       z     vdW  Elec       q    Type
REMARK                         _______ _______ _______ _____ _____    ______ ____
ROOT
ATOM      1  C   UNL     1       8.933  -3.232  23.721  0.00  0.00    +0.174 A 
ATOM      2  C   UNL     1       9.887  -2.354  24.248  0.00  0.00    +0.050 A 
ATOM      3  C   UNL     1      10.128  -1.122  23.647  0.00  0.00    +0.010 A 
ATOM      4  C   UNL     1       9.469  -0.760  22.469  0.00  0.00    -0.014 A 
ATOM      5  C   UNL     1       8.504  -1.644  21.941  0.00  0.00    +0.056 A 
ATOM      6  C   UNL     1       8.237  -2.878  22.558  0.00  0.00    +0.174 A 
ENDROOT
BRANCH   1   7
ATOM      7  O   UNL     1       8.742  -4.515  24.288  0.00  0.00    -0.419 OA
BRANCH   7   8
ATOM      8  C   UNL     1       8.991  -4.680  25.647  0.00  0.00    +0.345 C 
ATOM      9  O   UNL     1      10.066  -4.940  26.171  0.00  0.00    -0.245 OA
BRANCH   8  14
ATOM     10  C   UNL     1       4.097  -3.869  28.656  0.00  0.00    +0.044 C 
ATOM     11  C   UNL     1       5.379  -4.083  27.906  0.00  0.00    -0.050 A 
ATOM     12  C   UNL     1       6.068  -5.300  28.013  0.00  0.00    +0.004 A 
ATOM     13  C   UNL     1       7.253  -5.521  27.298  0.00  0.00    +0.015 A 
ATOM     14  C   UNL     1       7.756  -4.521  26.461  0.00  0.00    +0.059 A 
ATOM     15  C   UNL     1       7.077  -3.297  26.370  0.00  0.00    +0.015 A 
ATOM     16  C   UNL     1       5.895  -3.080  27.083  0.00  0.00    +0.004 A 
ENDBRANCH   8  14
ENDBRANCH   7   8
ENDBRANCH   1   7
BRANCH   4  17
ATOM     17  C   UNL     1       9.782   0.531  21.739  0.00  0.00    +0.158 C 
BRANCH  17  18
ATOM     18  O   UNL     1       8.647   0.894  20.945  0.00  0.00    -0.386 OA
ATOM     19  H   UNL     1       8.464   1.833  21.125  0.00  0.00    +0.210 HD
ENDBRANCH  17  18
BRANCH  17  20
ATOM     20  C   UNL     1      10.149   1.759  22.621  0.00  0.00    +0.117 C 
BRANCH  20  21
ATOM     21  N   UNL     1       9.288   2.944  22.465  0.00  0.00    -0.309 NA
ATOM     22  H   UNL     1       8.734   2.842  21.614  0.00  0.00    +0.123 HD
BRANCH  21  23
ATOM     23  C   UNL     1       8.398   3.225  23.611  0.00  0.00    +0.011 C 
ATOM     24  C   UNL     1       6.915   3.114  23.221  0.00  0.00    +0.027 C 
ATOM     25  C   UNL     1       8.665   4.674  24.070  0.00  0.00    +0.027 C 
ATOM     26  C   UNL     1       8.710   2.299  24.800  0.00  0.00    +0.027 C 
ENDBRANCH  21  23
ENDBRANCH  20  21
ENDBRANCH  17  20
ENDBRANCH   4  17
BRANCH   6  27
ATOM     27  O   UNL     1       7.384  -3.839  21.950  0.00  0.00    -0.419 OA
BRANCH  27  28
ATOM     28  C   UNL     1       6.003  -3.668  21.966  0.00  0.00    +0.345 C 
ATOM     29  O   UNL     1       5.342  -2.961  21.220  0.00  0.00    -0.245 OA
BRANCH  28  30
ATOM     30  C   UNL     1       5.370  -4.462  23.058  0.00  0.00    +0.059 A 
ATOM     31  C   UNL     1       4.321  -3.867  23.774  0.00  0.00    +0.015 A 
ATOM     32  C   UNL     1       3.636  -4.580  24.760  0.00  0.00    +0.004 A 
ATOM     33  C   UNL     1       3.975  -5.907  25.039  0.00  0.00    -0.050 A 
ATOM     34  C   UNL     1       3.202  -6.674  26.071  0.00  0.00    +0.044 C 
ATOM     35  C   UNL     1       5.029  -6.502  24.329  0.00  0.00    +0.004 A 
ATOM     36  C   UNL     1       5.724  -5.785  23.344  0.00  0.00    +0.015 A 
ENDBRANCH  28  30
ENDBRANCH  27  28
ENDBRANCH   6  27
TORSDOF 11
ENDMDL
MODEL 6
REMARK VINA RESULT:      -6.8      1.605      2.579
REMARK  Name = 
REMARK  16 active torsions:
REMARK  status: ('A' for Active; 'I' for Inactive)
REMARK    1  A    between atoms: C_1  and  C_2
REMARK    2  A    between atoms: C_5  and  C_8
REMARK    3  A    between atoms: C_8  and  O_10
REMARK    4  A    between atoms: O_10  and  C_11
REMARK    5  A    between atoms: C_12  and  O_13
REMARK    6  A    between atoms: O_13  and  C_14
REMARK    7  A    between atoms: C_14  and  C_16
REMARK    8  A    between atoms: C_19  and  C_20
REMARK    9  A    between atoms: C_24  and  C_27
REMARK   10  A    between atoms: C_27  and  O_28
REMARK   11  A    between atoms: C_27  and  C_29
REMARK   12  A    between atoms: C_29  and  N_30
REMARK   13  A    between atoms: N_30  and  C_31
REMARK   14  A    between atoms: C_31  and  C_32
REMARK   15  A    between atoms: C_31  and  C_33
REMARK   16  A    between atoms: C_31  and  C_34
REMARK                            x       y       z     vdW  Elec       q    Type
REMARK                         _______ _______ _______ _____ _____    ______ ____
ROOT
ATOM      1  C   UNL     1       7.805  -2.961  24.213  0.00  0.00    +0.174 A 
ATOM      2  C   UNL     1       7.841  -4.287  24.660  0.00  0.00    +0.050 A 
ATOM      3  C   UNL     1       6.771  -5.146  24.423  0.00  0.00    +0.010 A 
ATOM      4  C   UNL     1       5.612  -4.686  23.791  0.00  0.00    -0.014 A 
ATOM      5  C   UNL     1       5.579  -3.351  23.339  0.00  0.00    +0.056 A 
ATOM      6  C   UNL     1       6.666  -2.487  23.550  0.00  0.00    +0.174 A 
ENDROOT
BRANCH   1   7
ATOM      7  O   UNL     1       8.860  -2.068  24.519  0.00  0.00    -0.419 OA
BRANCH   7   8
ATOM      8  C   UNL     1       9.799  -1.793  23.530  0.00  0.00    +0.345 C 
ATOM      9  O   UNL     1      10.403  -2.606  22.842  0.00  0.00    -0.245 OA
BRANCH   8  14
ATOM     10  C   UNL     1      10.867   3.898  23.167  0.00  0.00    +0.044 C 
ATOM     11  C   UNL     1      10.560   2.432  23.251  0.00  0.00    -0.050 A 
ATOM     12  C   UNL     1      10.183   1.720  22.102  0.00  0.00    +0.004 A 
ATOM     13  C   UNL     1       9.918   0.345  22.163  0.00  0.00    +0.015 A 
ATOM     14  C   UNL     1      10.036  -0.332  23.381  0.00  0.00    +0.059 A 
ATOM     15  C   UNL     1      10.393   0.385  24.533  0.00  0.00    +0.015 A 
ATOM     16  C   UNL     1      10.658   1.755  24.469  0.00  0.00    +0.004 A 
ENDBRANCH   8  14
ENDBRANCH   7   8
ENDBRANCH   1   7
BRANCH   4  17
ATOM     17  C   UNL     1       4.394  -5.571  23.609  0.00  0.00    +0.158 C 
BRANCH  17  18
ATOM     18  O   UNL     1       4.383  -6.061  22.263  0.00  0.00    -0.386 OA
ATOM     19  H   UNL     1       4.232  -5.293  21.684  0.00  0.00    +0.210 HD
ENDBRANCH  17  18
BRANCH  17  20
ATOM     20  C   UNL     1       4.276  -6.799  24.556  0.00  0.00    +0.117 C 
BRANCH  20  21
ATOM     21  N   UNL     1       3.407  -7.892  24.087  0.00  0.00    -0.309 NA
ATOM     22  H   UNL     1       3.831  -8.786  24.341  0.00  0.00    +0.123 HD
BRANCH  21  23
ATOM     23  C   UNL     1       2.016  -7.841  24.583  0.00  0.00    +0.011 C 
ATOM     24  C   UNL     1       1.900  -7.009  25.871  0.00  0.00    +0.027 C 
ATOM     25  C   UNL     1       1.577  -9.285  24.906  0.00  0.00    +0.027 C 
ATOM     26  C   UNL     1       1.059  -7.298  23.507  0.00  0.00    +0.027 C 
ENDBRANCH  21  23
ENDBRANCH  20  21
ENDBRANCH  17  20
ENDBRANCH   4  17
BRANCH   6  27
ATOM     27  O   UNL     1       6.582  -1.102  23.238  0.00  0.00    -0.419 OA
BRANCH  27  28
ATOM     28  C   UNL     1       6.197  -0.182  24.209  0.00  0.00    +0.345 C 
ATOM     29  O   UNL     1       5.599  -0.419  25.248  0.00  0.00    -0.245 OA
BRANCH  28  30
ATOM     30  C   UNL     1       6.592   1.205  23.830  0.00  0.00    +0.059 A 
ATOM     31  C   UNL     1       6.500   1.564  22.477  0.00  0.00    +0.015 A 
ATOM     32  C   UNL     1       6.784   2.867  22.063  0.00  0.00    +0.004 A 
ATOM     33  C   UNL     1       7.149   3.842  22.996  0.00  0.00    -0.050 A 
ATOM     34  C   UNL     1       7.409   5.248  22.542  0.00  0.00    +0.044 C 
ATOM     35  C   UNL     1       7.248   3.484  24.348  0.00  0.00    +0.004 A 
ATOM     36  C   UNL     1       6.972   2.173  24.766  0.00  0.00    +0.015 A 
ENDBRANCH  28  30
ENDBRANCH  27  28
ENDBRANCH   6  27
TORSDOF 11
ENDMDL
MODEL 7
REMARK VINA RESULT:      -6.8      2.645      8.174
REMARK  Name = 
REMARK  16 active torsions:
REMARK  status: ('A' for Active; 'I' for Inactive)
REMARK    1  A    between atoms: C_1  and  C_2
REMARK    2  A    between atoms: C_5  and  C_8
REMARK    3  A    between atoms: C_8  and  O_10
REMARK    4  A    between atoms: O_10  and  C_11
REMARK    5  A    between atoms: C_12  and  O_13
REMARK    6  A    between atoms: O_13  and  C_14
REMARK    7  A    between atoms: C_14  and  C_16
REMARK    8  A    between atoms: C_19  and  C_20
REMARK    9  A    between atoms: C_24  and  C_27
REMARK   10  A    between atoms: C_27  and  O_28
REMARK   11  A    between atoms: C_27  and  C_29
REMARK   12  A    between atoms: C_29  and  N_30
REMARK   13  A    between atoms: N_30  and  C_31
REMARK   14  A    between atoms: C_31  and  C_32
REMARK   15  A    between atoms: C_31  and  C_33
REMARK   16  A    between atoms: C_31  and  C_34
REMARK                            x       y       z     vdW  Elec       q    Type
REMARK                         _______ _______ _______ _____ _____    ______ ____
ROOT
ATOM      1  C   UNL     1       8.213  -2.149  23.016  0.00  0.00    +0.174 A 
ATOM      2  C   UNL     1       8.968  -1.942  21.856  0.00  0.00    +0.050 A 
ATOM      3  C   UNL     1       9.634  -0.737  21.647  0.00  0.00    +0.010 A 
ATOM      4  C   UNL     1       9.512   0.315  22.560  0.00  0.00    -0.014 A 
ATOM      5  C   UNL     1       8.754   0.103  23.730  0.00  0.00    +0.056 A 
ATOM      6  C   UNL     1       8.102  -1.120  23.960  0.00  0.00    +0.174 A 
ENDROOT
BRANCH   1   7
ATOM      7  O   UNL     1       7.475  -3.344  23.193  0.00  0.00    -0.419 OA
BRANCH   7   8
ATOM      8  C   UNL     1       6.164  -3.386  22.730  0.00  0.00    +0.345 C 
ATOM      9  O   UNL     1       5.673  -2.691  21.849  0.00  0.00    -0.245 OA
BRANCH   8  14
ATOM     10  C   UNL     1       2.782  -7.194  25.508  0.00  0.00    +0.044 C 
ATOM     11  C   UNL     1       3.680  -6.213  24.812  0.00  0.00    -0.050 A 
ATOM     12  C   UNL     1       4.921  -6.626  24.305  0.00  0.00    +0.004 A 
ATOM     13  C   UNL     1       5.757  -5.726  23.631  0.00  0.00    +0.015 A 
ATOM     14  C   UNL     1       5.351  -4.400  23.454  0.00  0.00    +0.059 A 
ATOM     15  C   UNL     1       4.120  -3.983  23.980  0.00  0.00    +0.015 A 
ATOM     16  C   UNL     1       3.287  -4.883  24.650  0.00  0.00    +0.004 A 
ENDBRANCH   8  14
ENDBRANCH   7   8
ENDBRANCH   1   7
BRANCH   4  17
ATOM     17  C   UNL     1      10.146   1.669  22.310  0.00  0.00    +0.158 C 
BRANCH  17  18
ATOM     18  O   UNL     1       9.340   2.383  21.365  0.00  0.00    -0.386 OA
ATOM     19  H   UNL     1       9.897   2.546  20.584  0.00  0.00    +0.210 HD
ENDBRANCH  17  18
BRANCH  17  20
ATOM     20  C   UNL     1      10.338   2.588  23.550  0.00  0.00    +0.117 C 
BRANCH  20  21
ATOM     21  N   UNL     1      10.109   4.026  23.328  0.00  0.00    -0.309 NA
ATOM     22  H   UNL     1       9.950   4.187  22.333  0.00  0.00    +0.123 HD
BRANCH  21  23
ATOM     23  C   UNL     1       9.000   4.612  24.112  0.00  0.00    +0.011 C 
ATOM     24  C   UNL     1       8.391   3.591  25.087  0.00  0.00    +0.027 C 
ATOM     25  C   UNL     1       7.899   5.044  23.121  0.00  0.00    +0.027 C 
ATOM     26  C   UNL     1       9.458   5.870  24.872  0.00  0.00    +0.027 C 
ENDBRANCH  21  23
ENDBRANCH  20  21
ENDBRANCH  17  20
ENDBRANCH   4  17
BRANCH   6  27
ATOM     27  O   UNL     1       7.211  -1.288  25.056  0.00  0.00    -0.419 OA
BRANCH  27  28
ATOM     28  C   UNL     1       7.683  -1.733  26.287  0.00  0.00    +0.345 C 
ATOM     29  O   UNL     1       8.553  -1.214  26.971  0.00  0.00    -0.245 OA
BRANCH  28  30
ATOM     30  C   UNL     1       7.000  -2.988  26.710  0.00  0.00    +0.059 A 
ATOM     31  C   UNL     1       7.735  -4.182  26.659  0.00  0.00    +0.015 A 
ATOM     32  C   UNL     1       7.180  -5.382  27.109  0.00  0.00    +0.004 A 
ATOM     33  C   UNL     1       5.885  -5.410  27.633  0.00  0.00    -0.050 A 
ATOM     34  C   UNL     1       5.318  -6.698  28.152  0.00  0.00    +0.044 C 
ATOM     35  C   UNL     1       5.145  -4.219  27.678  0.00  0.00    +0.004 A 
ATOM     36  C   UNL     1       5.696  -3.014  27.219  0.00  0.00    +0.015 A 
ENDBRANCH  28  30
ENDBRANCH  27  28
ENDBRANCH   6  27
TORSDOF 11
ENDMDL
MODEL 8
REMARK VINA RESULT:      -6.8      2.922      8.471
REMARK  Name = 
REMARK  16 active torsions:
REMARK  status: ('A' for Active; 'I' for Inactive)
REMARK    1  A    between atoms: C_1  and  C_2
REMARK    2  A    between atoms: C_5  and  C_8
REMARK    3  A    between atoms: C_8  and  O_10
REMARK    4  A    between atoms: O_10  and  C_11
REMARK    5  A    between atoms: C_12  and  O_13
REMARK    6  A    between atoms: O_13  and  C_14
REMARK    7  A    between atoms: C_14  and  C_16
REMARK    8  A    between atoms: C_19  and  C_20
REMARK    9  A    between atoms: C_24  and  C_27
REMARK   10  A    between atoms: C_27  and  O_28
REMARK   11  A    between atoms: C_27  and  C_29
REMARK   12  A    between atoms: C_29  and  N_30
REMARK   13  A    between atoms: N_30  and  C_31
REMARK   14  A    between atoms: C_31  and  C_32
REMARK   15  A    between atoms: C_31  and  C_33
REMARK   16  A    between atoms: C_31  and  C_34
REMARK                            x       y       z     vdW  Elec       q    Type
REMARK                         _______ _______ _______ _____ _____    ______ ____
ROOT
ATOM      1  C   UNL     1       7.948   0.162  25.513  0.00  0.00    +0.174 A 
ATOM      2  C   UNL     1       7.529   1.476  25.753  0.00  0.00    +0.050 A 
ATOM      3  C   UNL     1       8.222   2.554  25.209  0.00  0.00    +0.010 A 
ATOM      4  C   UNL     1       9.388   2.352  24.464  0.00  0.00    -0.014 A 
ATOM      5  C   UNL     1       9.806   1.027  24.219  0.00  0.00    +0.056 A 
ATOM      6  C   UNL     1       9.096  -0.066  24.742  0.00  0.00    +0.174 A 
ENDROOT
BRANCH   1   7
ATOM      7  O   UNL     1       7.288  -0.929  26.126  0.00  0.00    -0.419 OA
BRANCH   7   8
ATOM      8  C   UNL     1       6.064  -1.338  25.605  0.00  0.00    +0.345 C 
ATOM      9  O   UNL     1       5.295  -0.671  24.925  0.00  0.00    -0.245 OA
BRANCH   8  14
ATOM     10  C   UNL     1       4.959  -6.779  27.289  0.00  0.00    +0.044 C 
ATOM     11  C   UNL     1       5.246  -5.382  26.822  0.00  0.00    -0.050 A 
ATOM     12  C   UNL     1       4.342  -4.718  25.979  0.00  0.00    +0.004 A 
ATOM     13  C   UNL     1       4.586  -3.404  25.557  0.00  0.00    +0.015 A 
ATOM     14  C   UNL     1       5.740  -2.740  25.984  0.00  0.00    +0.059 A 
ATOM     15  C   UNL     1       6.653  -3.412  26.810  0.00  0.00    +0.015 A 
ATOM     16  C   UNL     1       6.406  -4.722  27.231  0.00  0.00    +0.004 A 
ENDBRANCH   8  14
ENDBRANCH   7   8
ENDBRANCH   1   7
BRANCH   4  17
ATOM     17  C   UNL     1      10.217   3.509  23.944  0.00  0.00    +0.158 C 
BRANCH  17  18
ATOM     18  O   UNL     1      10.498   3.283  22.557  0.00  0.00    -0.386 OA
ATOM     19  H   UNL     1      11.395   2.908  22.508  0.00  0.00    +0.210 HD
ENDBRANCH  17  18
BRANCH  17  20
ATOM     20  C   UNL     1       9.591   4.928  24.069  0.00  0.00    +0.117 C 
BRANCH  20  21
ATOM     21  N   UNL     1       9.035   5.498  22.830  0.00  0.00    -0.309 NA
ATOM     22  H   UNL     1       9.372   4.955  22.034  0.00  0.00    +0.123 HD
BRANCH  21  23
ATOM     23  C   UNL     1       7.560   5.584  22.788  0.00  0.00    +0.011 C 
ATOM     24  C   UNL     1       6.960   5.786  24.189  0.00  0.00    +0.027 C 
ATOM     25  C   UNL     1       7.027   4.249  22.227  0.00  0.00    +0.027 C 
ATOM     26  C   UNL     1       7.093   6.703  21.840  0.00  0.00    +0.027 C 
ENDBRANCH  21  23
ENDBRANCH  20  21
ENDBRANCH  17  20
ENDBRANCH   4  17
BRANCH   6  27
ATOM     27  O   UNL     1       9.595  -1.393  24.633  0.00  0.00    -0.419 OA
BRANCH  27  28
ATOM     28  C   UNL     1       9.623  -2.037  23.400  0.00  0.00    +0.345 C 
ATOM     29  O   UNL     1      10.442  -1.876  22.507  0.00  0.00    -0.245 OA
BRANCH  28  30
ATOM     30  C   UNL     1       8.482  -2.985  23.256  0.00  0.00    +0.059 A 
ATOM     31  C   UNL     1       7.427  -2.614  22.409  0.00  0.00    +0.015 A 
ATOM     32  C   UNL     1       6.362  -3.485  22.172  0.00  0.00    +0.004 A 
ATOM     33  C   UNL     1       6.338  -4.752  22.764  0.00  0.00    -0.050 A 
ATOM     34  C   UNL     1       5.208  -5.693  22.465  0.00  0.00    +0.044 C 
ATOM     35  C   UNL     1       7.388  -5.122  23.617  0.00  0.00    +0.004 A 
ATOM     36  C   UNL     1       8.455  -4.246  23.864  0.00  0.00    +0.015 A 
ENDBRANCH  28  30
ENDBRANCH  27  28
ENDBRANCH   6  27
TORSDOF 11
ENDMDL
MODEL 9
REMARK VINA RESULT:      -6.7      2.800      7.810
REMARK  Name = 
REMARK  16 active torsions:
REMARK  status: ('A' for Active; 'I' for Inactive)
REMARK    1  A    between atoms: C_1  and  C_2
REMARK    2  A    between atoms: C_5  and  C_8
REMARK    3  A    between atoms: C_8  and  O_10
REMARK    4  A    between atoms: O_10  and  C_11
REMARK    5  A    between atoms: C_12  and  O_13
REMARK    6  A    between atoms: O_13  and  C_14
REMARK    7  A    between atoms: C_14  and  C_16
REMARK    8  A    between atoms: C_19  and  C_20
REMARK    9  A    between atoms: C_24  and  C_27
REMARK   10  A    between atoms: C_27  and  O_28
REMARK   11  A    between atoms: C_27  and  C_29
REMARK   12  A    between atoms: C_29  and  N_30
REMARK   13  A    between atoms: N_30  and  C_31
REMARK   14  A    between atoms: C_31  and  C_32
REMARK   15  A    between atoms: C_31  and  C_33
REMARK   16  A    between atoms: C_31  and  C_34
REMARK                            x       y       z     vdW  Elec       q    Type
REMARK                         _______ _______ _______ _____ _____    ______ ____
ROOT
ATOM      1  C   UNL     1       9.645  -2.152  23.957  0.00  0.00    +0.174 A 
ATOM      2  C   UNL     1      10.057  -1.758  22.678  0.00  0.00    +0.050 A 
ATOM      3  C   UNL     1      10.224  -0.411  22.369  0.00  0.00    +0.010 A 
ATOM      4  C   UNL     1       9.924   0.580  23.308  0.00  0.00    -0.014 A 
ATOM      5  C   UNL     1       9.513   0.182  24.596  0.00  0.00    +0.056 A 
ATOM      6  C   UNL     1       9.369  -1.177  24.924  0.00  0.00    +0.174 A 
ENDROOT
BRANCH   1   7
ATOM      7  O   UNL     1       9.404  -3.516  24.248  0.00  0.00    -0.419 OA
BRANCH   7   8
ATOM      8  C   UNL     1       8.222  -4.090  23.789  0.00  0.00    +0.345 C 
ATOM      9  O   UNL     1       7.796  -4.077  22.641  0.00  0.00    -0.245 OA
BRANCH   8  14
ATOM     10  C   UNL     1       5.140  -6.811  27.883  0.00  0.00    +0.044 C 
ATOM     11  C   UNL     1       5.934  -6.079  26.840  0.00  0.00    -0.050 A 
ATOM     12  C   UNL     1       7.132  -5.436  27.184  0.00  0.00    +0.004 A 
ATOM     13  C   UNL     1       7.894  -4.770  26.214  0.00  0.00    +0.015 A 
ATOM     14  C   UNL     1       7.463  -4.750  24.885  0.00  0.00    +0.059 A 
ATOM     15  C   UNL     1       6.254  -5.376  24.546  0.00  0.00    +0.015 A 
ATOM     16  C   UNL     1       5.497  -6.040  25.514  0.00  0.00    +0.004 A 
ENDBRANCH   8  14
ENDBRANCH   7   8
ENDBRANCH   1   7
BRANCH   4  17
ATOM     17  C   UNL     1      10.002   2.056  22.967  0.00  0.00    +0.158 C 
BRANCH  17  18
ATOM     18  O   UNL     1      10.236   2.189  21.561  0.00  0.00    -0.386 OA
ATOM     19  H   UNL     1       9.424   1.898  21.110  0.00  0.00    +0.210 HD
ENDBRANCH  17  18
BRANCH  17  20
ATOM     20  C   UNL     1       8.756   2.919  23.319  0.00  0.00    +0.117 C 
BRANCH  20  21
ATOM     21  N   UNL     1       8.755   4.293  22.788  0.00  0.00    -0.309 NA
ATOM     22  H   UNL     1       7.861   4.470  22.328  0.00  0.00    +0.123 HD
BRANCH  21  23
ATOM     23  C   UNL     1       9.021   5.350  23.787  0.00  0.00    +0.011 C 
ATOM     24  C   UNL     1       8.267   6.649  23.456  0.00  0.00    +0.027 C 
ATOM     25  C   UNL     1      10.533   5.654  23.759  0.00  0.00    +0.027 C 
ATOM     26  C   UNL     1       8.670   4.875  25.208  0.00  0.00    +0.027 C 
ENDBRANCH  21  23
ENDBRANCH  20  21
ENDBRANCH  17  20
ENDBRANCH   4  17
BRANCH   6  27
ATOM     27  O   UNL     1       8.807  -1.583  26.165  0.00  0.00    -0.419 OA
BRANCH  27  28
ATOM     28  C   UNL     1       7.769  -0.856  26.741  0.00  0.00    +0.345 C 
ATOM     29  O   UNL     1       7.869   0.154  27.421  0.00  0.00    -0.245 OA
BRANCH  28  30
ATOM     30  C   UNL     1       6.445  -1.474  26.447  0.00  0.00    +0.059 A 
ATOM     31  C   UNL     1       6.027  -1.519  25.109  0.00  0.00    +0.015 A 
ATOM     32  C   UNL     1       4.832  -2.148  24.755  0.00  0.00    +0.004 A 
ATOM     33  C   UNL     1       4.038  -2.760  25.730  0.00  0.00    -0.050 A 
ATOM     34  C   UNL     1       2.778  -3.469  25.329  0.00  0.00    +0.044 C 
ATOM     35  C   UNL     1       4.450  -2.710  27.069  0.00  0.00    +0.004 A 
ATOM     36  C   UNL     1       5.646  -2.071  27.429  0.00  0.00    +0.015 A 
ENDBRANCH  28  30
ENDBRANCH  27  28
ENDBRANCH   6  27
TORSDOF 11
ENDMDL
