MODEL 1
REMARK VINA RESULT:      -8.4      0.000      0.000
REMARK  Name = 
REMARK  13 active torsions:
REMARK  status: ('A' for Active; 'I' for Inactive)
REMARK    1  A    between atoms: N_8  and  C_9
REMARK    2  A    between atoms: C_12  and  C_14
REMARK    3  A    between atoms: C_14  and  O_15
REMARK    4  A    between atoms: O_15  and  P_16
REMARK    5  A    between atoms: P_16  and  O_17
REMARK    6  A    between atoms: P_16  and  O_19
REMARK    7  A    between atoms: O_19  and  C_20
REMARK    8  A    between atoms: C_22  and  O_24
REMARK    9  A    between atoms: C_25  and  C_27
REMARK   10  A    between atoms: C_27  and  O_28
REMARK   11  A    between atoms: C_30  and  N_32
REMARK   12  A    between atoms: C_40  and  O_42
REMARK   13  A    between atoms: C_43  and  O_45
REMARK                            x       y       z     vdW  Elec       q    Type
REMARK                         _______ _______ _______ _____ _____    ______ ____
ROOT
ATOM      1  O   UNL     1       6.693  -0.809  26.213  0.00  0.00    -0.284 OA
ENDROOT
BRANCH   1   2
ATOM      2  P   UNL     1       6.183  -0.320  24.774  0.00  0.00    +0.475 P 
ATOM      3  O   UNL     1       5.328   0.906  24.775  0.00  0.00    -0.227 OA
BRANCH   2   4
ATOM      4  O   UNL     1       5.332  -1.578  24.281  0.00  0.00    -0.302 OA
ATOM      5  H   UNL     1       5.824  -2.400  24.459  0.00  0.00    +0.222 HD
ENDBRANCH   2   4
BRANCH   2   6
ATOM      6  O   UNL     1       7.470  -0.276  23.840  0.00  0.00    -0.276 OA
BRANCH   6   7
ATOM      7  C   UNL     1       7.965   0.948  23.315  0.00  0.00    +0.211 C 
ATOM      8  C   UNL     1       9.002   1.462  24.322  0.00  0.00    +0.255 C 
ATOM      9  O   UNL     1      10.300   0.974  23.900  0.00  0.00    -0.346 OA
ATOM     10  C   UNL     1      10.194   0.453  22.554  0.00  0.00    +0.177 C 
ATOM     11  C   UNL     1       8.790   0.776  22.053  0.00  0.00    +0.179 C 
BRANCH   8  12
ATOM     12  N   UNL     1       8.963   2.918  24.522  0.00  0.00    -0.271 N 
ATOM     13  C   UNL     1       8.146   3.373  25.556  0.00  0.00    +0.331 A 
ATOM     14  O   UNL     1       7.488   2.637  26.289  0.00  0.00    -0.246 OA
ATOM     15  N   UNL     1       8.097   4.728  25.736  0.00  0.00    -0.275 N 
ATOM     16  H   UNL     1       7.518   5.061  26.491  0.00  0.00    +0.173 HD
ATOM     17  C   UNL     1       8.874   5.644  25.095  0.00  0.00    +0.254 A 
ATOM     18  O   UNL     1       8.886   6.832  25.392  0.00  0.00    -0.268 OA
ATOM     19  C   UNL     1       9.722   5.112  24.016  0.00  0.00    +0.088 A 
ATOM     20  C   UNL     1       9.725   3.799  23.777  0.00  0.00    +0.098 A 
ENDBRANCH   8  12
BRANCH  11  21
ATOM     21  O   UNL     1       8.868   2.030  21.348  0.00  0.00    -0.386 OA
ATOM     22  H   UNL     1       8.178   2.022  20.662  0.00  0.00    +0.210 HD
ENDBRANCH  11  21
BRANCH  10  23
ATOM     23  C   UNL     1      10.519  -1.047  22.460  0.00  0.00    +0.190 C 
BRANCH  23  24
ATOM     24  O   UNL     1       9.797  -1.709  21.433  0.00  0.00    -0.392 OA
ATOM     25  H   UNL     1       9.070  -1.118  21.167  0.00  0.00    +0.210 HD
ENDBRANCH  23  24
ENDBRANCH  10  23
ENDBRANCH   6   7
ENDBRANCH   2   6
ENDBRANCH   1   2
BRANCH   1  26
ATOM     26  C   UNL     1       7.873  -1.599  26.235  0.00  0.00    +0.206 C 
BRANCH  26  30
ATOM     27  C   UNL     1       7.658  -5.233  26.354  0.00  0.00    +0.253 C 
ATOM     28  C   UNL     1       8.751  -5.058  25.290  0.00  0.00    +0.195 C 
ATOM     29  C   UNL     1       8.677  -3.584  24.877  0.00  0.00    +0.178 C 
ATOM     30  C   UNL     1       7.565  -3.017  25.758  0.00  0.00    +0.178 C 
ATOM     31  O   UNL     1       7.442  -3.906  26.886  0.00  0.00    -0.346 OA
BRANCH  27  43
ATOM     32  N   UNL     1       5.924  -5.491  21.295  0.00  0.00    -0.329 N 
ATOM     33  H   UNL     1       5.488  -5.958  20.511  0.00  0.00    +0.145 HD
ATOM     34  H   UNL     1       6.929  -5.383  21.205  0.00  0.00    +0.145 HD
ATOM     35  C   UNL     1       5.523  -5.813  22.550  0.00  0.00    +0.195 A 
ATOM     36  N   UNL     1       4.242  -6.298  22.680  0.00  0.00    -0.293 N 
ATOM     37  H   UNL     1       3.636  -6.368  21.879  0.00  0.00    +0.172 HD
ATOM     38  C   UNL     1       3.657  -6.670  23.880  0.00  0.00    +0.280 A 
ATOM     39  O   UNL     1       2.504  -7.087  23.939  0.00  0.00    -0.265 OA
ATOM     40  C   UNL     1       4.549  -6.486  25.005  0.00  0.00    +0.172 A 
ATOM     41  N   UNL     1       4.340  -6.680  26.341  0.00  0.00    -0.229 NA
ATOM     42  C   UNL     1       5.451  -6.250  26.905  0.00  0.00    +0.203 A 
ATOM     43  N   UNL     1       6.382  -5.819  25.986  0.00  0.00    -0.285 N 
ATOM     44  C   UNL     1       5.814  -5.991  24.754  0.00  0.00    +0.171 A 
ATOM     45  N   UNL     1       6.352  -5.669  23.554  0.00  0.00    -0.196 NA
ENDBRANCH  27  43
BRANCH  28  46
ATOM     46  O   UNL     1      10.042  -5.274  25.923  0.00  0.00    -0.385 OA
ATOM     47  H   UNL     1      10.062  -6.177  26.279  0.00  0.00    +0.210 HD
ENDBRANCH  28  46
BRANCH  29  48
ATOM     48  O   UNL     1       8.452  -3.411  23.481  0.00  0.00    -0.386 OA
ATOM     49  H   UNL     1       8.747  -4.213  23.012  0.00  0.00    +0.210 HD
ENDBRANCH  29  48
ENDBRANCH  26  30
ENDBRANCH   1  26
TORSDOF 13
ENDMDL
MODEL 2
REMARK VINA RESULT:      -8.3      1.625      3.144
REMARK  Name = 
REMARK  13 active torsions:
REMARK  status: ('A' for Active; 'I' for Inactive)
REMARK    1  A    between atoms: N_8  and  C_9
REMARK    2  A    between atoms: C_12  and  C_14
REMARK    3  A    between atoms: C_14  and  O_15
REMARK    4  A    between atoms: O_15  and  P_16
REMARK    5  A    between atoms: P_16  and  O_17
REMARK    6  A    between atoms: P_16  and  O_19
REMARK    7  A    between atoms: O_19  and  C_20
REMARK    8  A    between atoms: C_22  and  O_24
REMARK    9  A    between atoms: C_25  and  C_27
REMARK   10  A    between atoms: C_27  and  O_28
REMARK   11  A    between atoms: C_30  and  N_32
REMARK   12  A    between atoms: C_40  and  O_42
REMARK   13  A    between atoms: C_43  and  O_45
REMARK                            x       y       z     vdW  Elec       q    Type
REMARK                         _______ _______ _______ _____ _____    ______ ____
ROOT
ATOM      1  O   UNL     1       7.627  -0.726  26.110  0.00  0.00    -0.284 OA
ENDROOT
BRANCH   1   2
ATOM      2  P   UNL     1       8.158   0.228  24.935  0.00  0.00    +0.475 P 
ATOM      3  O   UNL     1       8.191  -0.385  23.572  0.00  0.00    -0.227 OA
BRANCH   2   4
ATOM      4  O   UNL     1       9.644   0.553  25.422  0.00  0.00    -0.302 OA
ATOM      5  H   UNL     1      10.270   0.413  24.689  0.00  0.00    +0.222 HD
ENDBRANCH   2   4
BRANCH   2   6
ATOM      6  O   UNL     1       7.350   1.590  25.072  0.00  0.00    -0.276 OA
BRANCH   6   7
ATOM      7  C   UNL     1       8.009   2.823  25.324  0.00  0.00    +0.211 C 
ATOM      8  C   UNL     1       8.197   3.499  23.959  0.00  0.00    +0.255 C 
ATOM      9  O   UNL     1       7.057   4.369  23.743  0.00  0.00    -0.346 OA
ATOM     10  C   UNL     1       6.333   4.516  24.987  0.00  0.00    +0.177 C 
ATOM     11  C   UNL     1       7.152   3.827  26.073  0.00  0.00    +0.179 C 
BRANCH   8  12
ATOM     12  N   UNL     1       9.490   4.183  23.808  0.00  0.00    -0.271 N 
ATOM     13  C   UNL     1      10.547   3.398  23.352  0.00  0.00    +0.331 A 
ATOM     14  O   UNL     1      10.449   2.205  23.070  0.00  0.00    -0.246 OA
ATOM     15  N   UNL     1      11.754   4.028  23.223  0.00  0.00    -0.275 N 
ATOM     16  H   UNL     1      12.520   3.469  22.881  0.00  0.00    +0.173 HD
ATOM     17  C   UNL     1      11.973   5.365  23.365  0.00  0.00    +0.254 A 
ATOM     18  O   UNL     1      13.046   5.896  23.105  0.00  0.00    -0.268 OA
ATOM     19  C   UNL     1      10.824   6.148  23.844  0.00  0.00    +0.088 A 
ATOM     20  C   UNL     1       9.656   5.534  24.046  0.00  0.00    +0.098 A 
ENDBRANCH   8  12
BRANCH  11  21
ATOM     21  O   UNL     1       7.992   4.831  26.674  0.00  0.00    -0.386 OA
ATOM     22  H   UNL     1       8.916   4.573  26.512  0.00  0.00    +0.210 HD
ENDBRANCH  11  21
BRANCH  10  23
ATOM     23  C   UNL     1       4.892   3.984  24.913  0.00  0.00    +0.190 C 
BRANCH  23  24
ATOM     24  O   UNL     1       4.764   2.841  24.080  0.00  0.00    -0.392 OA
ATOM     25  H   UNL     1       3.942   2.951  23.570  0.00  0.00    +0.210 HD
ENDBRANCH  23  24
ENDBRANCH  10  23
ENDBRANCH   6   7
ENDBRANCH   2   6
ENDBRANCH   1   2
BRANCH   1  26
ATOM     26  C   UNL     1       8.490  -1.779  26.513  0.00  0.00    +0.206 C 
BRANCH  26  30
ATOM     27  C   UNL     1       7.917  -5.369  26.281  0.00  0.00    +0.253 C 
ATOM     28  C   UNL     1       8.966  -5.187  25.174  0.00  0.00    +0.195 C 
ATOM     29  C   UNL     1       9.019  -3.676  24.917  0.00  0.00    +0.178 C 
ATOM     30  C   UNL     1       8.017  -3.103  25.917  0.00  0.00    +0.178 C 
ATOM     31  O   UNL     1       7.863  -4.091  26.956  0.00  0.00    -0.346 OA
BRANCH  27  43
ATOM     32  N   UNL     1       6.106  -5.489  21.244  0.00  0.00    -0.329 N 
ATOM     33  H   UNL     1       5.605  -5.908  20.473  0.00  0.00    +0.145 HD
ATOM     34  H   UNL     1       7.116  -5.515  21.143  0.00  0.00    +0.145 HD
ATOM     35  C   UNL     1       5.681  -5.733  22.508  0.00  0.00    +0.195 A 
ATOM     36  N   UNL     1       4.349  -6.044  22.659  0.00  0.00    -0.293 N 
ATOM     37  H   UNL     1       3.731  -6.048  21.865  0.00  0.00    +0.172 HD
ATOM     38  C   UNL     1       3.734  -6.314  23.871  0.00  0.00    +0.280 A 
ATOM     39  O   UNL     1       2.538  -6.575  23.948  0.00  0.00    -0.265 OA
ATOM     40  C   UNL     1       4.655  -6.228  24.985  0.00  0.00    +0.172 A 
ATOM     41  N   UNL     1       4.439  -6.369  26.326  0.00  0.00    -0.229 NA
ATOM     42  C   UNL     1       5.602  -6.079  26.872  0.00  0.00    +0.203 A 
ATOM     43  N   UNL     1       6.571  -5.789  25.936  0.00  0.00    -0.285 N 
ATOM     44  C   UNL     1       5.972  -5.908  24.712  0.00  0.00    +0.171 A 
ATOM     45  N   UNL     1       6.533  -5.680  23.502  0.00  0.00    -0.196 NA
ENDBRANCH  27  43
BRANCH  28  46
ATOM     46  O   UNL     1      10.259  -5.590  25.701  0.00  0.00    -0.385 OA
ATOM     47  H   UNL     1      10.113  -6.127  26.497  0.00  0.00    +0.210 HD
ENDBRANCH  28  46
BRANCH  29  48
ATOM     48  O   UNL     1       8.740  -3.337  23.561  0.00  0.00    -0.386 OA
ATOM     49  H   UNL     1       9.469  -2.791  23.216  0.00  0.00    +0.210 HD
ENDBRANCH  29  48
ENDBRANCH  26  30
ENDBRANCH   1  26
TORSDOF 13
ENDMDL
MODEL 3
REMARK VINA RESULT:      -8.2      1.784      3.712
REMARK  Name = 
REMARK  13 active torsions:
REMARK  status: ('A' for Active; 'I' for Inactive)
REMARK    1  A    between atoms: N_8  and  C_9
REMARK    2  A    between atoms: C_12  and  C_14
REMARK    3  A    between atoms: C_14  and  O_15
REMARK    4  A    between atoms: O_15  and  P_16
REMARK    5  A    between atoms: P_16  and  O_17
REMARK    6  A    between atoms: P_16  and  O_19
REMARK    7  A    between atoms: O_19  and  C_20
REMARK    8  A    between atoms: C_22  and  O_24
REMARK    9  A    between atoms: C_25  and  C_27
REMARK   10  A    between atoms: C_27  and  O_28
REMARK   11  A    between atoms: C_30  and  N_32
REMARK   12  A    between atoms: C_40  and  O_42
REMARK   13  A    between atoms: C_43  and  O_45
REMARK                            x       y       z     vdW  Elec       q    Type
REMARK                         _______ _______ _______ _____ _____    ______ ____
ROOT
ATOM      1  O   UNL     1       7.761  -0.642  26.074  0.00  0.00    -0.284 OA
ENDROOT
BRANCH   1   2
ATOM      2  P   UNL     1       8.178   0.236  24.799  0.00  0.00    +0.475 P 
ATOM      3  O   UNL     1       8.098  -0.463  23.480  0.00  0.00    -0.227 OA
BRANCH   2   4
ATOM      4  O   UNL     1       9.697   0.600  25.132  0.00  0.00    -0.302 OA
ATOM      5  H   UNL     1      10.108   1.036  24.363  0.00  0.00    +0.222 HD
ENDBRANCH   2   4
BRANCH   2   6
ATOM      6  O   UNL     1       7.371   1.601  24.918  0.00  0.00    -0.276 OA
BRANCH   6   7
ATOM      7  C   UNL     1       8.020   2.822  25.244  0.00  0.00    +0.211 C 
ATOM      8  C   UNL     1       8.223   3.570  23.920  0.00  0.00    +0.255 C 
ATOM      9  O   UNL     1       7.081   4.445  23.733  0.00  0.00    -0.346 OA
ATOM     10  C   UNL     1       6.339   4.523  24.973  0.00  0.00    +0.177 C 
ATOM     11  C   UNL     1       7.146   3.781  26.033  0.00  0.00    +0.179 C 
BRANCH   8  12
ATOM     12  N   UNL     1       9.514   4.267  23.825  0.00  0.00    -0.271 N 
ATOM     13  C   UNL     1      10.573   3.525  23.305  0.00  0.00    +0.331 A 
ATOM     14  O   UNL     1      10.477   2.359  22.926  0.00  0.00    -0.246 OA
ATOM     15  N   UNL     1      11.778   4.167  23.227  0.00  0.00    -0.275 N 
ATOM     16  H   UNL     1      12.545   3.639  22.839  0.00  0.00    +0.173 HD
ATOM     17  C   UNL     1      11.994   5.487  23.477  0.00  0.00    +0.254 A 
ATOM     18  O   UNL     1      13.065   6.041  23.260  0.00  0.00    -0.268 OA
ATOM     19  C   UNL     1      10.843   6.226  24.020  0.00  0.00    +0.088 A 
ATOM     20  C   UNL     1       9.677   5.595  24.172  0.00  0.00    +0.098 A 
ENDBRANCH   8  12
BRANCH  11  21
ATOM     21  O   UNL     1       7.972   4.756  26.698  0.00  0.00    -0.386 OA
ATOM     22  H   UNL     1       8.247   5.408  26.032  0.00  0.00    +0.210 HD
ENDBRANCH  11  21
BRANCH  10  23
ATOM     23  C   UNL     1       4.902   3.988  24.850  0.00  0.00    +0.190 C 
BRANCH  23  24
ATOM     24  O   UNL     1       4.800   2.862  23.991  0.00  0.00    -0.392 OA
ATOM     25  H   UNL     1       5.624   2.352  24.089  0.00  0.00    +0.210 HD
ENDBRANCH  23  24
ENDBRANCH  10  23
ENDBRANCH   6   7
ENDBRANCH   2   6
ENDBRANCH   1   2
BRANCH   1  26
ATOM     26  C   UNL     1       8.636  -1.702  26.429  0.00  0.00    +0.206 C 
BRANCH  26  30
ATOM     27  C   UNL     1       8.000  -5.265  26.019  0.00  0.00    +0.253 C 
ATOM     28  C   UNL     1       9.177  -5.084  25.050  0.00  0.00    +0.195 C 
ATOM     29  C   UNL     1       9.301  -3.569  24.848  0.00  0.00    +0.178 C 
ATOM     30  C   UNL     1       8.202  -2.994  25.741  0.00  0.00    +0.178 C 
ATOM     31  O   UNL     1       7.900  -4.006  26.722  0.00  0.00    -0.346 OA
BRANCH  27  43
ATOM     32  N   UNL     1       4.173  -7.427  29.076  0.00  0.00    -0.329 N 
ATOM     33  H   UNL     1       3.219  -7.525  29.396  0.00  0.00    +0.145 HD
ATOM     34  H   UNL     1       4.786  -6.964  29.740  0.00  0.00    +0.145 HD
ATOM     35  C   UNL     1       4.394  -7.063  27.789  0.00  0.00    +0.195 A 
ATOM     36  N   UNL     1       3.407  -7.378  26.883  0.00  0.00    -0.293 N 
ATOM     37  H   UNL     1       2.588  -7.886  27.174  0.00  0.00    +0.172 HD
ATOM     38  C   UNL     1       3.461  -7.095  25.528  0.00  0.00    +0.280 A 
ATOM     39  O   UNL     1       2.554  -7.411  24.763  0.00  0.00    -0.265 OA
ATOM     40  C   UNL     1       4.689  -6.425  25.155  0.00  0.00    +0.172 A 
ATOM     41  N   UNL     1       5.145  -6.029  23.930  0.00  0.00    -0.229 NA
ATOM     42  C   UNL     1       6.359  -5.578  24.170  0.00  0.00    +0.203 A 
ATOM     43  N   UNL     1       6.694  -5.635  25.504  0.00  0.00    -0.285 N 
ATOM     44  C   UNL     1       5.608  -6.159  26.151  0.00  0.00    +0.171 A 
ATOM     45  N   UNL     1       5.497  -6.431  27.472  0.00  0.00    -0.196 NA
ENDBRANCH  27  43
BRANCH  28  46
ATOM     46  O   UNL     1      10.387  -5.540  25.713  0.00  0.00    -0.385 OA
ATOM     47  H   UNL     1      10.668  -6.373  25.302  0.00  0.00    +0.210 HD
ENDBRANCH  28  46
BRANCH  29  48
ATOM     48  O   UNL     1       9.194  -3.184  23.481  0.00  0.00    -0.386 OA
ATOM     49  H   UNL     1       8.270  -3.295  23.192  0.00  0.00    +0.210 HD
ENDBRANCH  29  48
ENDBRANCH  26  30
ENDBRANCH   1  26
TORSDOF 13
ENDMDL
MODEL 4
REMARK VINA RESULT:      -8.2      3.156      8.931
REMARK  Name = 
REMARK  13 active torsions:
REMARK  status: ('A' for Active; 'I' for Inactive)
REMARK    1  A    between atoms: N_8  and  C_9
REMARK    2  A    between atoms: C_12  and  C_14
REMARK    3  A    between atoms: C_14  and  O_15
REMARK    4  A    between atoms: O_15  and  P_16
REMARK    5  A    between atoms: P_16  and  O_17
REMARK    6  A    between atoms: P_16  and  O_19
REMARK    7  A    between atoms: O_19  and  C_20
REMARK    8  A    between atoms: C_22  and  O_24
REMARK    9  A    between atoms: C_25  and  C_27
REMARK   10  A    between atoms: C_27  and  O_28
REMARK   11  A    between atoms: C_30  and  N_32
REMARK   12  A    between atoms: C_40  and  O_42
REMARK   13  A    between atoms: C_43  and  O_45
REMARK                            x       y       z     vdW  Elec       q    Type
REMARK                         _______ _______ _______ _____ _____    ______ ____
ROOT
ATOM      1  O   UNL     1       6.704  -5.651  26.681  0.00  0.00    -0.284 OA
ENDROOT
BRANCH   1   2
ATOM      2  P   UNL     1       5.602  -5.918  27.814  0.00  0.00    +0.475 P 
ATOM      3  O   UNL     1       6.035  -5.630  29.216  0.00  0.00    -0.227 OA
BRANCH   2   4
ATOM      4  O   UNL     1       5.322  -7.481  27.640  0.00  0.00    -0.302 OA
ATOM      5  H   UNL     1       5.604  -7.770  26.753  0.00  0.00    +0.222 HD
ENDBRANCH   2   4
BRANCH   2   6
ATOM      6  O   UNL     1       4.278  -5.184  27.325  0.00  0.00    -0.276 OA
BRANCH   6   7
ATOM      7  C   UNL     1       3.956  -5.076  25.945  0.00  0.00    +0.211 C 
ATOM      8  C   UNL     1       2.459  -5.393  25.825  0.00  0.00    +0.255 C 
ATOM      9  O   UNL     1       1.740  -4.136  25.899  0.00  0.00    -0.346 OA
ATOM     10  C   UNL     1       2.680  -3.045  25.752  0.00  0.00    +0.177 C 
ATOM     11  C   UNL     1       4.035  -3.657  25.414  0.00  0.00    +0.179 C 
BRANCH   8  12
ATOM     12  N   UNL     1       2.115  -6.193  24.641  0.00  0.00    -0.271 N 
ATOM     13  C   UNL     1       2.609  -7.496  24.619  0.00  0.00    +0.331 A 
ATOM     14  O   UNL     1       3.287  -7.992  25.517  0.00  0.00    -0.246 OA
ATOM     15  N   UNL     1       2.302  -8.239  23.512  0.00  0.00    -0.275 N 
ATOM     16  H   UNL     1       2.645  -9.187  23.497  0.00  0.00    +0.173 HD
ATOM     17  C   UNL     1       1.452  -7.868  22.516  0.00  0.00    +0.254 A 
ATOM     18  O   UNL     1       1.105  -8.626  21.618  0.00  0.00    -0.268 OA
ATOM     19  C   UNL     1       0.954  -6.485  22.589  0.00  0.00    +0.088 A 
ATOM     20  C   UNL     1       1.306  -5.721  23.626  0.00  0.00    +0.098 A 
ENDBRANCH   8  12
BRANCH  11  21
ATOM     21  O   UNL     1       4.144  -3.680  23.978  0.00  0.00    -0.386 OA
ATOM     22  H   UNL     1       4.771  -2.981  23.721  0.00  0.00    +0.210 HD
ENDBRANCH  11  21
BRANCH  10  23
ATOM     23  C   UNL     1       2.741  -2.132  26.988  0.00  0.00    +0.190 C 
BRANCH  23  24
ATOM     24  O   UNL     1       2.587  -2.839  28.210  0.00  0.00    -0.392 OA
ATOM     25  H   UNL     1       3.249  -3.552  28.213  0.00  0.00    +0.210 HD
ENDBRANCH  23  24
ENDBRANCH  10  23
ENDBRANCH   6   7
ENDBRANCH   2   6
ENDBRANCH   1   2
BRANCH   1  26
ATOM     26  C   UNL     1       7.529  -4.508  26.853  0.00  0.00    +0.206 C 
BRANCH  26  30
ATOM     27  C   UNL     1       7.372  -3.100  23.498  0.00  0.00    +0.253 C 
ATOM     28  C   UNL     1       7.755  -4.550  23.168  0.00  0.00    +0.195 C 
ATOM     29  C   UNL     1       8.214  -5.155  24.500  0.00  0.00    +0.178 C 
ATOM     30  C   UNL     1       8.032  -4.014  25.498  0.00  0.00    +0.178 C 
ATOM     31  O   UNL     1       7.078  -3.105  24.913  0.00  0.00    -0.346 OA
BRANCH  27  43
ATOM     32  N   UNL     1       5.809   1.957  22.690  0.00  0.00    -0.329 N 
ATOM     33  H   UNL     1       5.890   2.958  22.805  0.00  0.00    +0.145 HD
ATOM     34  H   UNL     1       5.041   1.542  23.207  0.00  0.00    +0.145 HD
ATOM     35  C   UNL     1       6.938   1.207  22.700  0.00  0.00    +0.195 A 
ATOM     36  N   UNL     1       8.099   1.838  22.319  0.00  0.00    -0.293 N 
ATOM     37  H   UNL     1       8.085   2.798  22.015  0.00  0.00    +0.172 HD
ATOM     38  C   UNL     1       9.344   1.233  22.258  0.00  0.00    +0.280 A 
ATOM     39  O   UNL     1      10.346   1.843  21.899  0.00  0.00    -0.265 OA
ATOM     40  C   UNL     1       9.294  -0.163  22.640  0.00  0.00    +0.172 A 
ATOM     41  N   UNL     1      10.278  -1.110  22.664  0.00  0.00    -0.229 NA
ATOM     42  C   UNL     1       9.647  -2.221  22.984  0.00  0.00    +0.203 A 
ATOM     43  N   UNL     1       8.301  -2.024  23.202  0.00  0.00    -0.285 N 
ATOM     44  C   UNL     1       8.071  -0.690  23.006  0.00  0.00    +0.171 A 
ATOM     45  N   UNL     1       6.882  -0.047  23.077  0.00  0.00    -0.196 NA
ENDBRANCH  27  43
BRANCH  28  46
ATOM     46  O   UNL     1       6.554  -5.255  22.755  0.00  0.00    -0.385 OA
ATOM     47  H   UNL     1       5.985  -4.636  22.269  0.00  0.00    +0.210 HD
ENDBRANCH  28  46
BRANCH  29  48
ATOM     48  O   UNL     1       9.543  -5.667  24.444  0.00  0.00    -0.386 OA
ATOM     49  H   UNL     1       9.577  -6.387  23.789  0.00  0.00    +0.210 HD
ENDBRANCH  29  48
ENDBRANCH  26  30
ENDBRANCH   1  26
TORSDOF 13
ENDMDL
MODEL 5
REMARK VINA RESULT:      -8.2      2.594      8.143
REMARK  Name = 
REMARK  13 active torsions:
REMARK  status: ('A' for Active; 'I' for Inactive)
REMARK    1  A    between atoms: N_8  and  C_9
REMARK    2  A    between atoms: C_12  and  C_14
REMARK    3  A    between atoms: C_14  and  O_15
REMARK    4  A    between atoms: O_15  and  P_16
REMARK    5  A    between atoms: P_16  and  O_17
REMARK    6  A    between atoms: P_16  and  O_19
REMARK    7  A    between atoms: O_19  and  C_20
REMARK    8  A    between atoms: C_22  and  O_24
REMARK    9  A    between atoms: C_25  and  C_27
REMARK   10  A    between atoms: C_27  and  O_28
REMARK   11  A    between atoms: C_30  and  N_32
REMARK   12  A    between atoms: C_40  and  O_42
REMARK   13  A    between atoms: C_43  and  O_45
REMARK                            x       y       z     vdW  Elec       q    Type
REMARK                         _______ _______ _______ _____ _____    ______ ____
ROOT
ATOM      1  O   UNL     1       8.903  -0.296  21.841  0.00  0.00    -0.284 OA
ENDROOT
BRANCH   1   2
ATOM      2  P   UNL     1       9.945  -0.960  22.863  0.00  0.00    +0.475 P 
ATOM      3  O   UNL     1      10.756  -0.000  23.673  0.00  0.00    -0.227 OA
BRANCH   2   4
ATOM      4  O   UNL     1      10.897  -1.781  21.877  0.00  0.00    -0.302 OA
ATOM      5  H   UNL     1      11.571  -2.259  22.392  0.00  0.00    +0.222 HD
ENDBRANCH   2   4
BRANCH   2   6
ATOM      6  O   UNL     1       9.127  -2.051  23.681  0.00  0.00    -0.276 OA
BRANCH   6   7
ATOM      7  C   UNL     1       7.712  -1.987  23.796  0.00  0.00    +0.211 C 
ATOM      8  C   UNL     1       7.286  -3.229  24.590  0.00  0.00    +0.255 C 
ATOM      9  O   UNL     1       7.228  -2.854  25.989  0.00  0.00    -0.346 OA
ATOM     10  C   UNL     1       7.289  -1.412  26.093  0.00  0.00    +0.177 C 
ATOM     11  C   UNL     1       7.226  -0.851  24.676  0.00  0.00    +0.179 C 
BRANCH   8  12
ATOM     12  N   UNL     1       6.047  -3.851  24.100  0.00  0.00    -0.271 N 
ATOM     13  C   UNL     1       6.197  -4.809  23.099  0.00  0.00    +0.331 A 
ATOM     14  O   UNL     1       7.281  -5.153  22.631  0.00  0.00    -0.246 OA
ATOM     15  N   UNL     1       5.045  -5.379  22.632  0.00  0.00    -0.275 N 
ATOM     16  H   UNL     1       5.148  -6.082  21.917  0.00  0.00    +0.173 HD
ATOM     17  C   UNL     1       3.800  -5.196  23.151  0.00  0.00    +0.254 A 
ATOM     18  O   UNL     1       2.823  -5.837  22.782  0.00  0.00    -0.268 OA
ATOM     19  C   UNL     1       3.697  -4.178  24.209  0.00  0.00    +0.088 A 
ATOM     20  C   UNL     1       4.803  -3.558  24.625  0.00  0.00    +0.098 A 
ENDBRANCH   8  12
BRANCH  11  21
ATOM     21  O   UNL     1       5.842  -0.572  24.391  0.00  0.00    -0.386 OA
ATOM     22  H   UNL     1       5.784  -0.314  23.455  0.00  0.00    +0.210 HD
ENDBRANCH  11  21
BRANCH  10  23
ATOM     23  C   UNL     1       8.523  -0.915  26.865  0.00  0.00    +0.190 C 
BRANCH  23  24
ATOM     24  O   UNL     1       9.213   0.131  26.198  0.00  0.00    -0.392 OA
ATOM     25  H   UNL     1       9.673   0.651  26.880  0.00  0.00    +0.210 HD
ENDBRANCH  23  24
ENDBRANCH  10  23
ENDBRANCH   6   7
ENDBRANCH   2   6
ENDBRANCH   1   2
BRANCH   1  26
ATOM     26  C   UNL     1       9.070   1.089  21.575  0.00  0.00    +0.206 C 
BRANCH  26  30
ATOM     27  C   UNL     1       6.818   3.737  22.663  0.00  0.00    +0.253 C 
ATOM     28  C   UNL     1       8.108   4.164  23.377  0.00  0.00    +0.195 C 
ATOM     29  C   UNL     1       9.030   2.941  23.306  0.00  0.00    +0.178 C 
ATOM     30  C   UNL     1       8.208   1.914  22.528  0.00  0.00    +0.178 C 
ATOM     31  O   UNL     1       7.217   2.656  21.790  0.00  0.00    -0.346 OA
BRANCH  27  43
ATOM     32  N   UNL     1       7.183   2.038  27.727  0.00  0.00    -0.329 N 
ATOM     33  H   UNL     1       6.881   1.995  28.690  0.00  0.00    +0.145 HD
ATOM     34  H   UNL     1       8.036   2.570  27.584  0.00  0.00    +0.145 HD
ATOM     35  C   UNL     1       6.253   2.234  26.760  0.00  0.00    +0.195 A 
ATOM     36  N   UNL     1       4.971   1.824  27.048  0.00  0.00    -0.293 N 
ATOM     37  H   UNL     1       4.763   1.370  27.922  0.00  0.00    +0.172 HD
ATOM     38  C   UNL     1       3.894   1.934  26.184  0.00  0.00    +0.280 A 
ATOM     39  O   UNL     1       2.773   1.540  26.490  0.00  0.00    -0.265 OA
ATOM     40  C   UNL     1       4.265   2.532  24.919  0.00  0.00    +0.172 A 
ATOM     41  N   UNL     1       3.521   2.764  23.797  0.00  0.00    -0.229 NA
ATOM     42  C   UNL     1       4.394   3.222  22.922  0.00  0.00    +0.203 A 
ATOM     43  N   UNL     1       5.664   3.327  23.443  0.00  0.00    -0.285 N 
ATOM     44  C   UNL     1       5.584   2.906  24.742  0.00  0.00    +0.171 A 
ATOM     45  N   UNL     1       6.598   2.803  25.632  0.00  0.00    -0.196 NA
ENDBRANCH  27  43
BRANCH  28  46
ATOM     46  O   UNL     1       8.726   5.228  22.604  0.00  0.00    -0.385 OA
ATOM     47  H   UNL     1       9.497   5.556  23.095  0.00  0.00    +0.210 HD
ENDBRANCH  28  46
BRANCH  29  48
ATOM     48  O   UNL     1       9.451   2.491  24.590  0.00  0.00    -0.386 OA
ATOM     49  H   UNL     1       8.873   1.760  24.874  0.00  0.00    +0.210 HD
ENDBRANCH  29  48
ENDBRANCH  26  30
ENDBRANCH   1  26
TORSDOF 13
ENDMDL
MODEL 6
REMARK VINA RESULT:      -8.2      2.437      8.909
REMARK  Name = 
REMARK  13 active torsions:
REMARK  status: ('A' for Active; 'I' for Inactive)
REMARK    1  A    between atoms: N_8  and  C_9
REMARK    2  A    between atoms: C_12  and  C_14
REMARK    3  A    between atoms: C_14  and  O_15
REMARK    4  A    between atoms: O_15  and  P_16
REMARK    5  A    between atoms: P_16  and  O_17
REMARK    6  A    between atoms: P_16  and  O_19
REMARK    7  A    between atoms: O_19  and  C_20
REMARK    8  A    between atoms: C_22  and  O_24
REMARK    9  A    between atoms: C_25  and  C_27
REMARK   10  A    between atoms: C_27  and  O_28
REMARK   11  A    between atoms: C_30  and  N_32
REMARK   12  A    between atoms: C_40  and  O_42
REMARK   13  A    between atoms: C_43  and  O_45
REMARK                            x       y       z     vdW  Elec       q    Type
REMARK                         _______ _______ _______ _____ _____    ______ ____
ROOT
ATOM      1  O   UNL     1       6.520  -4.061  21.423  0.00  0.00    -0.284 OA
ENDROOT
BRANCH   1   2
ATOM      2  P   UNL     1       6.141  -5.499  22.023  0.00  0.00    +0.475 P 
ATOM      3  O   UNL     1       7.287  -6.297  22.558  0.00  0.00    -0.227 OA
BRANCH   2   4
ATOM      4  O   UNL     1       5.514  -6.232  20.750  0.00  0.00    -0.302 OA
ATOM      5  H   UNL     1       5.695  -7.188  20.797  0.00  0.00    +0.222 HD
ENDBRANCH   2   4
BRANCH   2   6
ATOM      6  O   UNL     1       4.929  -5.256  23.022  0.00  0.00    -0.276 OA
BRANCH   6   7
ATOM      7  C   UNL     1       4.664  -6.145  24.099  0.00  0.00    +0.211 C 
ATOM      8  C   UNL     1       4.348  -5.266  25.317  0.00  0.00    +0.255 C 
ATOM      9  O   UNL     1       2.910  -5.083  25.361  0.00  0.00    -0.346 OA
ATOM     10  C   UNL     1       2.287  -6.020  24.451  0.00  0.00    +0.177 C 
ATOM     11  C   UNL     1       3.383  -6.941  23.926  0.00  0.00    +0.179 C 
BRANCH   8  12
ATOM     12  N   UNL     1       4.911  -5.773  26.576  0.00  0.00    -0.271 N 
ATOM     13  C   UNL     1       6.290  -5.642  26.727  0.00  0.00    +0.331 A 
ATOM     14  O   UNL     1       7.030  -5.129  25.889  0.00  0.00    -0.246 OA
ATOM     15  N   UNL     1       6.819  -6.125  27.892  0.00  0.00    -0.275 N 
ATOM     16  H   UNL     1       7.815  -6.020  28.013  0.00  0.00    +0.173 HD
ATOM     17  C   UNL     1       6.108  -6.586  28.958  0.00  0.00    +0.254 A 
ATOM     18  O   UNL     1       6.625  -6.878  30.028  0.00  0.00    -0.268 OA
ATOM     19  C   UNL     1       4.655  -6.701  28.749  0.00  0.00    +0.088 A 
ATOM     20  C   UNL     1       4.131  -6.303  27.587  0.00  0.00    +0.098 A 
ENDBRANCH   8  12
BRANCH  11  21
ATOM     21  O   UNL     1       3.411  -8.099  24.782  0.00  0.00    -0.386 OA
ATOM     22  H   UNL     1       3.067  -7.828  25.651  0.00  0.00    +0.210 HD
ENDBRANCH  11  21
BRANCH  10  23
ATOM     23  C   UNL     1       1.508  -5.331  23.317  0.00  0.00    +0.190 C 
BRANCH  23  24
ATOM     24  O   UNL     1       0.887  -6.250  22.431  0.00  0.00    -0.392 OA
ATOM     25  H   UNL     1       1.555  -6.507  21.771  0.00  0.00    +0.210 HD
ENDBRANCH  23  24
ENDBRANCH  10  23
ENDBRANCH   6   7
ENDBRANCH   2   6
ENDBRANCH   1   2
BRANCH   1  26
ATOM     26  C   UNL     1       5.925  -2.934  22.050  0.00  0.00    +0.206 C 
BRANCH  26  30
ATOM     27  C   UNL     1       9.252  -1.747  22.935  0.00  0.00    +0.253 C 
ATOM     28  C   UNL     1       8.863  -2.463  24.236  0.00  0.00    +0.195 C 
ATOM     29  C   UNL     1       7.349  -2.686  24.132  0.00  0.00    +0.178 C 
ATOM     30  C   UNL     1       6.991  -2.107  22.765  0.00  0.00    +0.178 C 
ATOM     31  O   UNL     1       8.209  -2.089  21.995  0.00  0.00    -0.346 OA
BRANCH  27  43
ATOM     32  N   UNL     1       7.567   1.419  26.910  0.00  0.00    -0.329 N 
ATOM     33  H   UNL     1       7.672   2.181  27.566  0.00  0.00    +0.145 HD
ATOM     34  H   UNL     1       7.621   0.498  27.335  0.00  0.00    +0.145 HD
ATOM     35  C   UNL     1       8.193   1.500  25.711  0.00  0.00    +0.195 A 
ATOM     36  N   UNL     1       8.452   2.766  25.237  0.00  0.00    -0.293 N 
ATOM     37  H   UNL     1       8.152   3.577  25.752  0.00  0.00    +0.172 HD
ATOM     38  C   UNL     1       9.074   3.045  24.031  0.00  0.00    +0.280 A 
ATOM     39  O   UNL     1       9.270   4.196  23.653  0.00  0.00    -0.265 OA
ATOM     40  C   UNL     1       9.423   1.844  23.302  0.00  0.00    +0.172 A 
ATOM     41  N   UNL     1       9.991   1.690  22.069  0.00  0.00    -0.229 NA
ATOM     42  C   UNL     1       9.973   0.387  21.869  0.00  0.00    +0.203 A 
ATOM     43  N   UNL     1       9.448  -0.308  22.935  0.00  0.00    -0.285 N 
ATOM     44  C   UNL     1       9.113   0.626  23.877  0.00  0.00    +0.171 A 
ATOM     45  N   UNL     1       8.529   0.404  25.077  0.00  0.00    -0.196 NA
ENDBRANCH  27  43
BRANCH  28  46
ATOM     46  O   UNL     1       9.501  -3.769  24.246  0.00  0.00    -0.385 OA
ATOM     47  H   UNL     1      10.451  -3.647  24.088  0.00  0.00    +0.210 HD
ENDBRANCH  28  46
BRANCH  29  48
ATOM     48  O   UNL     1       6.630  -2.102  25.214  0.00  0.00    -0.386 OA
ATOM     49  H   UNL     1       5.675  -2.162  25.028  0.00  0.00    +0.210 HD
ENDBRANCH  29  48
ENDBRANCH  26  30
ENDBRANCH   1  26
TORSDOF 13
ENDMDL
MODEL 7
REMARK VINA RESULT:      -8.0      2.936      4.901
REMARK  Name = 
REMARK  13 active torsions:
REMARK  status: ('A' for Active; 'I' for Inactive)
REMARK    1  A    between atoms: N_8  and  C_9
REMARK    2  A    between atoms: C_12  and  C_14
REMARK    3  A    between atoms: C_14  and  O_15
REMARK    4  A    between atoms: O_15  and  P_16
REMARK    5  A    between atoms: P_16  and  O_17
REMARK    6  A    between atoms: P_16  and  O_19
REMARK    7  A    between atoms: O_19  and  C_20
REMARK    8  A    between atoms: C_22  and  O_24
REMARK    9  A    between atoms: C_25  and  C_27
REMARK   10  A    between atoms: C_27  and  O_28
REMARK   11  A    between atoms: C_30  and  N_32
REMARK   12  A    between atoms: C_40  and  O_42
REMARK   13  A    between atoms: C_43  and  O_45
REMARK                            x       y       z     vdW  Elec       q    Type
REMARK                         _______ _______ _______ _____ _____    ______ ____
ROOT
ATOM      1  O   UNL     1       9.973   1.316  24.309  0.00  0.00    -0.284 OA
ENDROOT
BRANCH   1   2
ATOM      2  P   UNL     1       9.883   2.548  23.286  0.00  0.00    +0.475 P 
ATOM      3  O   UNL     1       9.716   2.180  21.846  0.00  0.00    -0.227 OA
BRANCH   2   4
ATOM      4  O   UNL     1      11.294   3.262  23.505  0.00  0.00    -0.302 OA
ATOM      5  H   UNL     1      11.563   3.182  24.439  0.00  0.00    +0.222 HD
ENDBRANCH   2   4
BRANCH   2   6
ATOM      6  O   UNL     1       8.797   3.542  23.885  0.00  0.00    -0.276 OA
BRANCH   6   7
ATOM      7  C   UNL     1       7.859   4.209  23.051  0.00  0.00    +0.211 C 
ATOM      8  C   UNL     1       6.656   4.549  23.940  0.00  0.00    +0.255 C 
ATOM      9  O   UNL     1       6.861   5.887  24.460  0.00  0.00    -0.346 OA
ATOM     10  C   UNL     1       7.940   6.516  23.729  0.00  0.00    +0.177 C 
ATOM     11  C   UNL     1       8.325   5.578  22.590  0.00  0.00    +0.179 C 
BRANCH   8  12
ATOM     12  N   UNL     1       5.358   4.374  23.273  0.00  0.00    -0.271 N 
ATOM     13  C   UNL     1       4.930   3.059  23.099  0.00  0.00    +0.331 A 
ATOM     14  O   UNL     1       5.562   2.073  23.475  0.00  0.00    -0.246 OA
ATOM     15  N   UNL     1       3.729   2.894  22.467  0.00  0.00    -0.275 N 
ATOM     16  H   UNL     1       3.408   1.945  22.351  0.00  0.00    +0.173 HD
ATOM     17  C   UNL     1       2.865   3.889  22.126  0.00  0.00    +0.254 A 
ATOM     18  O   UNL     1       1.742   3.676  21.685  0.00  0.00    -0.268 OA
ATOM     19  C   UNL     1       3.363   5.259  22.333  0.00  0.00    +0.088 A 
ATOM     20  C   UNL     1       4.566   5.438  22.882  0.00  0.00    +0.098 A 
ENDBRANCH   8  12
BRANCH  11  21
ATOM     21  O   UNL     1       7.571   5.983  21.432  0.00  0.00    -0.386 OA
ATOM     22  H   UNL     1       6.639   6.055  21.701  0.00  0.00    +0.210 HD
ENDBRANCH  11  21
BRANCH  10  23
ATOM     23  C   UNL     1       9.140   6.879  24.619  0.00  0.00    +0.190 C 
BRANCH  23  24
ATOM     24  O   UNL     1      10.328   6.190  24.260  0.00  0.00    -0.392 OA
ATOM     25  H   UNL     1      10.934   6.249  25.020  0.00  0.00    +0.210 HD
ENDBRANCH  23  24
ENDBRANCH  10  23
ENDBRANCH   6   7
ENDBRANCH   2   6
ENDBRANCH   1   2
BRANCH   1  26
ATOM     26  C   UNL     1       8.752   0.883  24.891  0.00  0.00    +0.206 C 
BRANCH  26  30
ATOM     27  C   UNL     1       9.430  -2.522  23.790  0.00  0.00    +0.253 C 
ATOM     28  C   UNL     1       8.706  -1.974  22.552  0.00  0.00    +0.195 C 
ATOM     29  C   UNL     1       8.041  -0.674  23.020  0.00  0.00    +0.178 C 
ATOM     30  C   UNL     1       8.460  -0.560  24.485  0.00  0.00    +0.178 C 
ATOM     31  O   UNL     1       9.642  -1.370  24.637  0.00  0.00    -0.346 OA
BRANCH  27  43
ATOM     32  N   UNL     1       4.344  -4.063  23.141  0.00  0.00    -0.329 N 
ATOM     33  H   UNL     1       3.612  -4.756  23.058  0.00  0.00    +0.145 HD
ATOM     34  H   UNL     1       4.573  -3.597  22.269  0.00  0.00    +0.145 HD
ATOM     35  C   UNL     1       5.428  -4.348  23.904  0.00  0.00    +0.195 A 
ATOM     36  N   UNL     1       5.242  -5.259  24.919  0.00  0.00    -0.293 N 
ATOM     37  H   UNL     1       4.333  -5.654  25.093  0.00  0.00    +0.172 HD
ATOM     38  C   UNL     1       6.227  -5.665  25.805  0.00  0.00    +0.280 A 
ATOM     39  O   UNL     1       6.002  -6.474  26.700  0.00  0.00    -0.265 OA
ATOM     40  C   UNL     1       7.496  -5.016  25.550  0.00  0.00    +0.172 A 
ATOM     41  N   UNL     1       8.684  -5.100  26.219  0.00  0.00    -0.229 NA
ATOM     42  C   UNL     1       9.454  -4.216  25.618  0.00  0.00    +0.203 A 
ATOM     43  N   UNL     1       8.823  -3.588  24.567  0.00  0.00    -0.285 N 
ATOM     44  C   UNL     1       7.564  -4.118  24.502  0.00  0.00    +0.171 A 
ATOM     45  N   UNL     1       6.576  -3.775  23.643  0.00  0.00    -0.196 NA
ENDBRANCH  27  43
BRANCH  28  46
ATOM     46  O   UNL     1       9.705  -1.624  21.557  0.00  0.00    -0.385 OA
ATOM     47  H   UNL     1      10.480  -2.194  21.686  0.00  0.00    +0.210 HD
ENDBRANCH  28  46
BRANCH  29  48
ATOM     48  O   UNL     1       6.630  -0.672  22.822  0.00  0.00    -0.386 OA
ATOM     49  H   UNL     1       6.208  -0.194  23.558  0.00  0.00    +0.210 HD
ENDBRANCH  29  48
ENDBRANCH  26  30
ENDBRANCH   1  26
TORSDOF 13
ENDMDL
MODEL 8
REMARK VINA RESULT:      -7.9      2.892      7.216
REMARK  Name = 
REMARK  13 active torsions:
REMARK  status: ('A' for Active; 'I' for Inactive)
REMARK    1  A    between atoms: N_8  and  C_9
REMARK    2  A    between atoms: C_12  and  C_14
REMARK    3  A    between atoms: C_14  and  O_15
REMARK    4  A    between atoms: O_15  and  P_16
REMARK    5  A    between atoms: P_16  and  O_17
REMARK    6  A    between atoms: P_16  and  O_19
REMARK    7  A    between atoms: O_19  and  C_20
REMARK    8  A    between atoms: C_22  and  O_24
REMARK    9  A    between atoms: C_25  and  C_27
REMARK   10  A    between atoms: C_27  and  O_28
REMARK   11  A    between atoms: C_30  and  N_32
REMARK   12  A    between atoms: C_40  and  O_42
REMARK   13  A    between atoms: C_43  and  O_45
REMARK                            x       y       z     vdW  Elec       q    Type
REMARK                         _______ _______ _______ _____ _____    ______ ____
ROOT
ATOM      1  O   UNL     1       6.261  -4.141  27.799  0.00  0.00    -0.284 OA
ENDROOT
BRANCH   1   2
ATOM      2  P   UNL     1       6.408  -5.664  27.319  0.00  0.00    +0.475 P 
ATOM      3  O   UNL     1       5.699  -6.677  28.160  0.00  0.00    -0.227 OA
BRANCH   2   4
ATOM      4  O   UNL     1       7.987  -5.887  27.412  0.00  0.00    -0.302 OA
ATOM      5  H   UNL     1       8.275  -5.825  28.341  0.00  0.00    +0.222 HD
ENDBRANCH   2   4
BRANCH   2   6
ATOM      6  O   UNL     1       6.060  -5.674  25.767  0.00  0.00    -0.276 OA
BRANCH   6   7
ATOM      7  C   UNL     1       6.140  -4.494  24.980  0.00  0.00    +0.211 C 
ATOM      8  C   UNL     1       7.067  -4.821  23.803  0.00  0.00    +0.255 C 
ATOM      9  O   UNL     1       6.235  -5.272  22.704  0.00  0.00    -0.346 OA
ATOM     10  C   UNL     1       4.852  -4.965  23.003  0.00  0.00    +0.177 C 
ATOM     11  C   UNL     1       4.838  -4.140  24.285  0.00  0.00    +0.179 C 
BRANCH   8  12
ATOM     12  N   UNL     1       7.972  -3.722  23.437  0.00  0.00    -0.271 N 
ATOM     13  C   UNL     1       9.120  -3.589  24.216  0.00  0.00    +0.331 A 
ATOM     14  O   UNL     1       9.405  -4.329  25.156  0.00  0.00    -0.246 OA
ATOM     15  N   UNL     1       9.957  -2.559  23.886  0.00  0.00    -0.275 N 
ATOM     16  H   UNL     1      10.795  -2.466  24.438  0.00  0.00    +0.173 HD
ATOM     17  C   UNL     1       9.838  -1.755  22.793  0.00  0.00    +0.254 A 
ATOM     18  O   UNL     1      10.690  -0.937  22.471  0.00  0.00    -0.268 OA
ATOM     19  C   UNL     1       8.611  -1.940  22.002  0.00  0.00    +0.088 A 
ATOM     20  C   UNL     1       7.746  -2.893  22.355  0.00  0.00    +0.098 A 
ENDBRANCH   8  12
BRANCH  11  21
ATOM     21  O   UNL     1       4.854  -2.753  23.899  0.00  0.00    -0.386 OA
ATOM     22  H   UNL     1       5.762  -2.427  24.020  0.00  0.00    +0.210 HD
ENDBRANCH  11  21
BRANCH  10  23
ATOM     23  C   UNL     1       3.965  -6.217  23.101  0.00  0.00    +0.190 C 
BRANCH  23  24
ATOM     24  O   UNL     1       4.615  -7.312  23.730  0.00  0.00    -0.392 OA
ATOM     25  H   UNL     1       5.077  -7.809  23.032  0.00  0.00    +0.210 HD
ENDBRANCH  23  24
ENDBRANCH  10  23
ENDBRANCH   6   7
ENDBRANCH   2   6
ENDBRANCH   1   2
BRANCH   1  26
ATOM     26  C   UNL     1       4.938  -3.657  27.978  0.00  0.00    +0.206 C 
BRANCH  26  30
ATOM     27  C   UNL     1       5.836  -0.137  27.706  0.00  0.00    +0.253 C 
ATOM     28  C   UNL     1       4.527  -0.025  28.502  0.00  0.00    +0.195 C 
ATOM     29  C   UNL     1       3.856  -1.397  28.364  0.00  0.00    +0.178 C 
ATOM     30  C   UNL     1       4.846  -2.201  27.524  0.00  0.00    +0.178 C 
ATOM     31  O   UNL     1       6.125  -1.553  27.665  0.00  0.00    -0.346 OA
BRANCH  27  43
ATOM     32  N   UNL     1      10.473   0.702  25.165  0.00  0.00    -0.329 N 
ATOM     33  H   UNL     1      11.079   0.675  24.356  0.00  0.00    +0.145 HD
ATOM     34  H   UNL     1      10.703   0.015  25.876  0.00  0.00    +0.145 HD
ATOM     35  C   UNL     1       9.140   0.861  24.976  0.00  0.00    +0.195 A 
ATOM     36  N   UNL     1       8.755   1.507  23.824  0.00  0.00    -0.293 N 
ATOM     37  H   UNL     1       9.444   1.868  23.185  0.00  0.00    +0.172 HD
ATOM     38  C   UNL     1       7.442   1.768  23.466  0.00  0.00    +0.280 A 
ATOM     39  O   UNL     1       7.158   2.360  22.429  0.00  0.00    -0.265 OA
ATOM     40  C   UNL     1       6.499   1.287  24.452  0.00  0.00    +0.172 A 
ATOM     41  N   UNL     1       5.137   1.391  24.500  0.00  0.00    -0.229 NA
ATOM     42  C   UNL     1       4.817   0.875  25.670  0.00  0.00    +0.203 A 
ATOM     43  N   UNL     1       5.912   0.410  26.364  0.00  0.00    -0.285 N 
ATOM     44  C   UNL     1       7.001   0.651  25.572  0.00  0.00    +0.171 A 
ATOM     45  N   UNL     1       8.297   0.393  25.863  0.00  0.00    -0.196 NA
ENDBRANCH  27  43
BRANCH  28  46
ATOM     46  O   UNL     1       4.861   0.164  29.904  0.00  0.00    -0.385 OA
ATOM     47  H   UNL     1       4.369   0.932  30.236  0.00  0.00    +0.210 HD
ENDBRANCH  28  46
BRANCH  29  48
ATOM     48  O   UNL     1       2.550  -1.318  27.800  0.00  0.00    -0.386 OA
ATOM     49  H   UNL     1       2.604  -0.867  26.938  0.00  0.00    +0.210 HD
ENDBRANCH  29  48
ENDBRANCH  26  30
ENDBRANCH   1  26
TORSDOF 13
ENDMDL
MODEL 9
REMARK VINA RESULT:      -7.9      2.975      7.770
REMARK  Name = 
REMARK  13 active torsions:
REMARK  status: ('A' for Active; 'I' for Inactive)
REMARK    1  A    between atoms: N_8  and  C_9
REMARK    2  A    between atoms: C_12  and  C_14
REMARK    3  A    between atoms: C_14  and  O_15
REMARK    4  A    between atoms: O_15  and  P_16
REMARK    5  A    between atoms: P_16  and  O_17
REMARK    6  A    between atoms: P_16  and  O_19
REMARK    7  A    between atoms: O_19  and  C_20
REMARK    8  A    between atoms: C_22  and  O_24
REMARK    9  A    between atoms: C_25  and  C_27
REMARK   10  A    between atoms: C_27  and  O_28
REMARK   11  A    between atoms: C_30  and  N_32
REMARK   12  A    between atoms: C_40  and  O_42
REMARK   13  A    between atoms: C_43  and  O_45
REMARK                            x       y       z     vdW  Elec       q    Type
REMARK                         _______ _______ _______ _____ _____    ______ ____
ROOT
ATOM      1  O   UNL     1       4.351   0.333  26.075  0.00  0.00    -0.284 OA
ENDROOT
BRANCH   1   2
ATOM      2  P   UNL     1       4.238  -1.022  26.924  0.00  0.00    +0.475 P 
ATOM      3  O   UNL     1       2.883  -1.323  27.480  0.00  0.00    -0.227 OA
BRANCH   2   4
ATOM      4  O   UNL     1       5.268  -0.752  28.114  0.00  0.00    -0.302 OA
ATOM      5  H   UNL     1       4.860  -0.165  28.777  0.00  0.00    +0.222 HD
ENDBRANCH   2   4
BRANCH   2   6
ATOM      6  O   UNL     1       4.897  -2.160  26.031  0.00  0.00    -0.276 OA
BRANCH   6   7
ATOM      7  C   UNL     1       5.816  -1.851  24.992  0.00  0.00    +0.211 C 
ATOM      8  C   UNL     1       7.170  -2.426  25.426  0.00  0.00    +0.255 C 
ATOM      9  O   UNL     1       7.277  -3.760  24.867  0.00  0.00    -0.346 OA
ATOM     10  C   UNL     1       6.237  -3.941  23.877  0.00  0.00    +0.177 C 
ATOM     11  C   UNL     1       5.541  -2.596  23.698  0.00  0.00    +0.179 C 
BRANCH   8  12
ATOM     12  N   UNL     1       8.314  -1.563  25.100  0.00  0.00    -0.271 N 
ATOM     13  C   UNL     1       8.624  -0.578  26.035  0.00  0.00    +0.331 A 
ATOM     14  O   UNL     1       8.013  -0.411  27.089  0.00  0.00    -0.246 OA
ATOM     15  N   UNL     1       9.680   0.235  25.728  0.00  0.00    -0.275 N 
ATOM     16  H   UNL     1       9.918   0.941  26.408  0.00  0.00    +0.173 HD
ATOM     17  C   UNL     1      10.526   0.077  24.673  0.00  0.00    +0.254 A 
ATOM     18  O   UNL     1      11.536   0.752  24.521  0.00  0.00    -0.268 OA
ATOM     19  C   UNL     1      10.156  -0.980  23.717  0.00  0.00    +0.088 A 
ATOM     20  C   UNL     1       9.084  -1.735  23.965  0.00  0.00    +0.098 A 
ENDBRANCH   8  12
BRANCH  11  21
ATOM     21  O   UNL     1       6.190  -1.924  22.602  0.00  0.00    -0.386 OA
ATOM     22  H   UNL     1       5.934  -2.384  21.784  0.00  0.00    +0.210 HD
ENDBRANCH  11  21
BRANCH  10  23
ATOM     23  C   UNL     1       5.252  -5.066  24.236  0.00  0.00    +0.190 C 
BRANCH  23  24
ATOM     24  O   UNL     1       5.061  -5.213  25.635  0.00  0.00    -0.392 OA
ATOM     25  H   UNL     1       4.832  -6.145  25.796  0.00  0.00    +0.210 HD
ENDBRANCH  23  24
ENDBRANCH  10  23
ENDBRANCH   6   7
ENDBRANCH   2   6
ENDBRANCH   1   2
BRANCH   1  26
ATOM     26  C   UNL     1       5.111   1.384  26.653  0.00  0.00    +0.206 C 
BRANCH  26  30
ATOM     27  C   UNL     1       6.068   4.258  24.630  0.00  0.00    +0.253 C 
ATOM     28  C   UNL     1       5.285   3.441  23.592  0.00  0.00    +0.195 C 
ATOM     29  C   UNL     1       5.145   2.042  24.205  0.00  0.00    +0.178 C 
ATOM     30  C   UNL     1       5.833   2.172  25.563  0.00  0.00    +0.178 C 
ATOM     31  O   UNL     1       5.843   3.577  25.885  0.00  0.00    -0.346 OA
BRANCH  27  43
ATOM     32  N   UNL     1       9.054   1.362  21.259  0.00  0.00    -0.329 N 
ATOM     33  H   UNL     1       9.767   1.249  20.551  0.00  0.00    +0.145 HD
ATOM     34  H   UNL     1       8.107   1.240  20.916  0.00  0.00    +0.145 HD
ATOM     35  C   UNL     1       9.180   2.372  22.155  0.00  0.00    +0.195 A 
ATOM     36  N   UNL     1      10.459   2.814  22.407  0.00  0.00    -0.293 N 
ATOM     37  H   UNL     1      11.249   2.372  21.968  0.00  0.00    +0.172 HD
ATOM     38  C   UNL     1      10.783   3.827  23.295  0.00  0.00    +0.280 A 
ATOM     39  O   UNL     1      11.944   4.173  23.490  0.00  0.00    -0.265 OA
ATOM     40  C   UNL     1       9.614   4.379  23.947  0.00  0.00    +0.172 A 
ATOM     41  N   UNL     1       9.510   5.341  24.912  0.00  0.00    -0.229 NA
ATOM     42  C   UNL     1       8.226   5.361  25.208  0.00  0.00    +0.203 A 
ATOM     43  N   UNL     1       7.491   4.477  24.449  0.00  0.00    -0.285 N 
ATOM     44  C   UNL     1       8.379   3.856  23.614  0.00  0.00    +0.171 A 
ATOM     45  N   UNL     1       8.111   2.882  22.714  0.00  0.00    -0.196 NA
ENDBRANCH  27  43
BRANCH  28  46
ATOM     46  O   UNL     1       3.952   4.007  23.478  0.00  0.00    -0.385 OA
ATOM     47  H   UNL     1       3.955   4.886  23.891  0.00  0.00    +0.210 HD
ENDBRANCH  28  46
BRANCH  29  48
ATOM     48  O   UNL     1       5.689   1.019  23.377  0.00  0.00    -0.386 OA
ATOM     49  H   UNL     1       4.986   0.381  23.160  0.00  0.00    +0.210 HD
ENDBRANCH  29  48
ENDBRANCH  26  30
ENDBRANCH   1  26
TORSDOF 13
ENDMDL
