MODEL 1
REMARK VINA RESULT:      -4.0      0.000      0.000
REMARK  Name = 
REMARK  2 active torsions:
REMARK  status: ('A' for Active; 'I' for Inactive)
REMARK    1  A    between atoms: O_1  and  C_2
REMARK    2  A    between atoms: C_2  and  C_3
REMARK                            x       y       z     vdW  Elec       q    Type
REMARK                         _______ _______ _______ _____ _____    ______ ____
ROOT
ATOM      1  C   UNL     1       9.942  -0.493  22.822  0.00  0.00    -0.022 A 
ATOM      2  C   UNL     1      10.393  -0.052  24.075  0.00  0.00    +0.006 A 
ATOM      3  C   UNL     1      10.639   1.303  24.306  0.00  0.00    +0.000 A 
ATOM      4  C   UNL     1      10.438   2.231  23.288  0.00  0.00    +0.000 A 
ATOM      5  C   UNL     1       9.989   1.807  22.039  0.00  0.00    +0.000 A 
ATOM      6  C   UNL     1       9.741   0.452  21.806  0.00  0.00    +0.006 A 
ENDROOT
BRANCH   1   7
ATOM      7  C   UNL     1       9.664  -1.951  22.584  0.00  0.00    +0.191 C 
BRANCH   7   8
ATOM      8  O   UNL     1      10.251  -2.724  23.622  0.00  0.00    -0.390 OA
ATOM      9  H   UNL     1      10.934  -2.169  24.031  0.00  0.00    +0.210 HD
ENDBRANCH   7   8
ENDBRANCH   1   7
TORSDOF 2
ENDMDL
MODEL 2
REMARK VINA RESULT:      -3.9      2.536      3.632
REMARK  Name = 
REMARK  2 active torsions:
REMARK  status: ('A' for Active; 'I' for Inactive)
REMARK    1  A    between atoms: O_1  and  C_2
REMARK    2  A    between atoms: C_2  and  C_3
REMARK                            x       y       z     vdW  Elec       q    Type
REMARK                         _______ _______ _______ _____ _____    ______ ____
ROOT
ATOM      1  C   UNL     1      10.351   2.148  23.253  0.00  0.00    -0.022 A 
ATOM      2  C   UNL     1      10.671   1.192  24.227  0.00  0.00    +0.006 A 
ATOM      3  C   UNL     1      10.524  -0.171  23.961  0.00  0.00    +0.000 A 
ATOM      4  C   UNL     1      10.055  -0.592  22.719  0.00  0.00    +0.000 A 
ATOM      5  C   UNL     1       9.734   0.348  21.742  0.00  0.00    +0.000 A 
ATOM      6  C   UNL     1       9.882   1.712  22.006  0.00  0.00    +0.006 A 
ENDROOT
BRANCH   1   7
ATOM      7  C   UNL     1      10.527   3.614  23.540  0.00  0.00    +0.191 C 
BRANCH   7   8
ATOM      8  O   UNL     1      11.654   4.107  22.829  0.00  0.00    -0.390 OA
ATOM      9  H   UNL     1      11.460   5.033  22.608  0.00  0.00    +0.210 HD
ENDBRANCH   7   8
ENDBRANCH   1   7
TORSDOF 2
ENDMDL
MODEL 3
REMARK VINA RESULT:      -3.9      0.433      1.744
REMARK  Name = 
REMARK  2 active torsions:
REMARK  status: ('A' for Active; 'I' for Inactive)
REMARK    1  A    between atoms: O_1  and  C_2
REMARK    2  A    between atoms: C_2  and  C_3
REMARK                            x       y       z     vdW  Elec       q    Type
REMARK                         _______ _______ _______ _____ _____    ______ ____
ROOT
ATOM      1  C   UNL     1      10.181  -0.412  22.919  0.00  0.00    -0.022 A 
ATOM      2  C   UNL     1       9.763   0.343  21.814  0.00  0.00    +0.006 A 
ATOM      3  C   UNL     1       9.791   1.738  21.853  0.00  0.00    +0.000 A 
ATOM      4  C   UNL     1      10.236   2.394  22.998  0.00  0.00    +0.000 A 
ATOM      5  C   UNL     1      10.655   1.656  24.104  0.00  0.00    +0.000 A 
ATOM      6  C   UNL     1      10.629   0.259  24.065  0.00  0.00    +0.006 A 
ENDROOT
BRANCH   1   7
ATOM      7  C   UNL     1      10.164  -1.914  22.864  0.00  0.00    +0.191 C 
BRANCH   7   8
ATOM      8  O   UNL     1       9.824  -2.435  24.142  0.00  0.00    -0.390 OA
ATOM      9  H   UNL     1      10.259  -3.300  24.215  0.00  0.00    +0.210 HD
ENDBRANCH   7   8
ENDBRANCH   1   7
TORSDOF 2
ENDMDL
MODEL 4
REMARK VINA RESULT:      -3.9      2.443      3.880
REMARK  Name = 
REMARK  2 active torsions:
REMARK  status: ('A' for Active; 'I' for Inactive)
REMARK    1  A    between atoms: O_1  and  C_2
REMARK    2  A    between atoms: C_2  and  C_3
REMARK                            x       y       z     vdW  Elec       q    Type
REMARK                         _______ _______ _______ _____ _____    ______ ____
ROOT
ATOM      1  C   UNL     1      10.225   1.686  23.172  0.00  0.00    -0.022 A 
ATOM      2  C   UNL     1       9.735   1.422  21.886  0.00  0.00    +0.006 A 
ATOM      3  C   UNL     1       9.531   0.109  21.458  0.00  0.00    +0.000 A 
ATOM      4  C   UNL     1       9.816  -0.954  22.311  0.00  0.00    +0.000 A 
ATOM      5  C   UNL     1      10.303  -0.705  23.592  0.00  0.00    +0.000 A 
ATOM      6  C   UNL     1      10.506   0.608  24.023  0.00  0.00    +0.006 A 
ENDROOT
BRANCH   1   7
ATOM      7  C   UNL     1      10.428   3.103  23.633  0.00  0.00    +0.191 C 
BRANCH   7   8
ATOM      8  O   UNL     1      11.271   3.787  22.716  0.00  0.00    -0.390 OA
ATOM      9  H   UNL     1      12.040   4.096  23.223  0.00  0.00    +0.210 HD
ENDBRANCH   7   8
ENDBRANCH   1   7
TORSDOF 2
ENDMDL
MODEL 5
REMARK VINA RESULT:      -3.8      2.199      3.369
REMARK  Name = 
REMARK  2 active torsions:
REMARK  status: ('A' for Active; 'I' for Inactive)
REMARK    1  A    between atoms: O_1  and  C_2
REMARK    2  A    between atoms: C_2  and  C_3
REMARK                            x       y       z     vdW  Elec       q    Type
REMARK                         _______ _______ _______ _____ _____    ______ ____
ROOT
ATOM      1  C   UNL     1       9.946   0.549  22.611  0.00  0.00    -0.022 A 
ATOM      2  C   UNL     1      10.111   0.098  23.928  0.00  0.00    +0.006 A 
ATOM      3  C   UNL     1       9.896  -1.243  24.252  0.00  0.00    +0.000 A 
ATOM      4  C   UNL     1       9.516  -2.147  23.264  0.00  0.00    +0.000 A 
ATOM      5  C   UNL     1       9.350  -1.712  21.950  0.00  0.00    +0.000 A 
ATOM      6  C   UNL     1       9.565  -0.370  21.624  0.00  0.00    +0.006 A 
ENDROOT
BRANCH   1   7
ATOM      7  C   UNL     1      10.194   1.991  22.266  0.00  0.00    +0.191 C 
BRANCH   7   8
ATOM      8  O   UNL     1       9.093   2.501  21.526  0.00  0.00    -0.390 OA
ATOM      9  H   UNL     1       9.463   3.065  20.828  0.00  0.00    +0.210 HD
ENDBRANCH   7   8
ENDBRANCH   1   7
TORSDOF 2
ENDMDL
MODEL 6
REMARK VINA RESULT:      -3.6      3.539      4.634
REMARK  Name = 
REMARK  2 active torsions:
REMARK  status: ('A' for Active; 'I' for Inactive)
REMARK    1  A    between atoms: O_1  and  C_2
REMARK    2  A    between atoms: C_2  and  C_3
REMARK                            x       y       z     vdW  Elec       q    Type
REMARK                         _______ _______ _______ _____ _____    ______ ____
ROOT
ATOM      1  C   UNL     1       8.133   2.985  22.462  0.00  0.00    -0.022 A 
ATOM      2  C   UNL     1       7.966   1.910  21.578  0.00  0.00    +0.006 A 
ATOM      3  C   UNL     1       8.933   0.907  21.486  0.00  0.00    +0.000 A 
ATOM      4  C   UNL     1      10.077   0.969  22.277  0.00  0.00    +0.000 A 
ATOM      5  C   UNL     1      10.256   2.031  23.161  0.00  0.00    +0.000 A 
ATOM      6  C   UNL     1       9.288   3.035  23.254  0.00  0.00    +0.006 A 
ENDROOT
BRANCH   1   7
ATOM      7  C   UNL     1       7.081   4.054  22.566  0.00  0.00    +0.191 C 
BRANCH   7   8
ATOM      8  O   UNL     1       7.389   5.117  21.676  0.00  0.00    -0.390 OA
ATOM      9  H   UNL     1       7.319   4.756  20.777  0.00  0.00    +0.210 HD
ENDBRANCH   7   8
ENDBRANCH   1   7
TORSDOF 2
ENDMDL
MODEL 7
REMARK VINA RESULT:      -3.6      1.257      1.275
REMARK  Name = 
REMARK  2 active torsions:
REMARK  status: ('A' for Active; 'I' for Inactive)
REMARK    1  A    between atoms: O_1  and  C_2
REMARK    2  A    between atoms: C_2  and  C_3
REMARK                            x       y       z     vdW  Elec       q    Type
REMARK                         _______ _______ _______ _____ _____    ______ ____
ROOT
ATOM      1  C   UNL     1      10.010   0.232  22.817  0.00  0.00    -0.022 A 
ATOM      2  C   UNL     1      10.053   0.768  24.112  0.00  0.00    +0.006 A 
ATOM      3  C   UNL     1       9.742   2.110  24.337  0.00  0.00    +0.000 A 
ATOM      4  C   UNL     1       9.384   2.931  23.271  0.00  0.00    +0.000 A 
ATOM      5  C   UNL     1       9.336   2.411  21.979  0.00  0.00    +0.000 A 
ATOM      6  C   UNL     1       9.646   1.067  21.752  0.00  0.00    +0.006 A 
ENDROOT
BRANCH   1   7
ATOM      7  C   UNL     1      10.331  -1.218  22.584  0.00  0.00    +0.191 C 
BRANCH   7   8
ATOM      8  O   UNL     1       9.723  -1.653  21.376  0.00  0.00    -0.390 OA
ATOM      9  H   UNL     1       9.926  -0.983  20.704  0.00  0.00    +0.210 HD
ENDBRANCH   7   8
ENDBRANCH   1   7
TORSDOF 2
ENDMDL
MODEL 8
REMARK VINA RESULT:      -3.5      2.905      4.766
REMARK  Name = 
REMARK  2 active torsions:
REMARK  status: ('A' for Active; 'I' for Inactive)
REMARK    1  A    between atoms: O_1  and  C_2
REMARK    2  A    between atoms: C_2  and  C_3
REMARK                            x       y       z     vdW  Elec       q    Type
REMARK                         _______ _______ _______ _____ _____    ______ ____
ROOT
ATOM      1  C   UNL     1       8.680  -2.653  22.931  0.00  0.00    -0.022 A 
ATOM      2  C   UNL     1       9.514  -2.886  24.034  0.00  0.00    +0.006 A 
ATOM      3  C   UNL     1       9.329  -4.010  24.841  0.00  0.00    +0.000 A 
ATOM      4  C   UNL     1       8.308  -4.913  24.555  0.00  0.00    +0.000 A 
ATOM      5  C   UNL     1       7.472  -4.694  23.462  0.00  0.00    +0.000 A 
ATOM      6  C   UNL     1       7.657  -3.570  22.652  0.00  0.00    +0.006 A 
ENDROOT
BRANCH   1   7
ATOM      7  C   UNL     1       8.895  -1.450  22.057  0.00  0.00    +0.191 C 
BRANCH   7   8
ATOM      8  O   UNL     1      10.167  -1.536  21.430  0.00  0.00    -0.390 OA
ATOM      9  H   UNL     1      10.573  -0.656  21.501  0.00  0.00    +0.210 HD
ENDBRANCH   7   8
ENDBRANCH   1   7
TORSDOF 2
ENDMDL
MODEL 9
REMARK VINA RESULT:      -3.5      4.523      5.733
REMARK  Name = 
REMARK  2 active torsions:
REMARK  status: ('A' for Active; 'I' for Inactive)
REMARK    1  A    between atoms: O_1  and  C_2
REMARK    2  A    between atoms: C_2  and  C_3
REMARK                            x       y       z     vdW  Elec       q    Type
REMARK                         _______ _______ _______ _____ _____    ______ ____
ROOT
ATOM      1  C   UNL     1      11.894   4.872  23.395  0.00  0.00    -0.022 A 
ATOM      2  C   UNL     1      11.066   5.944  23.757  0.00  0.00    +0.006 A 
ATOM      3  C   UNL     1       9.716   5.735  24.042  0.00  0.00    +0.000 A 
ATOM      4  C   UNL     1       9.178   4.452  23.969  0.00  0.00    +0.000 A 
ATOM      5  C   UNL     1       9.990   3.378  23.611  0.00  0.00    +0.000 A 
ATOM      6  C   UNL     1      11.342   3.585  23.326  0.00  0.00    +0.006 A 
ENDROOT
BRANCH   1   7
ATOM      7  C   UNL     1      13.351   5.101  23.104  0.00  0.00    +0.191 C 
BRANCH   7   8
ATOM      8  O   UNL     1      13.505   5.563  21.769  0.00  0.00    -0.390 OA
ATOM      9  H   UNL     1      14.347   6.045  21.736  0.00  0.00    +0.210 HD
ENDBRANCH   7   8
ENDBRANCH   1   7
TORSDOF 2
ENDMDL
