MODEL 1
REMARK VINA RESULT:      -4.7      0.000      0.000
REMARK  Name = 
REMARK  3 active torsions:
REMARK  status: ('A' for Active; 'I' for Inactive)
REMARK    1  A    between atoms: C_1  and  C_2
REMARK    2  A    between atoms: C_5  and  O_6
REMARK    3  A    between atoms: C_7  and  O_8
REMARK                            x       y       z     vdW  Elec       q    Type
REMARK                         _______ _______ _______ _____ _____    ______ ____
ROOT
ATOM      1  C   UNL     1       9.789  -2.818  24.062  0.00  0.00    +0.044 C 
ATOM      2  C   UNL     1       9.829  -1.494  23.360  0.00  0.00    -0.047 A 
ATOM      3  C   UNL     1      10.277  -0.357  24.047  0.00  0.00    +0.052 A 
ATOM      4  C   UNL     1      10.315   0.867  23.393  0.00  0.00    +0.158 A 
ATOM      5  C   UNL     1       9.912   0.981  22.065  0.00  0.00    +0.158 A 
ATOM      6  C   UNL     1       9.458  -0.134  21.372  0.00  0.00    +0.049 A 
ATOM      7  C   UNL     1       9.416  -1.371  22.024  0.00  0.00    +0.007 A 
ENDROOT
BRANCH   4   8
ATOM      8  O   UNL     1      10.758   1.970  24.067  0.00  0.00    -0.503 OA
ATOM      9  H   UNL     1      11.496   2.307  23.522  0.00  0.00    +0.292 HD
ENDBRANCH   4   8
BRANCH   5  10
ATOM     10  O   UNL     1       9.983   2.216  21.483  0.00  0.00    -0.503 OA
ATOM     11  H   UNL     1       9.083   2.475  21.220  0.00  0.00    +0.292 HD
ENDBRANCH   5  10
TORSDOF 2
ENDMDL
MODEL 2
REMARK VINA RESULT:      -4.4      2.082      3.805
REMARK  Name = 
REMARK  3 active torsions:
REMARK  status: ('A' for Active; 'I' for Inactive)
REMARK    1  A    between atoms: C_1  and  C_2
REMARK    2  A    between atoms: C_5  and  O_6
REMARK    3  A    between atoms: C_7  and  O_8
REMARK                            x       y       z     vdW  Elec       q    Type
REMARK                         _______ _______ _______ _____ _____    ______ ____
ROOT
ATOM      1  C   UNL     1      10.532   3.335  23.392  0.00  0.00    +0.044 C 
ATOM      2  C   UNL     1      10.339   1.847  23.368  0.00  0.00    -0.047 A 
ATOM      3  C   UNL     1      10.024   1.207  22.161  0.00  0.00    +0.052 A 
ATOM      4  C   UNL     1       9.847  -0.169  22.142  0.00  0.00    +0.158 A 
ATOM      5  C   UNL     1       9.977  -0.922  23.306  0.00  0.00    +0.158 A 
ATOM      6  C   UNL     1      10.281  -0.303  24.512  0.00  0.00    +0.049 A 
ATOM      7  C   UNL     1      10.460   1.084  24.540  0.00  0.00    +0.007 A 
ENDROOT
BRANCH   4   8
ATOM      8  O   UNL     1       9.545  -0.787  20.962  0.00  0.00    -0.503 OA
ATOM      9  H   UNL     1       9.798  -0.138  20.277  0.00  0.00    +0.292 HD
ENDBRANCH   4   8
BRANCH   5  10
ATOM     10  O   UNL     1       9.796  -2.275  23.212  0.00  0.00    -0.503 OA
ATOM     11  H   UNL     1       8.945  -2.493  23.631  0.00  0.00    +0.292 HD
ENDBRANCH   5  10
TORSDOF 2
ENDMDL
MODEL 3
REMARK VINA RESULT:      -4.2      5.595      6.740
REMARK  Name = 
REMARK  3 active torsions:
REMARK  status: ('A' for Active; 'I' for Inactive)
REMARK    1  A    between atoms: C_1  and  C_2
REMARK    2  A    between atoms: C_5  and  O_6
REMARK    3  A    between atoms: C_7  and  O_8
REMARK                            x       y       z     vdW  Elec       q    Type
REMARK                         _______ _______ _______ _____ _____    ______ ____
ROOT
ATOM      1  C   UNL     1       7.073  -3.933  22.330  0.00  0.00    +0.044 C 
ATOM      2  C   UNL     1       7.272  -4.459  23.720  0.00  0.00    -0.047 A 
ATOM      3  C   UNL     1       8.563  -4.780  24.163  0.00  0.00    +0.052 A 
ATOM      4  C   UNL     1       8.744  -5.265  25.451  0.00  0.00    +0.158 A 
ATOM      5  C   UNL     1       7.660  -5.439  26.308  0.00  0.00    +0.158 A 
ATOM      6  C   UNL     1       6.374  -5.133  25.883  0.00  0.00    +0.049 A 
ATOM      7  C   UNL     1       6.183  -4.645  24.586  0.00  0.00    +0.007 A 
ENDROOT
BRANCH   4   8
ATOM      8  O   UNL     1      10.005  -5.571  25.877  0.00  0.00    -0.503 OA
ATOM      9  H   UNL     1      10.034  -5.250  26.800  0.00  0.00    +0.292 HD
ENDBRANCH   4   8
BRANCH   5  10
ATOM     10  O   UNL     1       7.914  -5.914  27.565  0.00  0.00    -0.503 OA
ATOM     11  H   UNL     1       8.831  -6.238  27.583  0.00  0.00    +0.292 HD
ENDBRANCH   5  10
TORSDOF 2
ENDMDL
MODEL 4
REMARK VINA RESULT:      -4.2      0.904      2.244
REMARK  Name = 
REMARK  3 active torsions:
REMARK  status: ('A' for Active; 'I' for Inactive)
REMARK    1  A    between atoms: C_1  and  C_2
REMARK    2  A    between atoms: C_5  and  O_6
REMARK    3  A    between atoms: C_7  and  O_8
REMARK                            x       y       z     vdW  Elec       q    Type
REMARK                         _______ _______ _______ _____ _____    ______ ____
ROOT
ATOM      1  C   UNL     1       8.596  -2.313  22.474  0.00  0.00    +0.044 C 
ATOM      2  C   UNL     1       9.252  -1.020  22.860  0.00  0.00    -0.047 A 
ATOM      3  C   UNL     1       9.319   0.029  21.932  0.00  0.00    +0.052 A 
ATOM      4  C   UNL     1       9.925   1.224  22.293  0.00  0.00    +0.158 A 
ATOM      5  C   UNL     1      10.470   1.394  23.563  0.00  0.00    +0.158 A 
ATOM      6  C   UNL     1      10.419   0.363  24.491  0.00  0.00    +0.049 A 
ATOM      7  C   UNL     1       9.811  -0.846  24.136  0.00  0.00    +0.007 A 
ENDROOT
BRANCH   4   8
ATOM      8  O   UNL     1       9.982   2.244  21.385  0.00  0.00    -0.503 OA
ATOM      9  H   UNL     1       9.635   3.018  21.869  0.00  0.00    +0.292 HD
ENDBRANCH   4   8
BRANCH   5  10
ATOM     10  O   UNL     1      11.045   2.601  23.852  0.00  0.00    -0.503 OA
ATOM     11  H   UNL     1      10.584   2.975  24.622  0.00  0.00    +0.292 HD
ENDBRANCH   5  10
TORSDOF 2
ENDMDL
MODEL 5
REMARK VINA RESULT:      -4.1      1.463      2.427
REMARK  Name = 
REMARK  3 active torsions:
REMARK  status: ('A' for Active; 'I' for Inactive)
REMARK    1  A    between atoms: C_1  and  C_2
REMARK    2  A    between atoms: C_5  and  O_6
REMARK    3  A    between atoms: C_7  and  O_8
REMARK                            x       y       z     vdW  Elec       q    Type
REMARK                         _______ _______ _______ _____ _____    ______ ____
ROOT
ATOM      1  C   UNL     1       8.900  -1.498  25.671  0.00  0.00    +0.044 C 
ATOM      2  C   UNL     1       9.271  -0.525  24.591  0.00  0.00    -0.047 A 
ATOM      3  C   UNL     1       9.229  -0.928  23.249  0.00  0.00    +0.052 A 
ATOM      4  C   UNL     1       9.572  -0.026  22.252  0.00  0.00    +0.158 A 
ATOM      5  C   UNL     1       9.957   1.275  22.567  0.00  0.00    +0.158 A 
ATOM      6  C   UNL     1      10.012   1.688  23.892  0.00  0.00    +0.049 A 
ATOM      7  C   UNL     1       9.669   0.784  24.903  0.00  0.00    +0.007 A 
ENDROOT
BRANCH   4   8
ATOM      8  O   UNL     1       9.524  -0.424  20.946  0.00  0.00    -0.503 OA
ATOM      9  H   UNL     1       8.962   0.246  20.509  0.00  0.00    +0.292 HD
ENDBRANCH   4   8
BRANCH   5  10
ATOM     10  O   UNL     1      10.274   2.112  21.533  0.00  0.00    -0.503 OA
ATOM     11  H   UNL     1      10.468   1.564  20.753  0.00  0.00    +0.292 HD
ENDBRANCH   5  10
TORSDOF 2
ENDMDL
MODEL 6
REMARK VINA RESULT:      -4.1      2.204      3.190
REMARK  Name = 
REMARK  3 active torsions:
REMARK  status: ('A' for Active; 'I' for Inactive)
REMARK    1  A    between atoms: C_1  and  C_2
REMARK    2  A    between atoms: C_5  and  O_6
REMARK    3  A    between atoms: C_7  and  O_8
REMARK                            x       y       z     vdW  Elec       q    Type
REMARK                         _______ _______ _______ _____ _____    ______ ____
ROOT
ATOM      1  C   UNL     1       8.921   2.886  24.680  0.00  0.00    +0.044 C 
ATOM      2  C   UNL     1       9.245   1.716  23.799  0.00  0.00    -0.047 A 
ATOM      3  C   UNL     1       9.489   0.461  24.374  0.00  0.00    +0.052 A 
ATOM      4  C   UNL     1       9.787  -0.620  23.557  0.00  0.00    +0.158 A 
ATOM      5  C   UNL     1       9.848  -0.475  22.174  0.00  0.00    +0.158 A 
ATOM      6  C   UNL     1       9.617   0.763  21.588  0.00  0.00    +0.049 A 
ATOM      7  C   UNL     1       9.317   1.859  22.405  0.00  0.00    +0.007 A 
ENDROOT
BRANCH   4   8
ATOM      8  O   UNL     1      10.019  -1.841  24.124  0.00  0.00    -0.503 OA
ATOM      9  H   UNL     1      10.968  -1.826  24.353  0.00  0.00    +0.292 HD
ENDBRANCH   4   8
BRANCH   5  10
ATOM     10  O   UNL     1      10.140  -1.584  21.429  0.00  0.00    -0.503 OA
ATOM     11  H   UNL     1       9.330  -2.119  21.359  0.00  0.00    +0.292 HD
ENDBRANCH   5  10
TORSDOF 2
ENDMDL
MODEL 7
REMARK VINA RESULT:      -4.1      5.898      6.849
REMARK  Name = 
REMARK  3 active torsions:
REMARK  status: ('A' for Active; 'I' for Inactive)
REMARK    1  A    between atoms: C_1  and  C_2
REMARK    2  A    between atoms: C_5  and  O_6
REMARK    3  A    between atoms: C_7  and  O_8
REMARK                            x       y       z     vdW  Elec       q    Type
REMARK                         _______ _______ _______ _____ _____    ______ ____
ROOT
ATOM      1  C   UNL     1       4.692  -4.934  24.049  0.00  0.00    +0.044 C 
ATOM      2  C   UNL     1       6.111  -5.068  24.517  0.00  0.00    -0.047 A 
ATOM      3  C   UNL     1       6.373  -5.394  25.855  0.00  0.00    +0.052 A 
ATOM      4  C   UNL     1       7.686  -5.519  26.284  0.00  0.00    +0.158 A 
ATOM      5  C   UNL     1       8.747  -5.324  25.404  0.00  0.00    +0.158 A 
ATOM      6  C   UNL     1       8.506  -4.992  24.077  0.00  0.00    +0.049 A 
ATOM      7  C   UNL     1       7.184  -4.863  23.636  0.00  0.00    +0.007 A 
ENDROOT
BRANCH   4   8
ATOM      8  O   UNL     1       7.934  -5.843  27.588  0.00  0.00    -0.503 OA
ATOM      9  H   UNL     1       7.065  -6.119  27.939  0.00  0.00    +0.292 HD
ENDBRANCH   4   8
BRANCH   5  10
ATOM     10  O   UNL     1      10.016  -5.470  25.894  0.00  0.00    -0.503 OA
ATOM     11  H   UNL     1      10.559  -5.880  25.199  0.00  0.00    +0.292 HD
ENDBRANCH   5  10
TORSDOF 2
ENDMDL
MODEL 8
REMARK VINA RESULT:      -3.9      5.382      6.757
REMARK  Name = 
REMARK  3 active torsions:
REMARK  status: ('A' for Active; 'I' for Inactive)
REMARK    1  A    between atoms: C_1  and  C_2
REMARK    2  A    between atoms: C_5  and  O_6
REMARK    3  A    between atoms: C_7  and  O_8
REMARK                            x       y       z     vdW  Elec       q    Type
REMARK                         _______ _______ _______ _____ _____    ______ ____
ROOT
ATOM      1  C   UNL     1       9.637  -2.948  24.176  0.00  0.00    +0.044 C 
ATOM      2  C   UNL     1       8.579  -3.879  24.691  0.00  0.00    -0.047 A 
ATOM      3  C   UNL     1       8.746  -4.497  25.939  0.00  0.00    +0.052 A 
ATOM      4  C   UNL     1       7.765  -5.356  26.413  0.00  0.00    +0.158 A 
ATOM      5  C   UNL     1       6.619  -5.615  25.666  0.00  0.00    +0.158 A 
ATOM      6  C   UNL     1       6.442  -5.017  24.425  0.00  0.00    +0.049 A 
ATOM      7  C   UNL     1       7.426  -4.150  23.939  0.00  0.00    +0.007 A 
ENDROOT
BRANCH   4   8
ATOM      8  O   UNL     1       7.931  -5.950  27.632  0.00  0.00    -0.503 OA
ATOM      9  H   UNL     1       8.518  -6.711  27.453  0.00  0.00    +0.292 HD
ENDBRANCH   4   8
BRANCH   5  10
ATOM     10  O   UNL     1       5.691  -6.466  26.199  0.00  0.00    -0.503 OA
ATOM     11  H   UNL     1       6.163  -7.123  26.738  0.00  0.00    +0.292 HD
ENDBRANCH   5  10
TORSDOF 2
ENDMDL
MODEL 9
REMARK VINA RESULT:      -3.9      2.914      3.759
REMARK  Name = 
REMARK  3 active torsions:
REMARK  status: ('A' for Active; 'I' for Inactive)
REMARK    1  A    between atoms: C_1  and  C_2
REMARK    2  A    between atoms: C_5  and  O_6
REMARK    3  A    between atoms: C_7  and  O_8
REMARK                            x       y       z     vdW  Elec       q    Type
REMARK                         _______ _______ _______ _____ _____    ______ ____
ROOT
ATOM      1  C   UNL     1       6.277   2.157  22.974  0.00  0.00    +0.044 C 
ATOM      2  C   UNL     1       7.345   1.180  22.580  0.00  0.00    -0.047 A 
ATOM      3  C   UNL     1       7.220  -0.169  22.941  0.00  0.00    +0.052 A 
ATOM      4  C   UNL     1       8.208  -1.071  22.573  0.00  0.00    +0.158 A 
ATOM      5  C   UNL     1       9.324  -0.653  21.851  0.00  0.00    +0.158 A 
ATOM      6  C   UNL     1       9.467   0.680  21.492  0.00  0.00    +0.049 A 
ATOM      7  C   UNL     1       8.475   1.596  21.860  0.00  0.00    +0.007 A 
ENDROOT
BRANCH   4   8
ATOM      8  O   UNL     1       8.078  -2.384  22.924  0.00  0.00    -0.503 OA
ATOM      9  H   UNL     1       8.789  -2.839  22.432  0.00  0.00    +0.292 HD
ENDBRANCH   4   8
BRANCH   5  10
ATOM     10  O   UNL     1      10.254  -1.598  21.517  0.00  0.00    -0.503 OA
ATOM     11  H   UNL     1      11.051  -1.134  21.204  0.00  0.00    +0.292 HD
ENDBRANCH   5  10
TORSDOF 2
ENDMDL
