MODEL 1
REMARK VINA RESULT:      -7.5      0.000      0.000
REMARK  Name = 
REMARK  7 active torsions:
REMARK  status: ('A' for Active; 'I' for Inactive)
REMARK    1  A    between atoms: C_2  and  N_3
REMARK    2  A    between atoms: C_2  and  C_4
REMARK    3  A    between atoms: C_2  and  C_21
REMARK    4  A    between atoms: C_4  and  O_5
REMARK    5  A    between atoms: O_5  and  C_6
REMARK    6  A    between atoms: C_10  and  C_12
REMARK    7  A    between atoms: C_21  and  C_22
REMARK                            x       y       z     vdW  Elec       q    Type
REMARK                         _______ _______ _______ _____ _____    ______ ____
ROOT
ATOM      1  O   UNL     1       7.649  -5.425  27.643  0.00  0.00    -0.489 OA
ENDROOT
BRANCH   1   2
ATOM      2  C   UNL     1       8.254  -4.788  26.589  0.00  0.00    +0.139 A 
ATOM      3  C   UNL     1       8.098  -3.397  26.528  0.00  0.00    +0.058 A 
ATOM      4  C   UNL     1       8.712  -2.668  25.502  0.00  0.00    +0.021 A 
ATOM      5  C   UNL     1       9.447  -3.396  24.563  0.00  0.00    +0.121 A 
ATOM      6  N   UNL     1       9.607  -4.739  24.581  0.00  0.00    -0.259 NA
ATOM      7  C   UNL     1       9.010  -5.400  25.594  0.00  0.00    +0.156 A 
BRANCH   4   8
ATOM      8  C   UNL     1       8.682  -1.174  25.339  0.00  0.00    +0.068 C 
ATOM      9  C   UNL     1       9.811  -0.512  24.626  0.00  0.00    +0.039 C 
ATOM     10  C   UNL     1       9.701   0.803  24.476  0.00  0.00    +0.022 C 
ATOM     11  C   UNL     1       8.579   1.562  24.978  0.00  0.00    +0.093 C 
ATOM     12  N   UNL     1       8.699   2.833  24.699  0.00  0.00    -0.152 NA
ATOM     13  N   UNL     1       9.951   3.003  23.973  0.00  0.00    -0.157 NA
ATOM     14  C   UNL     1       7.471   0.900  25.710  0.00  0.00    +0.200 C 
ATOM     15  C   UNL     1      10.509   1.833  23.858  0.00  0.00    +0.144 C 
ATOM     16  N   UNL     1       7.661  -0.551  25.819  0.00  0.00    -0.277 NA
ENDBRANCH   4   8
ENDBRANCH   1   2
BRANCH   1  17
ATOM     17  C   UNL     1       6.237  -5.187  27.770  0.00  0.00    +0.247 C 
BRANCH  17  18
ATOM     18  C   UNL     1       5.438  -6.229  26.961  0.00  0.00    +0.093 C 
BRANCH  18  19
ATOM     19  N   UNL     1       4.990  -7.324  27.839  0.00  0.00    -0.324 NA
ATOM     20  H   UNL     1       5.575  -8.147  27.685  0.00  0.00    +0.119 HD
ATOM     21  H   UNL     1       5.161  -7.048  28.809  0.00  0.00    +0.119 HD
ENDBRANCH  18  19
BRANCH  18  22
ATOM     22  C   UNL     1       4.241  -5.535  26.275  0.00  0.00    +0.059 C 
BRANCH  22  23
ATOM     23  C   UNL     1       4.655  -4.377  25.452  0.00  0.00    -0.019 C 
ATOM     24  C   UNL     1       4.300  -2.976  25.725  0.00  0.00    +0.115 C 
ATOM     25  N   UNL     1       4.721  -2.102  24.860  0.00  0.00    -0.255 NA
ATOM     26  C   UNL     1       5.408  -2.854  23.951  0.00  0.00    +0.068 C 
ATOM     27  C   UNL     1       6.024  -2.463  22.835  0.00  0.00    +0.005 C 
ATOM     28  C   UNL     1       6.736  -3.457  21.946  0.00  0.00    +0.056 C 
ATOM     29  C   UNL     1       6.667  -4.896  22.433  0.00  0.00    -0.022 C 
ATOM     30  C   UNL     1       6.028  -5.272  23.555  0.00  0.00    +0.006 C 
ATOM     31  C   UNL     1       5.379  -4.251  24.337  0.00  0.00    +0.004 C 
ENDBRANCH  22  23
ENDBRANCH  18  22
ENDBRANCH  17  18
ENDBRANCH   1  17
TORSDOF 7
ENDMDL
MODEL 2
REMARK VINA RESULT:      -6.9      2.593      7.104
REMARK  Name = 
REMARK  7 active torsions:
REMARK  status: ('A' for Active; 'I' for Inactive)
REMARK    1  A    between atoms: C_2  and  N_3
REMARK    2  A    between atoms: C_2  and  C_4
REMARK    3  A    between atoms: C_2  and  C_21
REMARK    4  A    between atoms: C_4  and  O_5
REMARK    5  A    between atoms: O_5  and  C_6
REMARK    6  A    between atoms: C_10  and  C_12
REMARK    7  A    between atoms: C_21  and  C_22
REMARK                            x       y       z     vdW  Elec       q    Type
REMARK                         _______ _______ _______ _____ _____    ______ ____
ROOT
ATOM      1  O   UNL     1       7.171   2.565  22.903  0.00  0.00    -0.489 OA
ENDROOT
BRANCH   1   2
ATOM      2  C   UNL     1       6.611   1.727  23.834  0.00  0.00    +0.139 A 
ATOM      3  C   UNL     1       6.450   0.388  23.453  0.00  0.00    +0.058 A 
ATOM      4  C   UNL     1       5.916  -0.538  24.358  0.00  0.00    +0.021 A 
ATOM      5  C   UNL     1       5.547  -0.051  25.614  0.00  0.00    +0.121 A 
ATOM      6  N   UNL     1       5.673   1.235  26.012  0.00  0.00    -0.259 NA
ATOM      7  C   UNL     1       6.204   2.090  25.114  0.00  0.00    +0.156 A 
BRANCH   4   8
ATOM      8  C   UNL     1       5.739  -2.011  24.113  0.00  0.00    +0.068 C 
ATOM      9  C   UNL     1       6.166  -2.571  22.800  0.00  0.00    +0.039 C 
ATOM     10  C   UNL     1       6.025  -3.885  22.666  0.00  0.00    +0.022 C 
ATOM     11  C   UNL     1       5.479  -4.730  23.704  0.00  0.00    +0.093 C 
ATOM     12  N   UNL     1       5.450  -5.982  23.334  0.00  0.00    -0.152 NA
ATOM     13  N   UNL     1       5.989  -6.050  21.981  0.00  0.00    -0.157 NA
ATOM     14  C   UNL     1       5.032  -4.160  24.999  0.00  0.00    +0.200 C 
ATOM     15  C   UNL     1       6.309  -4.842  21.617  0.00  0.00    +0.144 C 
ATOM     16  N   UNL     1       5.235  -2.709  25.073  0.00  0.00    -0.277 NA
ENDBRANCH   4   8
ENDBRANCH   1   2
BRANCH   1  17
ATOM     17  C   UNL     1       8.526   2.963  23.177  0.00  0.00    +0.247 C 
BRANCH  17  18
ATOM     18  C   UNL     1       9.514   1.883  22.691  0.00  0.00    +0.093 C 
BRANCH  18  19
ATOM     19  N   UNL     1      10.550   2.486  21.833  0.00  0.00    -0.324 NA
ATOM     20  H   UNL     1      10.676   3.467  22.088  0.00  0.00    +0.119 HD
ATOM     21  H   UNL     1      11.443   2.035  22.044  0.00  0.00    +0.119 HD
ENDBRANCH  18  19
BRANCH  18  22
ATOM     22  C   UNL     1      10.140   1.178  23.914  0.00  0.00    +0.059 C 
BRANCH  22  23
ATOM     23  C   UNL     1      10.031  -0.296  23.836  0.00  0.00    -0.019 C 
ATOM     24  C   UNL     1      10.458  -1.115  22.691  0.00  0.00    +0.115 C 
ATOM     25  N   UNL     1      10.239  -2.392  22.790  0.00  0.00    -0.255 NA
ATOM     26  C   UNL     1       9.664  -2.525  24.022  0.00  0.00    +0.068 C 
ATOM     27  C   UNL     1       9.212  -3.628  24.620  0.00  0.00    +0.005 C 
ATOM     28  C   UNL     1       8.598  -3.571  26.000  0.00  0.00    +0.056 C 
ATOM     29  C   UNL     1       8.542  -2.177  26.606  0.00  0.00    -0.022 C 
ATOM     30  C   UNL     1       8.992  -1.075  25.979  0.00  0.00    +0.006 C 
ATOM     31  C   UNL     1       9.561  -1.231  24.666  0.00  0.00    +0.004 C 
ENDBRANCH  22  23
ENDBRANCH  18  22
ENDBRANCH  17  18
ENDBRANCH   1  17
TORSDOF 7
ENDMDL
MODEL 3
REMARK VINA RESULT:      -6.8      2.109      3.160
REMARK  Name = 
REMARK  7 active torsions:
REMARK  status: ('A' for Active; 'I' for Inactive)
REMARK    1  A    between atoms: C_2  and  N_3
REMARK    2  A    between atoms: C_2  and  C_4
REMARK    3  A    between atoms: C_2  and  C_21
REMARK    4  A    between atoms: C_4  and  O_5
REMARK    5  A    between atoms: O_5  and  C_6
REMARK    6  A    between atoms: C_10  and  C_12
REMARK    7  A    between atoms: C_21  and  C_22
REMARK                            x       y       z     vdW  Elec       q    Type
REMARK                         _______ _______ _______ _____ _____    ______ ____
ROOT
ATOM      1  O   UNL     1       6.774  -5.915  22.946  0.00  0.00    -0.489 OA
ENDROOT
BRANCH   1   2
ATOM      2  C   UNL     1       7.781  -5.168  23.502  0.00  0.00    +0.139 A 
ATOM      3  C   UNL     1       7.981  -3.890  22.962  0.00  0.00    +0.058 A 
ATOM      4  C   UNL     1       8.968  -3.051  23.495  0.00  0.00    +0.021 A 
ATOM      5  C   UNL     1       9.728  -3.563  24.550  0.00  0.00    +0.121 A 
ATOM      6  N   UNL     1       9.573  -4.794  25.087  0.00  0.00    -0.259 NA
ATOM      7  C   UNL     1       8.604  -5.563  24.552  0.00  0.00    +0.156 A 
BRANCH   4   8
ATOM      8  C   UNL     1       9.259  -1.642  23.061  0.00  0.00    +0.068 C 
ATOM      9  C   UNL     1       9.840  -0.695  24.055  0.00  0.00    +0.039 C 
ATOM     10  C   UNL     1      10.116   0.519  23.595  0.00  0.00    +0.022 C 
ATOM     11  C   UNL     1       9.863   0.922  22.230  0.00  0.00    +0.093 C 
ATOM     12  N   UNL     1      10.226   2.160  22.022  0.00  0.00    -0.152 NA
ATOM     13  N   UNL     1      10.758   2.674  23.278  0.00  0.00    -0.157 NA
ATOM     14  C   UNL     1       9.261  -0.019  21.253  0.00  0.00    +0.200 C 
ATOM     15  C   UNL     1      10.684   1.723  24.164  0.00  0.00    +0.144 C 
ATOM     16  N   UNL     1       9.001  -1.340  21.835  0.00  0.00    -0.277 NA
ENDBRANCH   4   8
ENDBRANCH   1   2
BRANCH   1  17
ATOM     17  C   UNL     1       5.608  -5.170  22.551  0.00  0.00    +0.247 C 
BRANCH  17  18
ATOM     18  C   UNL     1       4.334  -5.814  23.135  0.00  0.00    +0.093 C 
BRANCH  18  19
ATOM     19  N   UNL     1       4.646  -7.130  23.718  0.00  0.00    -0.324 NA
ATOM     20  H   UNL     1       3.973  -7.821  23.382  0.00  0.00    +0.119 HD
ATOM     21  H   UNL     1       5.552  -7.436  23.353  0.00  0.00    +0.119 HD
ENDBRANCH  18  19
BRANCH  18  22
ATOM     22  C   UNL     1       3.721  -4.865  24.189  0.00  0.00    +0.059 C 
BRANCH  22  23
ATOM     23  C   UNL     1       4.726  -4.364  25.152  0.00  0.00    -0.019 C 
ATOM     24  C   UNL     1       5.260  -5.126  26.291  0.00  0.00    +0.115 C 
ATOM     25  N   UNL     1       6.104  -4.498  27.053  0.00  0.00    -0.255 NA
ATOM     26  C   UNL     1       6.215  -3.270  26.465  0.00  0.00    +0.068 C 
ATOM     27  C   UNL     1       6.936  -2.218  26.855  0.00  0.00    +0.005 C 
ATOM     28  C   UNL     1       6.925  -0.929  26.065  0.00  0.00    +0.056 C 
ATOM     29  C   UNL     1       6.032  -0.954  24.834  0.00  0.00    -0.022 C 
ATOM     30  C   UNL     1       5.302  -2.023  24.466  0.00  0.00    +0.006 C 
ATOM     31  C   UNL     1       5.379  -3.206  25.283  0.00  0.00    +0.004 C 
ENDBRANCH  22  23
ENDBRANCH  18  22
ENDBRANCH  17  18
ENDBRANCH   1  17
TORSDOF 7
ENDMDL
MODEL 4
REMARK VINA RESULT:      -6.8      2.911      7.085
REMARK  Name = 
REMARK  7 active torsions:
REMARK  status: ('A' for Active; 'I' for Inactive)
REMARK    1  A    between atoms: C_2  and  N_3
REMARK    2  A    between atoms: C_2  and  C_4
REMARK    3  A    between atoms: C_2  and  C_21
REMARK    4  A    between atoms: C_4  and  O_5
REMARK    5  A    between atoms: O_5  and  C_6
REMARK    6  A    between atoms: C_10  and  C_12
REMARK    7  A    between atoms: C_21  and  C_22
REMARK                            x       y       z     vdW  Elec       q    Type
REMARK                         _______ _______ _______ _____ _____    ______ ____
ROOT
ATOM      1  O   UNL     1       5.447   2.040  24.677  0.00  0.00    -0.489 OA
ENDROOT
BRANCH   1   2
ATOM      2  C   UNL     1       6.249   1.039  25.163  0.00  0.00    +0.139 A 
ATOM      3  C   UNL     1       6.221  -0.177  24.466  0.00  0.00    +0.058 A 
ATOM      4  C   UNL     1       7.036  -1.239  24.879  0.00  0.00    +0.021 A 
ATOM      5  C   UNL     1       7.833  -1.022  26.005  0.00  0.00    +0.121 A 
ATOM      6  N   UNL     1       7.875   0.131  26.711  0.00  0.00    -0.259 NA
ATOM      7  C   UNL     1       7.085   1.131  26.272  0.00  0.00    +0.156 A 
BRANCH   4   8
ATOM      8  C   UNL     1       7.156  -2.575  24.201  0.00  0.00    +0.068 C 
ATOM      9  C   UNL     1       6.374  -2.816  22.956  0.00  0.00    +0.039 C 
ATOM     10  C   UNL     1       6.561  -3.998  22.382  0.00  0.00    +0.022 C 
ATOM     11  C   UNL     1       7.445  -5.006  22.921  0.00  0.00    +0.093 C 
ATOM     12  N   UNL     1       7.462  -6.077  22.173  0.00  0.00    -0.152 NA
ATOM     13  N   UNL     1       6.558  -5.841  21.055  0.00  0.00    -0.157 NA
ATOM     14  C   UNL     1       8.201  -4.769  24.176  0.00  0.00    +0.200 C 
ATOM     15  C   UNL     1       6.051  -4.650  21.193  0.00  0.00    +0.144 C 
ATOM     16  N   UNL     1       7.952  -3.436  24.737  0.00  0.00    -0.277 NA
ENDBRANCH   4   8
ENDBRANCH   1   2
BRANCH   1  17
ATOM     17  C   UNL     1       6.147   3.189  24.167  0.00  0.00    +0.247 C 
BRANCH  17  18
ATOM     18  C   UNL     1       6.337   3.071  22.641  0.00  0.00    +0.093 C 
BRANCH  18  19
ATOM     19  N   UNL     1       5.440   4.007  21.940  0.00  0.00    -0.324 NA
ATOM     20  H   UNL     1       5.890   4.335  21.084  0.00  0.00    +0.119 HD
ATOM     21  H   UNL     1       4.615   3.487  21.630  0.00  0.00    +0.119 HD
ENDBRANCH  18  19
BRANCH  18  22
ATOM     22  C   UNL     1       7.816   3.343  22.290  0.00  0.00    +0.059 C 
BRANCH  22  23
ATOM     23  C   UNL     1       8.738   2.384  22.938  0.00  0.00    -0.019 C 
ATOM     24  C   UNL     1       9.534   2.659  24.144  0.00  0.00    +0.115 C 
ATOM     25  N   UNL     1      10.322   1.704  24.538  0.00  0.00    -0.255 NA
ATOM     26  C   UNL     1      10.095   0.707  23.633  0.00  0.00    +0.068 C 
ATOM     27  C   UNL     1      10.665  -0.496  23.552  0.00  0.00    +0.005 C 
ATOM     28  C   UNL     1      10.280  -1.472  22.463  0.00  0.00    +0.056 C 
ATOM     29  C   UNL     1       9.223  -0.952  21.500  0.00  0.00    -0.022 C 
ATOM     30  C   UNL     1       8.669   0.271  21.592  0.00  0.00    +0.006 C 
ATOM     31  C   UNL     1       9.102   1.128  22.665  0.00  0.00    +0.004 C 
ENDBRANCH  22  23
ENDBRANCH  18  22
ENDBRANCH  17  18
ENDBRANCH   1  17
TORSDOF 7
ENDMDL
MODEL 5
REMARK VINA RESULT:      -6.8      1.799      2.525
REMARK  Name = 
REMARK  7 active torsions:
REMARK  status: ('A' for Active; 'I' for Inactive)
REMARK    1  A    between atoms: C_2  and  N_3
REMARK    2  A    between atoms: C_2  and  C_4
REMARK    3  A    between atoms: C_2  and  C_21
REMARK    4  A    between atoms: C_4  and  O_5
REMARK    5  A    between atoms: O_5  and  C_6
REMARK    6  A    between atoms: C_10  and  C_12
REMARK    7  A    between atoms: C_21  and  C_22
REMARK                            x       y       z     vdW  Elec       q    Type
REMARK                         _______ _______ _______ _____ _____    ______ ____
ROOT
ATOM      1  O   UNL     1       6.189  -4.016  27.467  0.00  0.00    -0.489 OA
ENDROOT
BRANCH   1   2
ATOM      2  C   UNL     1       7.099  -4.115  26.445  0.00  0.00    +0.139 A 
ATOM      3  C   UNL     1       7.395  -2.931  25.756  0.00  0.00    +0.058 A 
ATOM      4  C   UNL     1       8.338  -2.941  24.720  0.00  0.00    +0.021 A 
ATOM      5  C   UNL     1       8.928  -4.170  24.416  0.00  0.00    +0.121 A 
ATOM      6  N   UNL     1       8.657  -5.334  25.049  0.00  0.00    -0.259 NA
ATOM      7  C   UNL     1       7.753  -5.277  26.048  0.00  0.00    +0.156 A 
BRANCH   4   8
ATOM      8  C   UNL     1       8.798  -1.746  23.933  0.00  0.00    +0.068 C 
ATOM      9  C   UNL     1       9.125  -0.491  24.667  0.00  0.00    +0.039 C 
ATOM     10  C   UNL     1       9.570   0.511  23.918  0.00  0.00    +0.022 C 
ATOM     11  C   UNL     1       9.717   0.418  22.484  0.00  0.00    +0.093 C 
ATOM     12  N   UNL     1      10.176   1.532  21.978  0.00  0.00    -0.152 NA
ATOM     13  N   UNL     1      10.367   2.466  23.081  0.00  0.00    -0.157 NA
ATOM     14  C   UNL     1       9.365  -0.826  21.756  0.00  0.00    +0.200 C 
ATOM     15  C   UNL     1      10.012   1.864  24.180  0.00  0.00    +0.144 C 
ATOM     16  N   UNL     1       8.898  -1.888  22.656  0.00  0.00    -0.277 NA
ENDBRANCH   4   8
ENDBRANCH   1   2
BRANCH   1  17
ATOM     17  C   UNL     1       5.094  -3.116  27.224  0.00  0.00    +0.247 C 
BRANCH  17  18
ATOM     18  C   UNL     1       3.778  -3.901  27.052  0.00  0.00    +0.093 C 
BRANCH  18  19
ATOM     19  N   UNL     1       2.730  -3.340  27.923  0.00  0.00    -0.324 NA
ATOM     20  H   UNL     1       2.382  -4.067  28.550  0.00  0.00    +0.119 HD
ATOM     21  H   UNL     1       3.161  -2.641  28.533  0.00  0.00    +0.119 HD
ENDBRANCH  18  19
BRANCH  18  22
ATOM     22  C   UNL     1       3.352  -3.864  25.568  0.00  0.00    +0.059 C 
BRANCH  22  23
ATOM     23  C   UNL     1       4.077  -4.859  24.746  0.00  0.00    -0.019 C 
ATOM     24  C   UNL     1       4.120  -6.305  25.012  0.00  0.00    +0.115 C 
ATOM     25  N   UNL     1       4.848  -7.013  24.201  0.00  0.00    -0.255 NA
ATOM     26  C   UNL     1       5.332  -6.091  23.317  0.00  0.00    +0.068 C 
ATOM     27  C   UNL     1       6.160  -6.274  22.288  0.00  0.00    +0.005 C 
ATOM     28  C   UNL     1       6.590  -5.116  21.416  0.00  0.00    +0.056 C 
ATOM     29  C   UNL     1       6.009  -3.771  21.828  0.00  0.00    -0.022 C 
ATOM     30  C   UNL     1       5.185  -3.607  22.879  0.00  0.00    +0.006 C 
ATOM     31  C   UNL     1       4.833  -4.772  23.649  0.00  0.00    +0.004 C 
ENDBRANCH  22  23
ENDBRANCH  18  22
ENDBRANCH  17  18
ENDBRANCH   1  17
TORSDOF 7
ENDMDL
MODEL 6
REMARK VINA RESULT:      -6.8      2.228      3.895
REMARK  Name = 
REMARK  7 active torsions:
REMARK  status: ('A' for Active; 'I' for Inactive)
REMARK    1  A    between atoms: C_2  and  N_3
REMARK    2  A    between atoms: C_2  and  C_4
REMARK    3  A    between atoms: C_2  and  C_21
REMARK    4  A    between atoms: C_4  and  O_5
REMARK    5  A    between atoms: O_5  and  C_6
REMARK    6  A    between atoms: C_10  and  C_12
REMARK    7  A    between atoms: C_21  and  C_22
REMARK                            x       y       z     vdW  Elec       q    Type
REMARK                         _______ _______ _______ _____ _____    ______ ____
ROOT
ATOM      1  O   UNL     1       3.488  -4.517  22.985  0.00  0.00    -0.489 OA
ENDROOT
BRANCH   1   2
ATOM      2  C   UNL     1       4.850  -4.629  22.862  0.00  0.00    +0.139 A 
ATOM      3  C   UNL     1       5.574  -3.429  22.825  0.00  0.00    +0.058 A 
ATOM      4  C   UNL     1       6.972  -3.457  22.734  0.00  0.00    +0.021 A 
ATOM      5  C   UNL     1       7.573  -4.716  22.663  0.00  0.00    +0.121 A 
ATOM      6  N   UNL     1       6.908  -5.893  22.682  0.00  0.00    -0.259 NA
ATOM      7  C   UNL     1       5.566  -5.820  22.783  0.00  0.00    +0.156 A 
BRANCH   4   8
ATOM      8  C   UNL     1       7.882  -2.261  22.742  0.00  0.00    +0.068 C 
ATOM      9  C   UNL     1       7.273  -0.903  22.813  0.00  0.00    +0.039 C 
ATOM     10  C   UNL     1       8.132   0.108  22.864  0.00  0.00    +0.022 C 
ATOM     11  C   UNL     1       9.566  -0.074  22.834  0.00  0.00    +0.093 C 
ATOM     12  N   UNL     1      10.193   1.070  22.902  0.00  0.00    -0.152 NA
ATOM     13  N   UNL     1       9.183   2.118  22.980  0.00  0.00    -0.157 NA
ATOM     14  C   UNL     1      10.165  -1.428  22.738  0.00  0.00    +0.200 C 
ATOM     15  C   UNL     1       8.013   1.548  22.954  0.00  0.00    +0.144 C 
ATOM     16  N   UNL     1       9.150  -2.488  22.702  0.00  0.00    -0.277 NA
ENDBRANCH   4   8
ENDBRANCH   1   2
BRANCH   1  17
ATOM     17  C   UNL     1       2.957  -4.910  24.262  0.00  0.00    +0.247 C 
BRANCH  17  18
ATOM     18  C   UNL     1       3.097  -3.761  25.282  0.00  0.00    +0.093 C 
BRANCH  18  19
ATOM     19  N   UNL     1       1.783  -3.151  25.549  0.00  0.00    -0.324 NA
ATOM     20  H   UNL     1       1.344  -2.885  24.666  0.00  0.00    +0.119 HD
ATOM     21  H   UNL     1       1.173  -3.867  25.951  0.00  0.00    +0.119 HD
ENDBRANCH  18  19
BRANCH  18  22
ATOM     22  C   UNL     1       3.737  -4.305  26.578  0.00  0.00    +0.059 C 
BRANCH  22  23
ATOM     23  C   UNL     1       5.206  -4.445  26.469  0.00  0.00    -0.019 C 
ATOM     24  C   UNL     1       5.932  -5.723  26.410  0.00  0.00    +0.115 C 
ATOM     25  N   UNL     1       7.228  -5.642  26.360  0.00  0.00    -0.255 NA
ATOM     26  C   UNL     1       7.465  -4.297  26.362  0.00  0.00    +0.068 C 
ATOM     27  C   UNL     1       8.634  -3.653  26.351  0.00  0.00    +0.005 C 
ATOM     28  C   UNL     1       8.693  -2.143  26.359  0.00  0.00    +0.056 C 
ATOM     29  C   UNL     1       7.333  -1.462  26.394  0.00  0.00    -0.022 C 
ATOM     30  C   UNL     1       6.166  -2.130  26.419  0.00  0.00    +0.006 C 
ATOM     31  C   UNL     1       6.213  -3.569  26.407  0.00  0.00    +0.004 C 
ENDBRANCH  22  23
ENDBRANCH  18  22
ENDBRANCH  17  18
ENDBRANCH   1  17
TORSDOF 7
ENDMDL
MODEL 7
REMARK VINA RESULT:      -6.7      1.635      2.811
REMARK  Name = 
REMARK  7 active torsions:
REMARK  status: ('A' for Active; 'I' for Inactive)
REMARK    1  A    between atoms: C_2  and  N_3
REMARK    2  A    between atoms: C_2  and  C_4
REMARK    3  A    between atoms: C_2  and  C_21
REMARK    4  A    between atoms: C_4  and  O_5
REMARK    5  A    between atoms: O_5  and  C_6
REMARK    6  A    between atoms: C_10  and  C_12
REMARK    7  A    between atoms: C_21  and  C_22
REMARK                            x       y       z     vdW  Elec       q    Type
REMARK                         _______ _______ _______ _____ _____    ______ ____
ROOT
ATOM      1  O   UNL     1       8.459  -5.877  25.662  0.00  0.00    -0.489 OA
ENDROOT
BRANCH   1   2
ATOM      2  C   UNL     1       8.274  -4.987  24.634  0.00  0.00    +0.139 A 
ATOM      3  C   UNL     1       8.844  -3.717  24.798  0.00  0.00    +0.058 A 
ATOM      4  C   UNL     1       8.729  -2.762  23.780  0.00  0.00    +0.021 A 
ATOM      5  C   UNL     1       8.015  -3.138  22.640  0.00  0.00    +0.121 A 
ATOM      6  N   UNL     1       7.439  -4.348  22.453  0.00  0.00    -0.259 NA
ATOM      7  C   UNL     1       7.586  -5.241  23.452  0.00  0.00    +0.156 A 
BRANCH   4   8
ATOM      8  C   UNL     1       9.332  -1.385  23.789  0.00  0.00    +0.068 C 
ATOM      9  C   UNL     1       9.200  -0.542  22.567  0.00  0.00    +0.039 C 
ATOM     10  C   UNL     1       9.714   0.679  22.656  0.00  0.00    +0.022 C 
ATOM     11  C   UNL     1      10.377   1.171  23.843  0.00  0.00    +0.093 C 
ATOM     12  N   UNL     1      10.789   2.401  23.684  0.00  0.00    -0.152 NA
ATOM     13  N   UNL     1      10.416   2.815  22.338  0.00  0.00    -0.157 NA
ATOM     14  C   UNL     1      10.527   0.316  25.046  0.00  0.00    +0.200 C 
ATOM     15  C   UNL     1       9.806   1.817  21.766  0.00  0.00    +0.144 C 
ATOM     16  N   UNL     1       9.920  -1.009  24.872  0.00  0.00    -0.277 NA
ENDBRANCH   4   8
ENDBRANCH   1   2
BRANCH   1  17
ATOM     17  C   UNL     1       7.939  -5.455  26.935  0.00  0.00    +0.247 C 
BRANCH  17  18
ATOM     18  C   UNL     1       6.397  -5.443  26.912  0.00  0.00    +0.093 C 
BRANCH  18  19
ATOM     19  N   UNL     1       5.865  -6.578  27.687  0.00  0.00    -0.324 NA
ATOM     20  H   UNL     1       6.492  -7.379  27.594  0.00  0.00    +0.119 HD
ATOM     21  H   UNL     1       5.891  -6.328  28.679  0.00  0.00    +0.119 HD
ENDBRANCH  18  19
BRANCH  18  22
ATOM     22  C   UNL     1       5.889  -4.095  27.470  0.00  0.00    +0.059 C 
BRANCH  22  23
ATOM     23  C   UNL     1       5.688  -3.083  26.410  0.00  0.00    -0.019 C 
ATOM     24  C   UNL     1       4.929  -3.300  25.168  0.00  0.00    +0.115 C 
ATOM     25  N   UNL     1       4.901  -2.303  24.335  0.00  0.00    -0.255 NA
ATOM     26  C   UNL     1       5.625  -1.334  24.970  0.00  0.00    +0.068 C 
ATOM     27  C   UNL     1       5.936  -0.108  24.546  0.00  0.00    +0.005 C 
ATOM     28  C   UNL     1       6.759   0.828  25.400  0.00  0.00    +0.056 C 
ATOM     29  C   UNL     1       7.189   0.244  26.737  0.00  0.00    -0.022 C 
ATOM     30  C   UNL     1       6.875  -1.001  27.141  0.00  0.00    +0.006 C 
ATOM     31  C   UNL     1       6.086  -1.818  26.256  0.00  0.00    +0.004 C 
ENDBRANCH  22  23
ENDBRANCH  18  22
ENDBRANCH  17  18
ENDBRANCH   1  17
TORSDOF 7
ENDMDL
MODEL 8
REMARK VINA RESULT:      -6.7      3.068      5.419
REMARK  Name = 
REMARK  7 active torsions:
REMARK  status: ('A' for Active; 'I' for Inactive)
REMARK    1  A    between atoms: C_2  and  N_3
REMARK    2  A    between atoms: C_2  and  C_4
REMARK    3  A    between atoms: C_2  and  C_21
REMARK    4  A    between atoms: C_4  and  O_5
REMARK    5  A    between atoms: O_5  and  C_6
REMARK    6  A    between atoms: C_10  and  C_12
REMARK    7  A    between atoms: C_21  and  C_22
REMARK                            x       y       z     vdW  Elec       q    Type
REMARK                         _______ _______ _______ _____ _____    ______ ____
ROOT
ATOM      1  O   UNL     1       5.450  -2.162  24.132  0.00  0.00    -0.489 OA
ENDROOT
BRANCH   1   2
ATOM      2  C   UNL     1       6.011  -1.133  24.844  0.00  0.00    +0.139 A 
ATOM      3  C   UNL     1       6.256   0.054  24.139  0.00  0.00    +0.058 A 
ATOM      4  C   UNL     1       6.797   1.163  24.803  0.00  0.00    +0.021 A 
ATOM      5  C   UNL     1       7.087   1.006  26.160  0.00  0.00    +0.121 A 
ATOM      6  N   UNL     1       6.877  -0.126  26.869  0.00  0.00    -0.259 NA
ATOM      7  C   UNL     1       6.343  -1.164  26.195  0.00  0.00    +0.156 A 
BRANCH   4   8
ATOM      8  C   UNL     1       7.061   2.513  24.196  0.00  0.00    +0.068 C 
ATOM      9  C   UNL     1       7.749   3.543  25.024  0.00  0.00    +0.039 C 
ATOM     10  C   UNL     1       7.993   4.697  24.414  0.00  0.00    +0.022 C 
ATOM     11  C   UNL     1       7.610   4.963  23.046  0.00  0.00    +0.093 C 
ATOM     12  N   UNL     1       7.966   6.164  22.675  0.00  0.00    -0.152 NA
ATOM     13  N   UNL     1       8.626   6.793  23.811  0.00  0.00    -0.157 NA
ATOM     14  C   UNL     1       6.903   3.940  22.236  0.00  0.00    +0.200 C 
ATOM     15  C   UNL     1       8.629   5.941  24.795  0.00  0.00    +0.144 C 
ATOM     16  N   UNL     1       6.685   2.692  22.976  0.00  0.00    -0.277 NA
ENDBRANCH   4   8
ENDBRANCH   1   2
BRANCH   1  17
ATOM     17  C   UNL     1       6.033  -2.397  22.838  0.00  0.00    +0.247 C 
BRANCH  17  18
ATOM     18  C   UNL     1       7.344  -3.199  22.975  0.00  0.00    +0.093 C 
BRANCH  18  19
ATOM     19  N   UNL     1       7.159  -4.570  22.468  0.00  0.00    -0.324 NA
ATOM     20  H   UNL     1       7.154  -5.226  23.251  0.00  0.00    +0.119 HD
ATOM     21  H   UNL     1       6.227  -4.636  22.054  0.00  0.00    +0.119 HD
ENDBRANCH  18  19
BRANCH  18  22
ATOM     22  C   UNL     1       8.471  -2.467  22.214  0.00  0.00    +0.059 C 
BRANCH  22  23
ATOM     23  C   UNL     1       9.180  -1.483  23.062  0.00  0.00    -0.019 C 
ATOM     24  C   UNL     1       9.595  -1.712  24.455  0.00  0.00    +0.115 C 
ATOM     25  N   UNL     1      10.168  -0.710  25.051  0.00  0.00    -0.255 NA
ATOM     26  C   UNL     1      10.197   0.261  24.091  0.00  0.00    +0.068 C 
ATOM     27  C   UNL     1      10.655   1.511  24.178  0.00  0.00    +0.005 C 
ATOM     28  C   UNL     1      10.597   2.448  22.993  0.00  0.00    +0.056 C 
ATOM     29  C   UNL     1       9.975   1.843  21.744  0.00  0.00    -0.022 C 
ATOM     30  C   UNL     1       9.506   0.583  21.682  0.00  0.00    +0.006 C 
ATOM     31  C   UNL     1       9.606  -0.233  22.864  0.00  0.00    +0.004 C 
ENDBRANCH  22  23
ENDBRANCH  18  22
ENDBRANCH  17  18
ENDBRANCH   1  17
TORSDOF 7
ENDMDL
MODEL 9
REMARK VINA RESULT:      -6.6      2.789      6.985
REMARK  Name = 
REMARK  7 active torsions:
REMARK  status: ('A' for Active; 'I' for Inactive)
REMARK    1  A    between atoms: C_2  and  N_3
REMARK    2  A    between atoms: C_2  and  C_4
REMARK    3  A    between atoms: C_2  and  C_21
REMARK    4  A    between atoms: C_4  and  O_5
REMARK    5  A    between atoms: O_5  and  C_6
REMARK    6  A    between atoms: C_10  and  C_12
REMARK    7  A    between atoms: C_21  and  C_22
REMARK                            x       y       z     vdW  Elec       q    Type
REMARK                         _______ _______ _______ _____ _____    ______ ____
ROOT
ATOM      1  O   UNL     1       9.416  -0.318  21.208  0.00  0.00    -0.489 OA
ENDROOT
BRANCH   1   2
ATOM      2  C   UNL     1       9.257  -1.338  22.112  0.00  0.00    +0.139 A 
ATOM      3  C   UNL     1       7.990  -1.935  22.162  0.00  0.00    +0.058 A 
ATOM      4  C   UNL     1       7.754  -3.005  23.035  0.00  0.00    +0.021 A 
ATOM      5  C   UNL     1       8.822  -3.409  23.839  0.00  0.00    +0.121 A 
ATOM      6  N   UNL     1      10.053  -2.848  23.829  0.00  0.00    -0.259 NA
ATOM      7  C   UNL     1      10.239  -1.831  22.965  0.00  0.00    +0.156 A 
BRANCH   4   8
ATOM      8  C   UNL     1       6.471  -3.779  23.158  0.00  0.00    +0.068 C 
ATOM      9  C   UNL     1       5.411  -3.259  24.067  0.00  0.00    +0.039 C 
ATOM     10  C   UNL     1       4.286  -3.964  24.095  0.00  0.00    +0.022 C 
ATOM     11  C   UNL     1       4.089  -5.166  23.318  0.00  0.00    +0.093 C 
ATOM     12  N   UNL     1       2.899  -5.671  23.513  0.00  0.00    -0.152 NA
ATOM     13  N   UNL     1       2.210  -4.809  24.465  0.00  0.00    -0.157 NA
ATOM     14  C   UNL     1       5.159  -5.691  22.434  0.00  0.00    +0.200 C 
ATOM     15  C   UNL     1       3.020  -3.842  24.787  0.00  0.00    +0.144 C 
ATOM     16  N   UNL     1       6.360  -4.849  22.449  0.00  0.00    -0.277 NA
ENDBRANCH   4   8
ENDBRANCH   1   2
BRANCH   1  17
ATOM     17  C   UNL     1       8.729   0.902  21.537  0.00  0.00    +0.247 C 
BRANCH  17  18
ATOM     18  C   UNL     1       9.520   1.697  22.596  0.00  0.00    +0.093 C 
BRANCH  18  19
ATOM     19  N   UNL     1      10.526   2.555  21.945  0.00  0.00    -0.324 NA
ATOM     20  H   UNL     1      11.063   3.053  22.657  0.00  0.00    +0.119 HD
ATOM     21  H   UNL     1      11.201   1.953  21.469  0.00  0.00    +0.119 HD
ENDBRANCH  18  19
BRANCH  18  22
ATOM     22  C   UNL     1       8.537   2.532  23.446  0.00  0.00    +0.059 C 
BRANCH  22  23
ATOM     23  C   UNL     1       7.506   1.697  24.101  0.00  0.00    -0.019 C 
ATOM     24  C   UNL     1       6.055   1.824  23.890  0.00  0.00    +0.115 C 
ATOM     25  N   UNL     1       5.305   1.028  24.591  0.00  0.00    -0.255 NA
ATOM     26  C   UNL     1       6.202   0.293  25.312  0.00  0.00    +0.068 C 
ATOM     27  C   UNL     1       5.969  -0.657  26.219  0.00  0.00    +0.005 C 
ATOM     28  C   UNL     1       7.106  -1.362  26.921  0.00  0.00    +0.056 C 
ATOM     29  C   UNL     1       8.490  -0.884  26.510  0.00  0.00    -0.022 C 
ATOM     30  C   UNL     1       8.704   0.086  25.602  0.00  0.00    +0.006 C 
ATOM     31  C   UNL     1       7.554   0.698  24.987  0.00  0.00    +0.004 C 
ENDBRANCH  22  23
ENDBRANCH  18  22
ENDBRANCH  17  18
ENDBRANCH   1  17
TORSDOF 7
ENDMDL
