MODEL 1
REMARK VINA RESULT:      -7.9      0.000      0.000
REMARK  Name = 
REMARK  8 active torsions:
REMARK  status: ('A' for Active; 'I' for Inactive)
REMARK    1  A    between atoms: C_1  and  C_2
REMARK    2  A    between atoms: C_7  and  C_8
REMARK    3  A    between atoms: C_8  and  N_9
REMARK    4  A    between atoms: C_10  and  C_12
REMARK    5  A    between atoms: C_14  and  C_18
REMARK    6  A    between atoms: N_20  and  C_21
REMARK    7  A    between atoms: C_21  and  C_22
REMARK    8  A    between atoms: C_24  and  C_25
REMARK                            x       y       z     vdW  Elec       q    Type
REMARK                         _______ _______ _______ _____ _____    ______ ____
ROOT
ATOM      1  C   UNL     1       8.301  -3.808  23.977  0.00  0.00    +0.129 A 
ATOM      2  N   UNL     1       9.477  -4.204  24.521  0.00  0.00    -0.231 NA
ATOM      3  C   UNL     1       9.377  -5.090  25.522  0.00  0.00    +0.222 A 
ATOM      4  N   UNL     1       8.240  -5.578  26.037  0.00  0.00    -0.231 NA
ATOM      5  C   UNL     1       7.101  -5.158  25.433  0.00  0.00    +0.129 A 
ATOM      6  C   UNL     1       7.070  -4.273  24.381  0.00  0.00    +0.066 A 
ENDROOT
BRANCH   1   9
ATOM      7  N   UNL     1       9.580  -2.130  22.748  0.00  0.00    -0.306 N 
ATOM      8  H   UNL     1      10.337  -2.398  23.370  0.00  0.00    +0.149 HD
ATOM      9  C   UNL     1       8.366  -2.765  22.902  0.00  0.00    +0.263 C 
ATOM     10  O   UNL     1       7.373  -2.502  22.233  0.00  0.00    -0.269 OA
BRANCH   7  11
ATOM     11  C   UNL     1       9.760  -1.019  21.837  0.00  0.00    +0.140 C 
BRANCH  11  15
ATOM     12  C   UNL     1       7.437   3.453  22.104  0.00  0.00    +0.047 C 
ATOM     13  C   UNL     1       8.484   2.507  22.608  0.00  0.00    -0.015 A 
ATOM     14  C   UNL     1       8.585   1.211  22.073  0.00  0.00    +0.011 A 
ATOM     15  C   UNL     1       9.588   0.325  22.504  0.00  0.00    -0.030 A 
ATOM     16  C   UNL     1      10.488   0.752  23.490  0.00  0.00    +0.008 A 
ATOM     17  C   UNL     1      10.385   2.030  24.042  0.00  0.00    +0.039 A 
ATOM     18  C   UNL     1       9.389   2.893  23.598  0.00  0.00    +0.126 A 
ATOM     19  F   UNL     1       9.318   4.123  24.130  0.00  0.00    -0.205 F 
ENDBRANCH  11  15
ENDBRANCH   7  11
ENDBRANCH   1   9
BRANCH   5  20
ATOM     20  C   UNL     1       5.811  -5.685  25.984  0.00  0.00    +0.263 C 
ATOM     21  N   UNL     1       4.675  -5.035  25.548  0.00  0.00    -0.306 N 
ATOM     22  H   UNL     1       4.796  -4.251  24.916  0.00  0.00    +0.149 HD
ATOM     23  O   UNL     1       5.805  -6.641  26.750  0.00  0.00    -0.269 OA
BRANCH  21  24
ATOM     24  C   UNL     1       3.346  -5.382  26.002  0.00  0.00    +0.140 C 
BRANCH  24  25
ATOM     25  C   UNL     1       2.642  -6.342  25.072  0.00  0.00    -0.030 A 
ATOM     26  C   UNL     1       2.468  -6.018  23.717  0.00  0.00    +0.008 A 
ATOM     27  C   UNL     1       1.885  -6.932  22.837  0.00  0.00    +0.039 A 
ATOM     28  C   UNL     1       1.481  -8.177  23.304  0.00  0.00    +0.126 A 
ATOM     29  F   UNL     1       0.941  -9.051  22.441  0.00  0.00    -0.205 F 
ATOM     30  C   UNL     1       1.641  -8.535  24.644  0.00  0.00    -0.015 A 
ATOM     31  C   UNL     1       1.237  -9.905  25.099  0.00  0.00    +0.047 C 
ATOM     32  C   UNL     1       2.222  -7.608  25.525  0.00  0.00    +0.011 A 
ENDBRANCH  24  25
ENDBRANCH  21  24
ENDBRANCH   5  20
TORSDOF 6
ENDMDL
MODEL 2
REMARK VINA RESULT:      -7.9      0.151     10.063
REMARK  Name = 
REMARK  8 active torsions:
REMARK  status: ('A' for Active; 'I' for Inactive)
REMARK    1  A    between atoms: C_1  and  C_2
REMARK    2  A    between atoms: C_7  and  C_8
REMARK    3  A    between atoms: C_8  and  N_9
REMARK    4  A    between atoms: C_10  and  C_12
REMARK    5  A    between atoms: C_14  and  C_18
REMARK    6  A    between atoms: N_20  and  C_21
REMARK    7  A    between atoms: C_21  and  C_22
REMARK    8  A    between atoms: C_24  and  C_25
REMARK                            x       y       z     vdW  Elec       q    Type
REMARK                         _______ _______ _______ _____ _____    ______ ____
ROOT
ATOM      1  C   UNL     1       7.161  -5.097  25.485  0.00  0.00    +0.129 A 
ATOM      2  N   UNL     1       8.297  -5.629  26.000  0.00  0.00    -0.231 NA
ATOM      3  C   UNL     1       9.439  -5.142  25.495  0.00  0.00    +0.222 A 
ATOM      4  N   UNL     1       9.548  -4.222  24.526  0.00  0.00    -0.231 NA
ATOM      5  C   UNL     1       8.375  -3.717  24.070  0.00  0.00    +0.129 A 
ATOM      6  C   UNL     1       7.139  -4.112  24.525  0.00  0.00    +0.066 A 
ENDROOT
BRANCH   1   9
ATOM      7  N   UNL     1       4.720  -5.045  25.514  0.00  0.00    -0.306 N 
ATOM      8  H   UNL     1       4.830  -4.250  24.894  0.00  0.00    +0.149 HD
ATOM      9  C   UNL     1       5.863  -5.666  25.973  0.00  0.00    +0.263 C 
ATOM     10  O   UNL     1       5.854  -6.613  26.752  0.00  0.00    -0.269 OA
BRANCH   7  11
ATOM     11  C   UNL     1       3.401  -5.404  25.994  0.00  0.00    +0.140 C 
BRANCH  11  15
ATOM     12  C   UNL     1       1.284  -9.902  25.132  0.00  0.00    +0.047 C 
ATOM     13  C   UNL     1       1.678  -8.543  24.640  0.00  0.00    -0.015 A 
ATOM     14  C   UNL     1       2.257  -7.613  25.520  0.00  0.00    +0.011 A 
ATOM     15  C   UNL     1       2.672  -6.348  25.067  0.00  0.00    -0.030 A 
ATOM     16  C   UNL     1       2.491  -6.021  23.715  0.00  0.00    +0.008 A 
ATOM     17  C   UNL     1       1.899  -6.931  22.838  0.00  0.00    +0.039 A 
ATOM     18  C   UNL     1       1.500  -8.179  23.305  0.00  0.00    +0.126 A 
ATOM     19  F   UNL     1       0.949  -9.044  22.439  0.00  0.00    -0.205 F 
ENDBRANCH  11  15
ENDBRANCH   7  11
ENDBRANCH   1   9
BRANCH   5  20
ATOM     20  C   UNL     1       8.460  -2.686  22.987  0.00  0.00    +0.263 C 
ATOM     21  N   UNL     1       9.675  -2.040  22.883  0.00  0.00    -0.306 N 
ATOM     22  H   UNL     1      10.398  -2.289  23.548  0.00  0.00    +0.149 HD
ATOM     23  O   UNL     1       7.504  -2.474  22.251  0.00  0.00    -0.269 OA
BRANCH  21  24
ATOM     24  C   UNL     1       9.928  -0.990  21.920  0.00  0.00    +0.140 C 
BRANCH  24  25
ATOM     25  C   UNL     1       9.668   0.390  22.477  0.00  0.00    -0.030 A 
ATOM     26  C   UNL     1      10.550   0.956  23.412  0.00  0.00    +0.008 A 
ATOM     27  C   UNL     1      10.356   2.259  23.874  0.00  0.00    +0.039 A 
ATOM     28  C   UNL     1       9.285   3.007  23.399  0.00  0.00    +0.126 A 
ATOM     29  F   UNL     1       9.124   4.264  23.839  0.00  0.00    -0.205 F 
ATOM     30  C   UNL     1       8.390   2.478  22.468  0.00  0.00    -0.015 A 
ATOM     31  C   UNL     1       7.274   3.333  21.943  0.00  0.00    +0.047 C 
ATOM     32  C   UNL     1       8.586   1.164  22.013  0.00  0.00    +0.011 A 
ENDBRANCH  24  25
ENDBRANCH  21  24
ENDBRANCH   5  20
TORSDOF 6
ENDMDL
MODEL 3
REMARK VINA RESULT:      -7.8      3.022      5.266
REMARK  Name = 
REMARK  8 active torsions:
REMARK  status: ('A' for Active; 'I' for Inactive)
REMARK    1  A    between atoms: C_1  and  C_2
REMARK    2  A    between atoms: C_7  and  C_8
REMARK    3  A    between atoms: C_8  and  N_9
REMARK    4  A    between atoms: C_10  and  C_12
REMARK    5  A    between atoms: C_14  and  C_18
REMARK    6  A    between atoms: N_20  and  C_21
REMARK    7  A    between atoms: C_21  and  C_22
REMARK    8  A    between atoms: C_24  and  C_25
REMARK                            x       y       z     vdW  Elec       q    Type
REMARK                         _______ _______ _______ _____ _____    ______ ____
ROOT
ATOM      1  C   UNL     1       8.923   1.035  23.274  0.00  0.00    +0.129 A 
ATOM      2  N   UNL     1       9.368   1.027  21.993  0.00  0.00    -0.231 NA
ATOM      3  C   UNL     1       9.756  -0.169  21.528  0.00  0.00    +0.222 A 
ATOM      4  N   UNL     1       9.771  -1.319  22.216  0.00  0.00    -0.231 NA
ATOM      5  C   UNL     1       9.293  -1.245  23.483  0.00  0.00    +0.129 A 
ATOM      6  C   UNL     1       8.841  -0.086  24.067  0.00  0.00    +0.066 A 
ENDROOT
BRANCH   1   9
ATOM      7  N   UNL     1       8.399   3.399  22.952  0.00  0.00    -0.306 N 
ATOM      8  H   UNL     1       8.563   3.198  21.971  0.00  0.00    +0.149 HD
ATOM      9  C   UNL     1       8.546   2.365  23.854  0.00  0.00    +0.263 C 
ATOM     10  O   UNL     1       8.407   2.496  25.065  0.00  0.00    -0.269 OA
BRANCH   7  11
ATOM     11  C   UNL     1       8.158   4.762  23.375  0.00  0.00    +0.140 C 
BRANCH  11  15
ATOM     12  C   UNL     1      13.156   5.437  23.191  0.00  0.00    +0.047 C 
ATOM     13  C   UNL     1      11.830   5.750  23.817  0.00  0.00    -0.015 A 
ATOM     14  C   UNL     1      10.650   5.203  23.285  0.00  0.00    +0.011 A 
ATOM     15  C   UNL     1       9.402   5.451  23.883  0.00  0.00    -0.030 A 
ATOM     16  C   UNL     1       9.350   6.267  25.024  0.00  0.00    +0.008 A 
ATOM     17  C   UNL     1      10.515   6.830  25.548  0.00  0.00    +0.039 A 
ATOM     18  C   UNL     1      11.739   6.567  24.944  0.00  0.00    +0.126 A 
ATOM     19  F   UNL     1      12.848   7.106  25.475  0.00  0.00    -0.205 F 
ENDBRANCH  11  15
ENDBRANCH   7  11
ENDBRANCH   1   9
BRANCH   5  20
ATOM     20  C   UNL     1       9.295  -2.514  24.280  0.00  0.00    +0.263 C 
ATOM     21  N   UNL     1       8.302  -2.612  25.232  0.00  0.00    -0.306 N 
ATOM     22  H   UNL     1       7.670  -1.826  25.336  0.00  0.00    +0.149 HD
ATOM     23  O   UNL     1      10.123  -3.388  24.057  0.00  0.00    -0.269 OA
BRANCH  21  24
ATOM     24  C   UNL     1       8.173  -3.748  26.119  0.00  0.00    +0.140 C 
BRANCH  24  25
ATOM     25  C   UNL     1       7.100  -4.716  25.678  0.00  0.00    -0.030 A 
ATOM     26  C   UNL     1       6.424  -5.506  26.622  0.00  0.00    +0.008 A 
ATOM     27  C   UNL     1       5.382  -6.347  26.230  0.00  0.00    +0.039 A 
ATOM     28  C   UNL     1       5.002  -6.398  24.893  0.00  0.00    +0.126 A 
ATOM     29  F   UNL     1       3.985  -7.196  24.537  0.00  0.00    -0.205 F 
ATOM     30  C   UNL     1       5.648  -5.624  23.928  0.00  0.00    -0.015 A 
ATOM     31  C   UNL     1       5.178  -5.670  22.504  0.00  0.00    +0.047 C 
ATOM     32  C   UNL     1       6.701  -4.786  24.328  0.00  0.00    +0.011 A 
ENDBRANCH  24  25
ENDBRANCH  21  24
ENDBRANCH   5  20
TORSDOF 6
ENDMDL
MODEL 4
REMARK VINA RESULT:      -7.8      2.840     10.925
REMARK  Name = 
REMARK  8 active torsions:
REMARK  status: ('A' for Active; 'I' for Inactive)
REMARK    1  A    between atoms: C_1  and  C_2
REMARK    2  A    between atoms: C_7  and  C_8
REMARK    3  A    between atoms: C_8  and  N_9
REMARK    4  A    between atoms: C_10  and  C_12
REMARK    5  A    between atoms: C_14  and  C_18
REMARK    6  A    between atoms: N_20  and  C_21
REMARK    7  A    between atoms: C_21  and  C_22
REMARK    8  A    between atoms: C_24  and  C_25
REMARK                            x       y       z     vdW  Elec       q    Type
REMARK                         _______ _______ _______ _____ _____    ______ ____
ROOT
ATOM      1  C   UNL     1       9.450  -1.848  23.800  0.00  0.00    +0.129 A 
ATOM      2  N   UNL     1       9.929  -1.956  22.537  0.00  0.00    -0.231 NA
ATOM      3  C   UNL     1      10.013  -0.805  21.855  0.00  0.00    +0.222 A 
ATOM      4  N   UNL     1       9.643   0.405  22.295  0.00  0.00    -0.231 NA
ATOM      5  C   UNL     1       9.192   0.446  23.574  0.00  0.00    +0.129 A 
ATOM      6  C   UNL     1       9.083  -0.658  24.386  0.00  0.00    +0.066 A 
ENDROOT
BRANCH   1   9
ATOM      7  N   UNL     1       8.200  -3.162  25.436  0.00  0.00    -0.306 N 
ATOM      8  H   UNL     1       7.614  -2.336  25.502  0.00  0.00    +0.149 HD
ATOM      9  C   UNL     1       9.274  -3.121  24.571  0.00  0.00    +0.263 C 
ATOM     10  O   UNL     1      10.069  -4.044  24.434  0.00  0.00    -0.269 OA
BRANCH   7  11
ATOM     11  C   UNL     1       7.974  -4.274  26.334  0.00  0.00    +0.140 C 
BRANCH  11  15
ATOM     12  C   UNL     1       4.843  -5.907  22.729  0.00  0.00    +0.047 C 
ATOM     13  C   UNL     1       5.290  -5.924  24.159  0.00  0.00    -0.015 A 
ATOM     14  C   UNL     1       6.421  -5.191  24.556  0.00  0.00    +0.011 A 
ATOM     15  C   UNL     1       6.831  -5.161  25.901  0.00  0.00    -0.030 A 
ATOM     16  C   UNL     1       6.093  -5.887  26.848  0.00  0.00    +0.008 A 
ATOM     17  C   UNL     1       4.979  -6.634  26.460  0.00  0.00    +0.039 A 
ATOM     18  C   UNL     1       4.589  -6.645  25.126  0.00  0.00    +0.126 A 
ATOM     19  F   UNL     1       3.505  -7.357  24.779  0.00  0.00    -0.205 F 
ENDBRANCH  11  15
ENDBRANCH   7  11
ENDBRANCH   1   9
BRANCH   5  20
ATOM     20  C   UNL     1       8.770   1.785  24.098  0.00  0.00    +0.263 C 
ATOM     21  N   UNL     1       8.607   2.766  23.142  0.00  0.00    -0.306 N 
ATOM     22  H   UNL     1       8.802   2.521  22.178  0.00  0.00    +0.149 HD
ATOM     23  O   UNL     1       8.572   1.952  25.295  0.00  0.00    -0.269 OA
BRANCH  21  24
ATOM     24  C   UNL     1       8.238   4.128  23.467  0.00  0.00    +0.140 C 
BRANCH  24  25
ATOM     25  C   UNL     1       9.420   4.968  23.892  0.00  0.00    -0.030 A 
ATOM     26  C   UNL     1       9.297   5.882  24.951  0.00  0.00    +0.008 A 
ATOM     27  C   UNL     1      10.403   6.607  25.396  0.00  0.00    +0.039 A 
ATOM     28  C   UNL     1      11.641   6.417  24.793  0.00  0.00    +0.126 A 
ATOM     29  F   UNL     1      12.698   7.107  25.246  0.00  0.00    -0.205 F 
ATOM     30  C   UNL     1      11.801   5.514  23.740  0.00  0.00    -0.015 A 
ATOM     31  C   UNL     1      13.162   5.301  23.147  0.00  0.00    +0.047 C 
ATOM     32  C   UNL     1      10.682   4.794  23.292  0.00  0.00    +0.011 A 
ENDBRANCH  24  25
ENDBRANCH  21  24
ENDBRANCH   5  20
TORSDOF 6
ENDMDL
MODEL 5
REMARK VINA RESULT:      -7.6      1.853      2.467
REMARK  Name = 
REMARK  8 active torsions:
REMARK  status: ('A' for Active; 'I' for Inactive)
REMARK    1  A    between atoms: C_1  and  C_2
REMARK    2  A    between atoms: C_7  and  C_8
REMARK    3  A    between atoms: C_8  and  N_9
REMARK    4  A    between atoms: C_10  and  C_12
REMARK    5  A    between atoms: C_14  and  C_18
REMARK    6  A    between atoms: N_20  and  C_21
REMARK    7  A    between atoms: C_21  and  C_22
REMARK    8  A    between atoms: C_24  and  C_25
REMARK                            x       y       z     vdW  Elec       q    Type
REMARK                         _______ _______ _______ _____ _____    ______ ____
ROOT
ATOM      1  C   UNL     1       9.000  -2.956  23.655  0.00  0.00    +0.129 A 
ATOM      2  N   UNL     1       9.534  -3.931  24.430  0.00  0.00    -0.231 NA
ATOM      3  C   UNL     1       8.681  -4.894  24.810  0.00  0.00    +0.222 A 
ATOM      4  N   UNL     1       7.374  -4.953  24.522  0.00  0.00    -0.231 NA
ATOM      5  C   UNL     1       6.909  -3.958  23.726  0.00  0.00    +0.129 A 
ATOM      6  C   UNL     1       7.686  -2.929  23.249  0.00  0.00    +0.066 A 
ENDROOT
BRANCH   1   9
ATOM      7  N   UNL     1       9.907  -0.736  24.115  0.00  0.00    -0.306 N 
ATOM      8  H   UNL     1       9.298  -0.766  24.927  0.00  0.00    +0.149 HD
ATOM      9  C   UNL     1       9.904  -1.825  23.269  0.00  0.00    +0.263 C 
ATOM     10  O   UNL     1      10.570  -1.887  22.242  0.00  0.00    -0.269 OA
BRANCH   7  11
ATOM     11  C   UNL     1      10.634   0.478  23.809  0.00  0.00    +0.140 C 
BRANCH  11  15
ATOM     12  C   UNL     1      10.238   5.508  23.732  0.00  0.00    +0.047 C 
ATOM     13  C   UNL     1       9.671   4.172  24.104  0.00  0.00    -0.015 A 
ATOM     14  C   UNL     1      10.339   2.992  23.733  0.00  0.00    +0.011 A 
ATOM     15  C   UNL     1       9.845   1.731  24.109  0.00  0.00    -0.030 A 
ATOM     16  C   UNL     1       8.661   1.665  24.859  0.00  0.00    +0.008 A 
ATOM     17  C   UNL     1       7.980   2.830  25.215  0.00  0.00    +0.039 A 
ATOM     18  C   UNL     1       8.489   4.068  24.838  0.00  0.00    +0.126 A 
ATOM     19  F   UNL     1       7.826   5.176  25.206  0.00  0.00    -0.205 F 
ENDBRANCH  11  15
ENDBRANCH   7  11
ENDBRANCH   1   9
BRANCH   5  20
ATOM     20  C   UNL     1       5.451  -3.994  23.384  0.00  0.00    +0.263 C 
ATOM     21  N   UNL     1       4.597  -4.133  24.459  0.00  0.00    -0.306 N 
ATOM     22  H   UNL     1       5.012  -4.222  25.380  0.00  0.00    +0.149 HD
ATOM     23  O   UNL     1       5.080  -3.882  22.222  0.00  0.00    -0.269 OA
BRANCH  21  24
ATOM     24  C   UNL     1       3.160  -4.224  24.316  0.00  0.00    +0.140 C 
BRANCH  24  25
ATOM     25  C   UNL     1       2.672  -5.649  24.206  0.00  0.00    -0.030 A 
ATOM     26  C   UNL     1       2.620  -6.471  25.344  0.00  0.00    +0.008 A 
ATOM     27  C   UNL     1       2.101  -7.764  25.264  0.00  0.00    +0.039 A 
ATOM     28  C   UNL     1       1.622  -8.241  24.049  0.00  0.00    +0.126 A 
ATOM     29  F   UNL     1       1.108  -9.478  23.993  0.00  0.00    -0.205 F 
ATOM     30  C   UNL     1       1.654  -7.451  22.898  0.00  0.00    -0.015 A 
ATOM     31  C   UNL     1       1.085  -7.983  21.617  0.00  0.00    +0.047 C 
ATOM     32  C   UNL     1       2.185  -6.154  22.985  0.00  0.00    +0.011 A 
ENDBRANCH  24  25
ENDBRANCH  21  24
ENDBRANCH   5  20
TORSDOF 6
ENDMDL
MODEL 6
REMARK VINA RESULT:      -7.3      2.880     10.028
REMARK  Name = 
REMARK  8 active torsions:
REMARK  status: ('A' for Active; 'I' for Inactive)
REMARK    1  A    between atoms: C_1  and  C_2
REMARK    2  A    between atoms: C_7  and  C_8
REMARK    3  A    between atoms: C_8  and  N_9
REMARK    4  A    between atoms: C_10  and  C_12
REMARK    5  A    between atoms: C_14  and  C_18
REMARK    6  A    between atoms: N_20  and  C_21
REMARK    7  A    between atoms: C_21  and  C_22
REMARK    8  A    between atoms: C_24  and  C_25
REMARK                            x       y       z     vdW  Elec       q    Type
REMARK                         _______ _______ _______ _____ _____    ______ ____
ROOT
ATOM      1  C   UNL     1       9.603  -1.620  23.568  0.00  0.00    +0.129 A 
ATOM      2  N   UNL     1       9.597  -1.830  22.229  0.00  0.00    -0.231 NA
ATOM      3  C   UNL     1       9.722  -0.729  21.475  0.00  0.00    +0.222 A 
ATOM      4  N   UNL     1       9.817   0.531  21.922  0.00  0.00    -0.231 NA
ATOM      5  C   UNL     1       9.838   0.668  23.271  0.00  0.00    +0.129 A 
ATOM      6  C   UNL     1       9.745  -0.383  24.152  0.00  0.00    +0.066 A 
ENDROOT
BRANCH   1   9
ATOM      7  N   UNL     1       8.311  -2.765  25.295  0.00  0.00    -0.306 N 
ATOM      8  H   UNL     1       7.739  -1.927  25.281  0.00  0.00    +0.149 HD
ATOM      9  C   UNL     1       9.395  -2.819  24.444  0.00  0.00    +0.263 C 
ATOM     10  O   UNL     1      10.174  -3.764  24.398  0.00  0.00    -0.269 OA
BRANCH   7  11
ATOM     11  C   UNL     1       8.054  -3.791  26.284  0.00  0.00    +0.140 C 
BRANCH  11  15
ATOM     12  C   UNL     1       5.030  -5.649  22.696  0.00  0.00    +0.047 C 
ATOM     13  C   UNL     1       5.506  -5.654  24.117  0.00  0.00    -0.015 A 
ATOM     14  C   UNL     1       6.565  -4.819  24.511  0.00  0.00    +0.011 A 
ATOM     15  C   UNL     1       6.997  -4.779  25.849  0.00  0.00    -0.030 A 
ATOM     16  C   UNL     1       6.356  -5.597  26.791  0.00  0.00    +0.008 A 
ATOM     17  C   UNL     1       5.316  -6.444  26.405  0.00  0.00    +0.039 A 
ATOM     18  C   UNL     1       4.901  -6.465  25.078  0.00  0.00    +0.126 A 
ATOM     19  F   UNL     1       3.888  -7.275  24.733  0.00  0.00    -0.205 F 
ENDBRANCH  11  15
ENDBRANCH   7  11
ENDBRANCH   1   9
BRANCH   5  20
ATOM     20  C   UNL     1       9.944   2.064  23.806  0.00  0.00    +0.263 C 
ATOM     21  N   UNL     1       8.790   2.567  24.371  0.00  0.00    -0.306 N 
ATOM     22  H   UNL     1       7.966   1.975  24.363  0.00  0.00    +0.149 HD
ATOM     23  O   UNL     1      11.003   2.676  23.746  0.00  0.00    -0.269 OA
BRANCH  21  24
ATOM     24  C   UNL     1       8.695   3.908  24.904  0.00  0.00    +0.140 C 
BRANCH  24  25
ATOM     25  C   UNL     1       7.817   4.810  24.067  0.00  0.00    -0.030 A 
ATOM     26  C   UNL     1       8.385   5.643  23.089  0.00  0.00    +0.008 A 
ATOM     27  C   UNL     1       7.575   6.423  22.262  0.00  0.00    +0.039 A 
ATOM     28  C   UNL     1       6.192   6.368  22.400  0.00  0.00    +0.126 A 
ATOM     29  F   UNL     1       5.428   7.108  21.585  0.00  0.00    -0.205 F 
ATOM     30  C   UNL     1       5.594   5.548  23.359  0.00  0.00    -0.015 A 
ATOM     31  C   UNL     1       4.098   5.479  23.445  0.00  0.00    +0.047 C 
ATOM     32  C   UNL     1       6.415   4.772  24.192  0.00  0.00    +0.011 A 
ENDBRANCH  24  25
ENDBRANCH  21  24
ENDBRANCH   5  20
TORSDOF 6
ENDMDL
MODEL 7
REMARK VINA RESULT:      -7.1      2.024      2.704
REMARK  Name = 
REMARK  8 active torsions:
REMARK  status: ('A' for Active; 'I' for Inactive)
REMARK    1  A    between atoms: C_1  and  C_2
REMARK    2  A    between atoms: C_7  and  C_8
REMARK    3  A    between atoms: C_8  and  N_9
REMARK    4  A    between atoms: C_10  and  C_12
REMARK    5  A    between atoms: C_14  and  C_18
REMARK    6  A    between atoms: N_20  and  C_21
REMARK    7  A    between atoms: C_21  and  C_22
REMARK    8  A    between atoms: C_24  and  C_25
REMARK                            x       y       z     vdW  Elec       q    Type
REMARK                         _______ _______ _______ _____ _____    ______ ____
ROOT
ATOM      1  C   UNL     1       9.062  -3.095  23.714  0.00  0.00    +0.129 A 
ATOM      2  N   UNL     1       9.572  -4.090  24.480  0.00  0.00    -0.231 NA
ATOM      3  C   UNL     1       8.723  -5.088  24.763  0.00  0.00    +0.222 A 
ATOM      4  N   UNL     1       7.439  -5.166  24.388  0.00  0.00    -0.231 NA
ATOM      5  C   UNL     1       6.999  -4.150  23.605  0.00  0.00    +0.129 A 
ATOM      6  C   UNL     1       7.776  -3.082  23.224  0.00  0.00    +0.066 A 
ENDROOT
BRANCH   1   9
ATOM      7  N   UNL     1       9.845  -0.857  24.298  0.00  0.00    -0.306 N 
ATOM      8  H   UNL     1       9.165  -0.925  25.049  0.00  0.00    +0.149 HD
ATOM      9  C   UNL     1       9.958  -1.926  23.434  0.00  0.00    +0.263 C 
ATOM     10  O   UNL     1      10.718  -1.943  22.472  0.00  0.00    -0.269 OA
BRANCH   7  11
ATOM     11  C   UNL     1      10.554   0.387  24.084  0.00  0.00    +0.140 C 
BRANCH  11  15
ATOM     12  C   UNL     1       8.683   5.074  24.068  0.00  0.00    +0.047 C 
ATOM     13  C   UNL     1       8.765   3.712  23.449  0.00  0.00    -0.015 A 
ATOM     14  C   UNL     1       9.640   2.747  23.976  0.00  0.00    +0.011 A 
ATOM     15  C   UNL     1       9.699   1.450  23.434  0.00  0.00    -0.030 A 
ATOM     16  C   UNL     1       8.872   1.134  22.346  0.00  0.00    +0.008 A 
ATOM     17  C   UNL     1       8.014   2.092  21.804  0.00  0.00    +0.039 A 
ATOM     18  C   UNL     1       7.967   3.366  22.358  0.00  0.00    +0.126 A 
ATOM     19  F   UNL     1       7.122   4.266  21.830  0.00  0.00    -0.205 F 
ENDBRANCH  11  15
ENDBRANCH   7  11
ENDBRANCH   1   9
BRANCH   5  20
ATOM     20  C   UNL     1       5.567  -4.206  23.168  0.00  0.00    +0.263 C 
ATOM     21  N   UNL     1       4.666  -4.565  24.149  0.00  0.00    -0.306 N 
ATOM     22  H   UNL     1       5.033  -4.781  25.069  0.00  0.00    +0.149 HD
ATOM     23  O   UNL     1       5.255  -3.926  22.018  0.00  0.00    -0.269 OA
BRANCH  21  24
ATOM     24  C   UNL     1       3.247  -4.706  23.901  0.00  0.00    +0.140 C 
BRANCH  24  25
ATOM     25  C   UNL     1       2.576  -5.656  24.865  0.00  0.00    -0.030 A 
ATOM     26  C   UNL     1       1.556  -6.514  24.422  0.00  0.00    +0.008 A 
ATOM     27  C   UNL     1       0.984  -7.445  25.290  0.00  0.00    +0.039 A 
ATOM     28  C   UNL     1       1.433  -7.531  26.603  0.00  0.00    +0.126 A 
ATOM     29  F   UNL     1       0.886  -8.445  27.419  0.00  0.00    -0.205 F 
ATOM     30  C   UNL     1       2.447  -6.697  27.077  0.00  0.00    -0.015 A 
ATOM     31  C   UNL     1       2.938  -6.852  28.486  0.00  0.00    +0.047 C 
ATOM     32  C   UNL     1       3.013  -5.757  26.200  0.00  0.00    +0.011 A 
ENDBRANCH  24  25
ENDBRANCH  21  24
ENDBRANCH   5  20
TORSDOF 6
ENDMDL
MODEL 8
REMARK VINA RESULT:      -7.0      2.153     10.094
REMARK  Name = 
REMARK  8 active torsions:
REMARK  status: ('A' for Active; 'I' for Inactive)
REMARK    1  A    between atoms: C_1  and  C_2
REMARK    2  A    between atoms: C_7  and  C_8
REMARK    3  A    between atoms: C_8  and  N_9
REMARK    4  A    between atoms: C_10  and  C_12
REMARK    5  A    between atoms: C_14  and  C_18
REMARK    6  A    between atoms: N_20  and  C_21
REMARK    7  A    between atoms: C_21  and  C_22
REMARK    8  A    between atoms: C_24  and  C_25
REMARK                            x       y       z     vdW  Elec       q    Type
REMARK                         _______ _______ _______ _____ _____    ______ ____
ROOT
ATOM      1  C   UNL     1       7.152  -4.323  24.281  0.00  0.00    +0.129 A 
ATOM      2  N   UNL     1       7.926  -5.087  25.089  0.00  0.00    -0.231 NA
ATOM      3  C   UNL     1       9.228  -4.765  25.108  0.00  0.00    +0.222 A 
ATOM      4  N   UNL     1       9.815  -3.800  24.389  0.00  0.00    -0.231 NA
ATOM      5  C   UNL     1       8.980  -3.060  23.617  0.00  0.00    +0.129 A 
ATOM      6  C   UNL     1       7.625  -3.271  23.531  0.00  0.00    +0.066 A 
ENDROOT
BRANCH   1   9
ATOM      7  N   UNL     1       5.394  -6.009  24.462  0.00  0.00    -0.306 N 
ATOM      8  H   UNL     1       6.156  -6.632  24.708  0.00  0.00    +0.149 HD
ATOM      9  C   UNL     1       5.703  -4.695  24.178  0.00  0.00    +0.263 C 
ATOM     10  O   UNL     1       4.872  -3.861  23.837  0.00  0.00    -0.269 OA
BRANCH   7  11
ATOM     11  C   UNL     1       4.060  -6.543  24.287  0.00  0.00    +0.140 C 
BRANCH  11  15
ATOM     12  C   UNL     1       3.795  -6.978  29.308  0.00  0.00    +0.047 C 
ATOM     13  C   UNL     1       3.113  -6.771  27.989  0.00  0.00    -0.015 A 
ATOM     14  C   UNL     1       3.869  -6.675  26.809  0.00  0.00    +0.011 A 
ATOM     15  C   UNL     1       3.244  -6.524  25.558  0.00  0.00    -0.030 A 
ATOM     16  C   UNL     1       1.844  -6.459  25.506  0.00  0.00    +0.008 A 
ATOM     17  C   UNL     1       1.086  -6.533  26.676  0.00  0.00    +0.039 A 
ATOM     18  C   UNL     1       1.723  -6.689  27.901  0.00  0.00    +0.126 A 
ATOM     19  F   UNL     1       0.973  -6.775  29.011  0.00  0.00    -0.205 F 
ENDBRANCH  11  15
ENDBRANCH   7  11
ENDBRANCH   1   9
BRANCH   5  20
ATOM     20  C   UNL     1       9.605  -1.971  22.799  0.00  0.00    +0.263 C 
ATOM     21  N   UNL     1       8.722  -1.055  22.265  0.00  0.00    -0.306 N 
ATOM     22  H   UNL     1       7.734  -1.196  22.443  0.00  0.00    +0.149 HD
ATOM     23  O   UNL     1      10.820  -1.918  22.655  0.00  0.00    -0.269 OA
BRANCH  21  24
ATOM     24  C   UNL     1       9.141   0.041  21.419  0.00  0.00    +0.140 C 
BRANCH  24  25
ATOM     25  C   UNL     1       9.161   1.366  22.145  0.00  0.00    -0.030 A 
ATOM     26  C   UNL     1      10.257   1.718  22.949  0.00  0.00    +0.008 A 
ATOM     27  C   UNL     1      10.315   2.971  23.563  0.00  0.00    +0.039 A 
ATOM     28  C   UNL     1       9.283   3.882  23.370  0.00  0.00    +0.126 A 
ATOM     29  F   UNL     1       9.363   5.088  23.950  0.00  0.00    -0.205 F 
ATOM     30  C   UNL     1       8.179   3.567  22.574  0.00  0.00    -0.015 A 
ATOM     31  C   UNL     1       7.109   4.594  22.351  0.00  0.00    +0.047 C 
ATOM     32  C   UNL     1       8.124   2.303  21.967  0.00  0.00    +0.011 A 
ENDBRANCH  24  25
ENDBRANCH  21  24
ENDBRANCH   5  20
TORSDOF 6
ENDMDL
MODEL 9
REMARK VINA RESULT:      -7.0      2.187      3.045
REMARK  Name = 
REMARK  8 active torsions:
REMARK  status: ('A' for Active; 'I' for Inactive)
REMARK    1  A    between atoms: C_1  and  C_2
REMARK    2  A    between atoms: C_7  and  C_8
REMARK    3  A    between atoms: C_8  and  N_9
REMARK    4  A    between atoms: C_10  and  C_12
REMARK    5  A    between atoms: C_14  and  C_18
REMARK    6  A    between atoms: N_20  and  C_21
REMARK    7  A    between atoms: C_21  and  C_22
REMARK    8  A    between atoms: C_24  and  C_25
REMARK                            x       y       z     vdW  Elec       q    Type
REMARK                         _______ _______ _______ _____ _____    ______ ____
ROOT
ATOM      1  C   UNL     1       8.394  -3.674  23.895  0.00  0.00    +0.129 A 
ATOM      2  N   UNL     1       9.619  -3.869  24.442  0.00  0.00    -0.231 NA
ATOM      3  C   UNL     1       9.662  -4.743  25.457  0.00  0.00    +0.222 A 
ATOM      4  N   UNL     1       8.618  -5.396  25.984  0.00  0.00    -0.231 NA
ATOM      5  C   UNL     1       7.426  -5.173  25.377  0.00  0.00    +0.129 A 
ATOM      6  C   UNL     1       7.254  -4.322  24.311  0.00  0.00    +0.066 A 
ENDROOT
BRANCH   1   9
ATOM      7  N   UNL     1       9.436  -1.927  22.544  0.00  0.00    -0.306 N 
ATOM      8  H   UNL     1      10.257  -2.121  23.107  0.00  0.00    +0.149 HD
ATOM      9  C   UNL     1       8.292  -2.652  22.803  0.00  0.00    +0.263 C 
ATOM     10  O   UNL     1       7.232  -2.482  22.211  0.00  0.00    -0.269 OA
BRANCH   7  11
ATOM     11  C   UNL     1       9.455  -0.825  21.605  0.00  0.00    +0.140 C 
BRANCH  11  15
ATOM     12  C   UNL     1       7.263   3.692  22.117  0.00  0.00    +0.047 C 
ATOM     13  C   UNL     1       8.346   2.729  22.499  0.00  0.00    -0.015 A 
ATOM     14  C   UNL     1       8.357   1.429  21.965  0.00  0.00    +0.011 A 
ATOM     15  C   UNL     1       9.388   0.526  22.278  0.00  0.00    -0.030 A 
ATOM     16  C   UNL     1      10.409   0.940  23.147  0.00  0.00    +0.008 A 
ATOM     17  C   UNL     1      10.396   2.223  23.698  0.00  0.00    +0.039 A 
ATOM     18  C   UNL     1       9.370   3.102  23.370  0.00  0.00    +0.126 A 
ATOM     19  F   UNL     1       9.386   4.336  23.899  0.00  0.00    -0.205 F 
ENDBRANCH  11  15
ENDBRANCH   7  11
ENDBRANCH   1   9
BRANCH   5  20
ATOM     20  C   UNL     1       6.237  -5.889  25.941  0.00  0.00    +0.263 C 
ATOM     21  N   UNL     1       5.167  -6.023  25.080  0.00  0.00    -0.306 N 
ATOM     22  H   UNL     1       5.254  -5.616  24.156  0.00  0.00    +0.149 HD
ATOM     23  O   UNL     1       6.258  -6.328  27.084  0.00  0.00    -0.269 OA
BRANCH  21  24
ATOM     24  C   UNL     1       3.922  -6.652  25.464  0.00  0.00    +0.140 C 
BRANCH  24  25
ATOM     25  C   UNL     1       3.103  -5.802  26.407  0.00  0.00    -0.030 A 
ATOM     26  C   UNL     1       2.693  -6.314  27.649  0.00  0.00    +0.008 A 
ATOM     27  C   UNL     1       2.000  -5.510  28.555  0.00  0.00    +0.039 A 
ATOM     28  C   UNL     1       1.721  -4.187  28.230  0.00  0.00    +0.126 A 
ATOM     29  F   UNL     1       1.072  -3.423  29.121  0.00  0.00    -0.205 F 
ATOM     30  C   UNL     1       2.116  -3.644  27.007  0.00  0.00    -0.015 A 
ATOM     31  C   UNL     1       1.839  -2.200  26.713  0.00  0.00    +0.047 C 
ATOM     32  C   UNL     1       2.806  -4.461  26.097  0.00  0.00    +0.011 A 
ENDBRANCH  24  25
ENDBRANCH  21  24
ENDBRANCH   5  20
TORSDOF 6
ENDMDL
