MODEL 1
REMARK VINA RESULT:      -5.4      0.000      0.000
REMARK  Name = 
REMARK  0 active torsions:
REMARK  status: ('A' for Active; 'I' for Inactive)
REMARK                            x       y       z     vdW  Elec       q    Type
REMARK                         _______ _______ _______ _____ _____    ______ ____
ROOT
ATOM      1 CL   UNL     1       8.553  -2.629  22.849  0.00  0.00    -0.082 Cl
ATOM      2  C   UNL     1       7.518  -3.748  23.661  0.00  0.00    +0.068 A 
ATOM      3  C   UNL     1       6.345  -4.260  23.079  0.00  0.00    +0.079 A 
ATOM      4 CL   UNL     1       5.896  -3.761  21.473  0.00  0.00    -0.080 Cl
ATOM      5  C   UNL     1       5.539  -5.176  23.798  0.00  0.00    +0.080 A 
ATOM      6 CL   UNL     1       4.088  -5.812  23.071  0.00  0.00    -0.080 Cl
ATOM      7  C   UNL     1       5.903  -5.578  25.099  0.00  0.00    +0.075 A 
ATOM      8 CL   UNL     1       4.942  -6.693  26.003  0.00  0.00    -0.081 Cl
ATOM      9  C   UNL     1       7.066  -5.046  25.639  0.00  0.00    +0.087 A 
ATOM     10  C   UNL     1       7.684  -5.272  26.947  0.00  0.00    +0.341 C 
ATOM     11  O   UNL     1       7.290  -5.986  27.843  0.00  0.00    -0.245 OA
ATOM     12  O   UNL     1       8.816  -4.509  26.984  0.00  0.00    -0.456 OA
ATOM     13  C   UNL     1       9.024  -3.773  25.767  0.00  0.00    +0.270 C 
ATOM     14  C   UNL     1       7.860  -4.154  24.942  0.00  0.00    +0.025 A 
ENDROOT
TORSDOF 0
ENDMDL
MODEL 2
REMARK VINA RESULT:      -5.2      4.434      5.703
REMARK  Name = 
REMARK  0 active torsions:
REMARK  status: ('A' for Active; 'I' for Inactive)
REMARK                            x       y       z     vdW  Elec       q    Type
REMARK                         _______ _______ _______ _____ _____    ______ ____
ROOT
ATOM      1 CL   UNL     1       9.877   2.166  22.584  0.00  0.00    -0.082 Cl
ATOM      2  C   UNL     1       9.386   0.966  23.726  0.00  0.00    +0.068 A 
ATOM      3  C   UNL     1       8.656   1.276  24.887  0.00  0.00    +0.079 A 
ATOM      4 CL   UNL     1       8.217   2.929  25.209  0.00  0.00    -0.080 Cl
ATOM      5  C   UNL     1       8.283   0.245  25.785  0.00  0.00    +0.080 A 
ATOM      6 CL   UNL     1       7.375   0.633  27.221  0.00  0.00    -0.080 Cl
ATOM      7  C   UNL     1       8.642  -1.092  25.524  0.00  0.00    +0.075 A 
ATOM      8 CL   UNL     1       8.202  -2.372  26.597  0.00  0.00    -0.081 Cl
ATOM      9  C   UNL     1       9.366  -1.355  24.368  0.00  0.00    +0.087 A 
ATOM     10  C   UNL     1       9.873  -2.624  23.845  0.00  0.00    +0.341 C 
ATOM     11  O   UNL     1       9.759  -3.728  24.332  0.00  0.00    -0.245 OA
ATOM     12  O   UNL     1      10.520  -2.338  22.677  0.00  0.00    -0.456 OA
ATOM     13  C   UNL     1      10.481  -0.937  22.355  0.00  0.00    +0.270 C 
ATOM     14  C   UNL     1       9.730  -0.354  23.485  0.00  0.00    +0.025 A 
ENDROOT
TORSDOF 0
ENDMDL
MODEL 3
REMARK VINA RESULT:      -5.1      1.396      3.317
REMARK  Name = 
REMARK  0 active torsions:
REMARK  status: ('A' for Active; 'I' for Inactive)
REMARK                            x       y       z     vdW  Elec       q    Type
REMARK                         _______ _______ _______ _____ _____    ______ ____
ROOT
ATOM      1 CL   UNL     1       4.073  -5.763  22.777  0.00  0.00    -0.082 Cl
ATOM      2  C   UNL     1       5.390  -5.204  23.745  0.00  0.00    +0.068 A 
ATOM      3  C   UNL     1       6.318  -4.252  23.289  0.00  0.00    +0.079 A 
ATOM      4 CL   UNL     1       6.155  -3.594  21.687  0.00  0.00    -0.080 Cl
ATOM      5  C   UNL     1       7.376  -3.834  24.134  0.00  0.00    +0.080 A 
ATOM      6 CL   UNL     1       8.523  -2.651  23.567  0.00  0.00    -0.080 Cl
ATOM      7  C   UNL     1       7.508  -4.369  25.430  0.00  0.00    +0.075 A 
ATOM      8 CL   UNL     1       8.786  -3.881  26.485  0.00  0.00    -0.081 Cl
ATOM      9  C   UNL     1       6.572  -5.310  25.841  0.00  0.00    +0.087 A 
ATOM     10  C   UNL     1       6.458  -6.030  27.110  0.00  0.00    +0.341 C 
ATOM     11  O   UNL     1       7.179  -5.947  28.080  0.00  0.00    -0.245 OA
ATOM     12  O   UNL     1       5.364  -6.841  27.005  0.00  0.00    -0.456 OA
ATOM     13  C   UNL     1       4.705  -6.715  25.733  0.00  0.00    +0.270 C 
ATOM     14  C   UNL     1       5.534  -5.720  25.024  0.00  0.00    +0.025 A 
ENDROOT
TORSDOF 0
ENDMDL
MODEL 4
REMARK VINA RESULT:      -5.1      1.211      1.872
REMARK  Name = 
REMARK  0 active torsions:
REMARK  status: ('A' for Active; 'I' for Inactive)
REMARK                            x       y       z     vdW  Elec       q    Type
REMARK                         _______ _______ _______ _____ _____    ______ ____
ROOT
ATOM      1 CL   UNL     1       9.757  -1.787  24.574  0.00  0.00    -0.082 Cl
ATOM      2  C   UNL     1       8.547  -2.980  24.260  0.00  0.00    +0.068 A 
ATOM      3  C   UNL     1       7.946  -3.139  23.000  0.00  0.00    +0.079 A 
ATOM      4 CL   UNL     1       8.424  -2.105  21.684  0.00  0.00    -0.080 Cl
ATOM      5  C   UNL     1       6.959  -4.138  22.807  0.00  0.00    +0.080 A 
ATOM      6 CL   UNL     1       6.219  -4.335  21.242  0.00  0.00    -0.080 Cl
ATOM      7  C   UNL     1       6.572  -4.972  23.874  0.00  0.00    +0.075 A 
ATOM      8 CL   UNL     1       5.372  -6.199  23.673  0.00  0.00    -0.081 Cl
ATOM      9  C   UNL     1       7.187  -4.780  25.104  0.00  0.00    +0.087 A 
ATOM     10  C   UNL     1       6.991  -5.481  26.373  0.00  0.00    +0.341 C 
ATOM     11  O   UNL     1       6.229  -6.393  26.609  0.00  0.00    -0.245 OA
ATOM     12  O   UNL     1       7.840  -4.907  27.276  0.00  0.00    -0.456 OA
ATOM     13  C   UNL     1       8.625  -3.850  26.698  0.00  0.00    +0.270 C 
ATOM     14  C   UNL     1       8.154  -3.810  25.298  0.00  0.00    +0.025 A 
ENDROOT
TORSDOF 0
ENDMDL
MODEL 5
REMARK VINA RESULT:      -5.0      2.675      3.924
REMARK  Name = 
REMARK  0 active torsions:
REMARK  status: ('A' for Active; 'I' for Inactive)
REMARK                            x       y       z     vdW  Elec       q    Type
REMARK                         _______ _______ _______ _____ _____    ______ ____
ROOT
ATOM      1 CL   UNL     1       8.879  -3.710  26.358  0.00  0.00    -0.082 Cl
ATOM      2  C   UNL     1       7.545  -4.376  25.486  0.00  0.00    +0.068 A 
ATOM      3  C   UNL     1       6.626  -5.267  26.068  0.00  0.00    +0.079 A 
ATOM      4 CL   UNL     1       6.818  -5.733  27.733  0.00  0.00    -0.080 Cl
ATOM      5  C   UNL     1       5.551  -5.777  25.298  0.00  0.00    +0.080 A 
ATOM      6 CL   UNL     1       4.411  -6.878  26.023  0.00  0.00    -0.080 Cl
ATOM      7  C   UNL     1       5.398  -5.401  23.950  0.00  0.00    +0.075 A 
ATOM      8 CL   UNL     1       4.099  -6.005  22.984  0.00  0.00    -0.081 Cl
ATOM      9  C   UNL     1       6.329  -4.522  23.412  0.00  0.00    +0.087 A 
ATOM     10  C   UNL     1       6.427  -3.965  22.063  0.00  0.00    +0.341 C 
ATOM     11  O   UNL     1       5.694  -4.168  21.119  0.00  0.00    -0.245 OA
ATOM     12  O   UNL     1       7.525  -3.153  22.050  0.00  0.00    -0.456 OA
ATOM     13  C   UNL     1       8.191  -3.109  23.323  0.00  0.00    +0.270 C 
ATOM     14  C   UNL     1       7.378  -4.016  24.158  0.00  0.00    +0.025 A 
ENDROOT
TORSDOF 0
ENDMDL
MODEL 6
REMARK VINA RESULT:      -5.0      1.360      3.512
REMARK  Name = 
REMARK  0 active torsions:
REMARK  status: ('A' for Active; 'I' for Inactive)
REMARK                            x       y       z     vdW  Elec       q    Type
REMARK                         _______ _______ _______ _____ _____    ______ ____
ROOT
ATOM      1 CL   UNL     1       3.059  -6.873  26.333  0.00  0.00    -0.082 Cl
ATOM      2  C   UNL     1       4.479  -6.208  25.609  0.00  0.00    +0.068 A 
ATOM      3  C   UNL     1       4.583  -5.959  24.229  0.00  0.00    +0.079 A 
ATOM      4 CL   UNL     1       3.239  -6.328  23.187  0.00  0.00    -0.080 Cl
ATOM      5  C   UNL     1       5.777  -5.411  23.697  0.00  0.00    +0.080 A 
ATOM      6 CL   UNL     1       5.901  -5.101  21.986  0.00  0.00    -0.080 Cl
ATOM      7  C   UNL     1       6.864  -5.115  24.541  0.00  0.00    +0.075 A 
ATOM      8 CL   UNL     1       8.332  -4.446  23.925  0.00  0.00    -0.081 Cl
ATOM      9  C   UNL     1       6.722  -5.379  25.897  0.00  0.00    +0.087 A 
ATOM     10  C   UNL     1       7.666  -5.181  26.998  0.00  0.00    +0.341 C 
ATOM     11  O   UNL     1       8.793  -4.738  26.941  0.00  0.00    -0.245 OA
ATOM     12  O   UNL     1       7.039  -5.601  28.136  0.00  0.00    -0.456 OA
ATOM     13  C   UNL     1       5.703  -6.072  27.886  0.00  0.00    +0.270 C 
ATOM     14  C   UNL     1       5.559  -5.910  26.425  0.00  0.00    +0.025 A 
ENDROOT
TORSDOF 0
ENDMDL
MODEL 7
REMARK VINA RESULT:      -5.0      4.312      5.883
REMARK  Name = 
REMARK  0 active torsions:
REMARK  status: ('A' for Active; 'I' for Inactive)
REMARK                            x       y       z     vdW  Elec       q    Type
REMARK                         _______ _______ _______ _____ _____    ______ ____
ROOT
ATOM      1 CL   UNL     1       7.285   1.228  26.887  0.00  0.00    -0.082 Cl
ATOM      2  C   UNL     1       8.193   0.530  25.593  0.00  0.00    +0.068 A 
ATOM      3  C   UNL     1       8.730   1.295  24.543  0.00  0.00    +0.079 A 
ATOM      4 CL   UNL     1       8.482   3.018  24.522  0.00  0.00    -0.080 Cl
ATOM      5  C   UNL     1       9.466   0.662  23.511  0.00  0.00    +0.080 A 
ATOM      6 CL   UNL     1      10.133   1.614  22.212  0.00  0.00    -0.080 Cl
ATOM      7  C   UNL     1       9.664  -0.732  23.528  0.00  0.00    +0.075 A 
ATOM      8 CL   UNL     1      10.557  -1.534  22.286  0.00  0.00    -0.081 Cl
ATOM      9  C   UNL     1       9.115  -1.452  24.582  0.00  0.00    +0.087 A 
ATOM     10  C   UNL     1       9.153  -2.888  24.860  0.00  0.00    +0.341 C 
ATOM     11  O   UNL     1       9.684  -3.759  24.206  0.00  0.00    -0.245 OA
ATOM     12  O   UNL     1       8.459  -3.082  26.020  0.00  0.00    -0.456 OA
ATOM     13  C   UNL     1       7.949  -1.855  26.569  0.00  0.00    +0.270 C 
ATOM     14  C   UNL     1       8.398  -0.840  25.594  0.00  0.00    +0.025 A 
ENDROOT
TORSDOF 0
ENDMDL
MODEL 8
REMARK VINA RESULT:      -4.9      2.797      3.924
REMARK  Name = 
REMARK  0 active torsions:
REMARK  status: ('A' for Active; 'I' for Inactive)
REMARK                            x       y       z     vdW  Elec       q    Type
REMARK                         _______ _______ _______ _____ _____    ______ ____
ROOT
ATOM      1 CL   UNL     1       9.267  -3.039  23.733  0.00  0.00    -0.082 Cl
ATOM      2  C   UNL     1       7.943  -3.987  24.311  0.00  0.00    +0.068 A 
ATOM      3  C   UNL     1       7.891  -4.503  25.618  0.00  0.00    +0.079 A 
ATOM      4 CL   UNL     1       9.202  -4.186  26.718  0.00  0.00    -0.080 Cl
ATOM      5  C   UNL     1       6.776  -5.273  26.031  0.00  0.00    +0.080 A 
ATOM      6 CL   UNL     1       6.713  -5.907  27.652  0.00  0.00    -0.080 Cl
ATOM      7  C   UNL     1       5.717  -5.529  25.138  0.00  0.00    +0.075 A 
ATOM      8 CL   UNL     1       4.343  -6.464  25.610  0.00  0.00    -0.081 Cl
ATOM      9  C   UNL     1       5.809  -5.005  23.855  0.00  0.00    +0.087 A 
ATOM     10  C   UNL     1       4.880  -5.107  22.729  0.00  0.00    +0.341 C 
ATOM     11  O   UNL     1       3.817  -5.688  22.691  0.00  0.00    -0.245 OA
ATOM     12  O   UNL     1       5.439  -4.415  21.693  0.00  0.00    -0.456 OA
ATOM     13  C   UNL     1       6.704  -3.828  22.043  0.00  0.00    +0.270 C 
ATOM     14  C   UNL     1       6.892  -4.249  23.446  0.00  0.00    +0.025 A 
ENDROOT
TORSDOF 0
ENDMDL
MODEL 9
REMARK VINA RESULT:      -4.8      4.259      6.138
REMARK  Name = 
REMARK  0 active torsions:
REMARK  status: ('A' for Active; 'I' for Inactive)
REMARK                            x       y       z     vdW  Elec       q    Type
REMARK                         _______ _______ _______ _____ _____    ______ ____
ROOT
ATOM      1 CL   UNL     1       5.379  -1.141  25.490  0.00  0.00    -0.082 Cl
ATOM      2  C   UNL     1       6.582  -0.478  24.442  0.00  0.00    +0.068 A 
ATOM      3  C   UNL     1       6.512   0.833  23.939  0.00  0.00    +0.079 A 
ATOM      4 CL   UNL     1       5.169   1.850  24.376  0.00  0.00    -0.080 Cl
ATOM      5  C   UNL     1       7.532   1.318  23.083  0.00  0.00    +0.080 A 
ATOM      6 CL   UNL     1       7.445   2.944  22.465  0.00  0.00    -0.080 Cl
ATOM      7  C   UNL     1       8.618   0.493  22.729  0.00  0.00    +0.075 A 
ATOM      8 CL   UNL     1       9.878   1.053  21.689  0.00  0.00    -0.081 Cl
ATOM      9  C   UNL     1       8.647  -0.797  23.244  0.00  0.00    +0.087 A 
ATOM     10  C   UNL     1       9.629  -1.864  23.052  0.00  0.00    +0.341 C 
ATOM     11  O   UNL     1      10.640  -1.834  22.385  0.00  0.00    -0.245 OA
ATOM     12  O   UNL     1       9.193  -2.936  23.777  0.00  0.00    -0.456 OA
ATOM     13  C   UNL     1       7.963  -2.667  24.471  0.00  0.00    +0.270 C 
ATOM     14  C   UNL     1       7.657  -1.276  24.083  0.00  0.00    +0.025 A 
ENDROOT
TORSDOF 0
ENDMDL
