MODEL 1
REMARK VINA RESULT:      -5.4      0.000      0.000
REMARK  Name = 
REMARK  14 active torsions:
REMARK  status: ('A' for Active; 'I' for Inactive)
REMARK    1  A    between atoms: O_1  and  C_2
REMARK    2  A    between atoms: C_2  and  C_4
REMARK    3  A    between atoms: C_2  and  C_10
REMARK    4  A    between atoms: C_4  and  O_5
REMARK    5  A    between atoms: O_5  and  P_6
REMARK    6  A    between atoms: P_6  and  O_7
REMARK    7  A    between atoms: P_6  and  O_8
REMARK    8  A    between atoms: C_10  and  O_12
REMARK    9  A    between atoms: C_10  and  C_13
REMARK   10  A    between atoms: C_13  and  O_15
REMARK   11  A    between atoms: C_13  and  C_16
REMARK   12  A    between atoms: C_16  and  O_18
REMARK   13  A    between atoms: C_16  and  C_19
REMARK   14  A    between atoms: C_19  and  O_20
REMARK                            x       y       z     vdW  Elec       q    Type
REMARK                         _______ _______ _______ _____ _____    ______ ____
ROOT
ATOM      1  C   UNL     1       8.490  -2.838  23.661  0.00  0.00    +0.177 C 
ENDROOT
BRANCH   1   2
ATOM      2  O   UNL     1       8.264  -2.761  22.243  0.00  0.00    -0.386 OA
ATOM      3  H   UNL     1       8.393  -1.816  22.017  0.00  0.00    +0.210 HD
ENDBRANCH   1   2
BRANCH   1   4
ATOM      4  C   UNL     1       9.826  -2.124  23.934  0.00  0.00    +0.172 C 
BRANCH   4   5
ATOM      5  O   UNL     1      10.637  -2.286  22.749  0.00  0.00    -0.387 OA
ATOM      6  H   UNL     1      11.411  -1.705  22.879  0.00  0.00    +0.210 HD
ENDBRANCH   4   5
BRANCH   4   7
ATOM      7  C   UNL     1       9.653  -0.639  24.231  0.00  0.00    +0.206 C 
BRANCH   7   8
ATOM      8  O   UNL     1      10.284   0.099  23.194  0.00  0.00    -0.284 OA
BRANCH   8   9
ATOM      9  P   UNL     1       9.303   0.701  22.092  0.00  0.00    +0.472 P 
ATOM     10  O   UNL     1       7.922   1.069  22.532  0.00  0.00    -0.228 OA
BRANCH   9  11
ATOM     11  O   UNL     1       9.407  -0.303  20.862  0.00  0.00    -0.303 OA
ATOM     12  H   UNL     1       8.556  -0.751  20.713  0.00  0.00    +0.222 HD
ENDBRANCH   9  11
BRANCH   9  13
ATOM     13  O   UNL     1      10.100   1.956  21.514  0.00  0.00    -0.303 OA
ATOM     14  H   UNL     1      11.062   1.830  21.628  0.00  0.00    +0.222 HD
ENDBRANCH   9  13
ENDBRANCH   8   9
ENDBRANCH   7   8
ENDBRANCH   4   7
ENDBRANCH   1   4
BRANCH   1  15
ATOM     15  C   UNL     1       8.470  -4.311  24.129  0.00  0.00    +0.185 C 
BRANCH  15  16
ATOM     16  O   UNL     1       7.117  -4.759  24.317  0.00  0.00    -0.386 OA
ATOM     17  H   UNL     1       6.543  -3.970  24.266  0.00  0.00    +0.210 HD
ENDBRANCH  15  16
BRANCH  15  18
ATOM     18  C   UNL     1       9.324  -4.608  25.379  0.00  0.00    +0.254 C 
BRANCH  18  19
ATOM     19  C   UNL     1       8.382  -4.761  26.566  0.00  0.00    +0.336 C 
ATOM     20  O   UNL     1       7.797  -3.845  27.118  0.00  0.00    -0.248 OA
BRANCH  19  21
ATOM     21  O   UNL     1       8.203  -6.070  26.897  0.00  0.00    -0.479 OA
ATOM     22  H   UNL     1       8.639  -6.233  27.770  0.00  0.00    +0.295 HD
ENDBRANCH  19  21
ENDBRANCH  18  19
BRANCH  18  23
ATOM     23  O   UNL     1      10.121  -5.799  25.279  0.00  0.00    -0.378 OA
ATOM     24  H   UNL     1      10.935  -5.548  24.802  0.00  0.00    +0.211 HD
ENDBRANCH  18  23
ENDBRANCH  15  18
ENDBRANCH   1  15
TORSDOF 14
ENDMDL
MODEL 2
REMARK VINA RESULT:      -5.2      2.154      6.113
REMARK  Name = 
REMARK  14 active torsions:
REMARK  status: ('A' for Active; 'I' for Inactive)
REMARK    1  A    between atoms: O_1  and  C_2
REMARK    2  A    between atoms: C_2  and  C_4
REMARK    3  A    between atoms: C_2  and  C_10
REMARK    4  A    between atoms: C_4  and  O_5
REMARK    5  A    between atoms: O_5  and  P_6
REMARK    6  A    between atoms: P_6  and  O_7
REMARK    7  A    between atoms: P_6  and  O_8
REMARK    8  A    between atoms: C_10  and  O_12
REMARK    9  A    between atoms: C_10  and  C_13
REMARK   10  A    between atoms: C_13  and  O_15
REMARK   11  A    between atoms: C_13  and  C_16
REMARK   12  A    between atoms: C_16  and  O_18
REMARK   13  A    between atoms: C_16  and  C_19
REMARK   14  A    between atoms: C_19  and  O_20
REMARK                            x       y       z     vdW  Elec       q    Type
REMARK                         _______ _______ _______ _____ _____    ______ ____
ROOT
ATOM      1  C   UNL     1       9.149  -0.980  24.744  0.00  0.00    +0.177 C 
ENDROOT
BRANCH   1   2
ATOM      2  O   UNL     1      10.182  -1.685  24.034  0.00  0.00    -0.386 OA
ATOM      3  H   UNL     1      10.625  -2.236  24.714  0.00  0.00    +0.210 HD
ENDBRANCH   1   2
BRANCH   1   4
ATOM      4  C   UNL     1       7.831  -1.721  24.458  0.00  0.00    +0.172 C 
BRANCH   4   5
ATOM      5  O   UNL     1       7.917  -2.220  23.104  0.00  0.00    -0.387 OA
ATOM      6  H   UNL     1       8.843  -2.077  22.829  0.00  0.00    +0.210 HD
ENDBRANCH   4   5
BRANCH   4   7
ATOM      7  C   UNL     1       7.585  -2.884  25.412  0.00  0.00    +0.206 C 
BRANCH   7   8
ATOM      8  O   UNL     1       8.832  -3.513  25.678  0.00  0.00    -0.284 OA
BRANCH   8   9
ATOM      9  P   UNL     1       8.963  -5.012  25.156  0.00  0.00    +0.472 P 
ATOM     10  O   UNL     1       8.413  -5.316  23.799  0.00  0.00    -0.228 OA
BRANCH   9  11
ATOM     11  O   UNL     1       8.422  -5.910  26.353  0.00  0.00    -0.303 OA
ATOM     12  H   UNL     1       7.455  -6.005  26.300  0.00  0.00    +0.222 HD
ENDBRANCH   9  11
BRANCH   9  13
ATOM     13  O   UNL     1      10.527  -5.314  25.248  0.00  0.00    -0.303 OA
ATOM     14  H   UNL     1      10.692  -6.083  25.827  0.00  0.00    +0.222 HD
ENDBRANCH   9  13
ENDBRANCH   8   9
ENDBRANCH   7   8
ENDBRANCH   4   7
ENDBRANCH   1   4
BRANCH   1  15
ATOM     15  C   UNL     1       9.127   0.507  24.322  0.00  0.00    +0.185 C 
BRANCH  15  16
ATOM     16  O   UNL     1       7.874   0.832  23.696  0.00  0.00    -0.386 OA
ATOM     17  H   UNL     1       8.020   1.639  23.164  0.00  0.00    +0.210 HD
ENDBRANCH  15  16
BRANCH  15  18
ATOM     18  C   UNL     1      10.312   0.950  23.439  0.00  0.00    +0.254 C 
BRANCH  18  19
ATOM     19  C   UNL     1       9.865   0.882  21.985  0.00  0.00    +0.336 C 
ATOM     20  O   UNL     1       9.582  -0.142  21.386  0.00  0.00    -0.248 OA
BRANCH  19  21
ATOM     21  O   UNL     1       9.740   2.125  21.442  0.00  0.00    -0.479 OA
ATOM     22  H   UNL     1       8.916   2.540  21.798  0.00  0.00    +0.295 HD
ENDBRANCH  19  21
ENDBRANCH  18  19
BRANCH  18  23
ATOM     23  O   UNL     1      10.780   2.280  23.706  0.00  0.00    -0.378 OA
ATOM     24  H   UNL     1      11.736   2.283  23.506  0.00  0.00    +0.211 HD
ENDBRANCH  18  23
ENDBRANCH  15  18
ENDBRANCH   1  15
TORSDOF 14
ENDMDL
MODEL 3
REMARK VINA RESULT:      -5.2      3.250      5.899
REMARK  Name = 
REMARK  14 active torsions:
REMARK  status: ('A' for Active; 'I' for Inactive)
REMARK    1  A    between atoms: O_1  and  C_2
REMARK    2  A    between atoms: C_2  and  C_4
REMARK    3  A    between atoms: C_2  and  C_10
REMARK    4  A    between atoms: C_4  and  O_5
REMARK    5  A    between atoms: O_5  and  P_6
REMARK    6  A    between atoms: P_6  and  O_7
REMARK    7  A    between atoms: P_6  and  O_8
REMARK    8  A    between atoms: C_10  and  O_12
REMARK    9  A    between atoms: C_10  and  C_13
REMARK   10  A    between atoms: C_13  and  O_15
REMARK   11  A    between atoms: C_13  and  C_16
REMARK   12  A    between atoms: C_16  and  O_18
REMARK   13  A    between atoms: C_16  and  C_19
REMARK   14  A    between atoms: C_19  and  O_20
REMARK                            x       y       z     vdW  Elec       q    Type
REMARK                         _______ _______ _______ _____ _____    ______ ____
ROOT
ATOM      1  C   UNL     1       7.162  -5.044  27.080  0.00  0.00    +0.177 C 
ENDROOT
BRANCH   1   2
ATOM      2  O   UNL     1       7.524  -6.049  28.043  0.00  0.00    -0.386 OA
ATOM      3  H   UNL     1       8.392  -6.389  27.739  0.00  0.00    +0.210 HD
ENDBRANCH   1   2
BRANCH   1   4
ATOM      4  C   UNL     1       6.321  -5.748  26.000  0.00  0.00    +0.172 C 
BRANCH   4   5
ATOM      5  O   UNL     1       5.564  -6.783  26.668  0.00  0.00    -0.387 OA
ATOM      6  H   UNL     1       6.226  -7.353  27.105  0.00  0.00    +0.210 HD
ENDBRANCH   4   5
BRANCH   4   7
ATOM      7  C   UNL     1       5.365  -4.803  25.283  0.00  0.00    +0.206 C 
BRANCH   7   8
ATOM      8  O   UNL     1       5.578  -4.929  23.884  0.00  0.00    -0.284 OA
BRANCH   8   9
ATOM      9  P   UNL     1       4.478  -5.774  23.100  0.00  0.00    +0.472 P 
ATOM     10  O   UNL     1       3.125  -5.157  22.943  0.00  0.00    -0.228 OA
BRANCH   9  11
ATOM     11  O   UNL     1       4.521  -7.218  23.768  0.00  0.00    -0.303 OA
ATOM     12  H   UNL     1       5.330  -7.327  24.296  0.00  0.00    +0.222 HD
ENDBRANCH   9  11
BRANCH   9  13
ATOM     13  O   UNL     1       5.162  -6.081  21.693  0.00  0.00    -0.303 OA
ATOM     14  H   UNL     1       5.521  -6.989  21.680  0.00  0.00    +0.222 HD
ENDBRANCH   9  13
ENDBRANCH   8   9
ENDBRANCH   7   8
ENDBRANCH   4   7
ENDBRANCH   1   4
BRANCH   1  15
ATOM     15  C   UNL     1       8.428  -4.352  26.524  0.00  0.00    +0.185 C 
BRANCH  15  16
ATOM     16  O   UNL     1       8.209  -2.937  26.393  0.00  0.00    -0.386 OA
ATOM     17  H   UNL     1       8.968  -2.489  26.815  0.00  0.00    +0.210 HD
ENDBRANCH  15  16
BRANCH  15  18
ATOM     18  C   UNL     1       8.969  -4.947  25.208  0.00  0.00    +0.254 C 
BRANCH  18  19
ATOM     19  C   UNL     1       9.134  -3.809  24.210  0.00  0.00    +0.336 C 
ATOM     20  O   UNL     1      10.148  -3.146  24.064  0.00  0.00    -0.248 OA
BRANCH  19  21
ATOM     21  O   UNL     1       8.027  -3.662  23.431  0.00  0.00    -0.479 OA
ATOM     22  H   UNL     1       7.261  -4.084  23.894  0.00  0.00    +0.295 HD
ENDBRANCH  19  21
ENDBRANCH  18  19
BRANCH  18  23
ATOM     23  O   UNL     1      10.232  -5.618  25.340  0.00  0.00    -0.378 OA
ATOM     24  H   UNL     1      10.311  -6.212  24.569  0.00  0.00    +0.211 HD
ENDBRANCH  18  23
ENDBRANCH  15  18
ENDBRANCH   1  15
TORSDOF 14
ENDMDL
MODEL 4
REMARK VINA RESULT:      -5.2      1.298      1.778
REMARK  Name = 
REMARK  14 active torsions:
REMARK  status: ('A' for Active; 'I' for Inactive)
REMARK    1  A    between atoms: O_1  and  C_2
REMARK    2  A    between atoms: C_2  and  C_4
REMARK    3  A    between atoms: C_2  and  C_10
REMARK    4  A    between atoms: C_4  and  O_5
REMARK    5  A    between atoms: O_5  and  P_6
REMARK    6  A    between atoms: P_6  and  O_7
REMARK    7  A    between atoms: P_6  and  O_8
REMARK    8  A    between atoms: C_10  and  O_12
REMARK    9  A    between atoms: C_10  and  C_13
REMARK   10  A    between atoms: C_13  and  O_15
REMARK   11  A    between atoms: C_13  and  C_16
REMARK   12  A    between atoms: C_16  and  O_18
REMARK   13  A    between atoms: C_16  and  C_19
REMARK   14  A    between atoms: C_19  and  O_20
REMARK                            x       y       z     vdW  Elec       q    Type
REMARK                         _______ _______ _______ _____ _____    ______ ____
ROOT
ATOM      1  C   UNL     1       9.267  -2.442  23.862  0.00  0.00    +0.177 C 
ENDROOT
BRANCH   1   2
ATOM      2  O   UNL     1       8.668  -1.543  24.811  0.00  0.00    -0.386 OA
ATOM      3  H   UNL     1       9.179  -0.711  24.729  0.00  0.00    +0.210 HD
ENDBRANCH   1   2
BRANCH   1   4
ATOM      4  C   UNL     1       8.839  -1.959  22.465  0.00  0.00    +0.172 C 
BRANCH   4   5
ATOM      5  O   UNL     1       7.516  -1.394  22.605  0.00  0.00    -0.387 OA
ATOM      6  H   UNL     1       7.047  -1.973  23.236  0.00  0.00    +0.210 HD
ENDBRANCH   4   5
BRANCH   4   7
ATOM      7  C   UNL     1       9.780  -0.908  21.888  0.00  0.00    +0.206 C 
BRANCH   7   8
ATOM      8  O   UNL     1      10.349  -0.179  22.966  0.00  0.00    -0.284 OA
BRANCH   8   9
ATOM      9  P   UNL     1       9.947   1.362  23.034  0.00  0.00    +0.472 P 
ATOM     10  O   UNL     1      10.847   2.270  23.809  0.00  0.00    -0.228 OA
BRANCH   9  11
ATOM     11  O   UNL     1       8.413   1.364  23.453  0.00  0.00    -0.303 OA
ATOM     12  H   UNL     1       8.048   0.462  23.426  0.00  0.00    +0.222 HD
ENDBRANCH   9  11
BRANCH   9  13
ATOM     13  O   UNL     1       9.834   1.796  21.504  0.00  0.00    -0.303 OA
ATOM     14  H   UNL     1       9.069   1.358  21.082  0.00  0.00    +0.222 HD
ENDBRANCH   9  13
ENDBRANCH   8   9
ENDBRANCH   7   8
ENDBRANCH   4   7
ENDBRANCH   1   4
BRANCH   1  15
ATOM     15  C   UNL     1       8.851  -3.899  24.167  0.00  0.00    +0.185 C 
BRANCH  15  16
ATOM     16  O   UNL     1       7.421  -4.001  24.277  0.00  0.00    -0.386 OA
ATOM     17  H   UNL     1       7.039  -3.323  23.686  0.00  0.00    +0.210 HD
ENDBRANCH  15  16
BRANCH  15  18
ATOM     18  C   UNL     1       9.541  -4.529  25.395  0.00  0.00    +0.254 C 
BRANCH  18  19
ATOM     19  C   UNL     1       8.527  -4.577  26.530  0.00  0.00    +0.336 C 
ATOM     20  O   UNL     1       8.035  -3.601  27.072  0.00  0.00    -0.248 OA
BRANCH  19  21
ATOM     21  O   UNL     1       8.167  -5.857  26.826  0.00  0.00    -0.479 OA
ATOM     22  H   UNL     1       7.835  -6.286  25.999  0.00  0.00    +0.295 HD
ENDBRANCH  19  21
ENDBRANCH  18  19
BRANCH  18  23
ATOM     23  O   UNL     1      10.035  -5.859  25.175  0.00  0.00    -0.378 OA
ATOM     24  H   UNL     1       9.388  -6.303  24.594  0.00  0.00    +0.211 HD
ENDBRANCH  18  23
ENDBRANCH  15  18
ENDBRANCH   1  15
TORSDOF 14
ENDMDL
MODEL 5
REMARK VINA RESULT:      -5.1      2.342      6.300
REMARK  Name = 
REMARK  14 active torsions:
REMARK  status: ('A' for Active; 'I' for Inactive)
REMARK    1  A    between atoms: O_1  and  C_2
REMARK    2  A    between atoms: C_2  and  C_4
REMARK    3  A    between atoms: C_2  and  C_10
REMARK    4  A    between atoms: C_4  and  O_5
REMARK    5  A    between atoms: O_5  and  P_6
REMARK    6  A    between atoms: P_6  and  O_7
REMARK    7  A    between atoms: P_6  and  O_8
REMARK    8  A    between atoms: C_10  and  O_12
REMARK    9  A    between atoms: C_10  and  C_13
REMARK   10  A    between atoms: C_13  and  O_15
REMARK   11  A    between atoms: C_13  and  C_16
REMARK   12  A    between atoms: C_16  and  O_18
REMARK   13  A    between atoms: C_16  and  C_19
REMARK   14  A    between atoms: C_19  and  O_20
REMARK                            x       y       z     vdW  Elec       q    Type
REMARK                         _______ _______ _______ _____ _____    ______ ____
ROOT
ATOM      1  C   UNL     1      10.021  -1.082  22.469  0.00  0.00    +0.177 C 
ENDROOT
BRANCH   1   2
ATOM      2  O   UNL     1       9.513  -1.203  21.129  0.00  0.00    -0.386 OA
ATOM      3  H   UNL     1       9.532  -0.291  20.768  0.00  0.00    +0.210 HD
ENDBRANCH   1   2
BRANCH   1   4
ATOM      4  C   UNL     1       9.114  -1.945  23.364  0.00  0.00    +0.172 C 
BRANCH   4   5
ATOM      5  O   UNL     1       8.207  -2.649  22.486  0.00  0.00    -0.387 OA
ATOM      6  H   UNL     1       8.598  -2.581  21.594  0.00  0.00    +0.210 HD
ENDBRANCH   4   5
BRANCH   4   7
ATOM      7  C   UNL     1       9.893  -2.952  24.202  0.00  0.00    +0.206 C 
BRANCH   7   8
ATOM      8  O   UNL     1       9.027  -3.461  25.207  0.00  0.00    -0.284 OA
BRANCH   8   9
ATOM      9  P   UNL     1       8.920  -5.049  25.274  0.00  0.00    +0.472 P 
ATOM     10  O   UNL     1       7.969  -5.630  26.272  0.00  0.00    -0.228 OA
BRANCH   9  11
ATOM     11  O   UNL     1      10.426  -5.555  25.359  0.00  0.00    -0.303 OA
ATOM     12  H   UNL     1      10.458  -6.525  25.429  0.00  0.00    +0.222 HD
ENDBRANCH   9  11
BRANCH   9  13
ATOM     13  O   UNL     1       8.552  -5.472  23.781  0.00  0.00    -0.303 OA
ATOM     14  H   UNL     1       7.906  -4.846  23.400  0.00  0.00    +0.222 HD
ENDBRANCH   9  13
ENDBRANCH   8   9
ENDBRANCH   7   8
ENDBRANCH   4   7
ENDBRANCH   1   4
BRANCH   1  15
ATOM     15  C   UNL     1      10.074   0.404  22.891  0.00  0.00    +0.185 C 
BRANCH  15  16
ATOM     16  O   UNL     1       9.232   0.631  24.034  0.00  0.00    -0.386 OA
ATOM     17  H   UNL     1       8.836  -0.230  24.274  0.00  0.00    +0.210 HD
ENDBRANCH  15  16
BRANCH  15  18
ATOM     18  C   UNL     1       9.756   1.411  21.767  0.00  0.00    +0.254 C 
BRANCH  18  19
ATOM     19  C   UNL     1       8.330   1.907  21.971  0.00  0.00    +0.336 C 
ATOM     20  O   UNL     1       7.336   1.201  21.968  0.00  0.00    -0.248 OA
BRANCH  19  21
ATOM     21  O   UNL     1       8.299   3.242  22.240  0.00  0.00    -0.479 OA
ATOM     22  H   UNL     1       7.727   3.387  23.034  0.00  0.00    +0.295 HD
ENDBRANCH  19  21
ENDBRANCH  18  19
BRANCH  18  23
ATOM     23  O   UNL     1      10.629   2.550  21.731  0.00  0.00    -0.378 OA
ATOM     24  H   UNL     1      10.214   3.235  22.289  0.00  0.00    +0.211 HD
ENDBRANCH  18  23
ENDBRANCH  15  18
ENDBRANCH   1  15
TORSDOF 14
ENDMDL
MODEL 6
REMARK VINA RESULT:      -5.0      2.906      4.878
REMARK  Name = 
REMARK  14 active torsions:
REMARK  status: ('A' for Active; 'I' for Inactive)
REMARK    1  A    between atoms: O_1  and  C_2
REMARK    2  A    between atoms: C_2  and  C_4
REMARK    3  A    between atoms: C_2  and  C_10
REMARK    4  A    between atoms: C_4  and  O_5
REMARK    5  A    between atoms: O_5  and  P_6
REMARK    6  A    between atoms: P_6  and  O_7
REMARK    7  A    between atoms: P_6  and  O_8
REMARK    8  A    between atoms: C_10  and  O_12
REMARK    9  A    between atoms: C_10  and  C_13
REMARK   10  A    between atoms: C_13  and  O_15
REMARK   11  A    between atoms: C_13  and  C_16
REMARK   12  A    between atoms: C_16  and  O_18
REMARK   13  A    between atoms: C_16  and  C_19
REMARK   14  A    between atoms: C_19  and  O_20
REMARK                            x       y       z     vdW  Elec       q    Type
REMARK                         _______ _______ _______ _____ _____    ______ ____
ROOT
ATOM      1  C   UNL     1       8.963   1.032  21.775  0.00  0.00    +0.177 C 
ENDROOT
BRANCH   1   2
ATOM      2  O   UNL     1       9.941   2.054  21.515  0.00  0.00    -0.386 OA
ATOM      3  H   UNL     1       9.628   2.836  22.015  0.00  0.00    +0.210 HD
ENDBRANCH   1   2
BRANCH   1   4
ATOM      4  C   UNL     1       7.595   1.735  21.836  0.00  0.00    +0.172 C 
BRANCH   4   5
ATOM      5  O   UNL     1       6.850   1.110  22.905  0.00  0.00    -0.387 OA
ATOM      6  H   UNL     1       6.367   0.369  22.492  0.00  0.00    +0.210 HD
ENDBRANCH   4   5
BRANCH   4   7
ATOM      7  C   UNL     1       7.710   3.231  22.105  0.00  0.00    +0.206 C 
BRANCH   7   8
ATOM      8  O   UNL     1       7.949   3.418  23.493  0.00  0.00    -0.284 OA
BRANCH   8   9
ATOM      9  P   UNL     1       8.927   4.620  23.861  0.00  0.00    +0.472 P 
ATOM     10  O   UNL     1       8.928   5.093  25.280  0.00  0.00    -0.228 OA
BRANCH   9  11
ATOM     11  O   UNL     1       8.649   5.725  22.750  0.00  0.00    -0.303 OA
ATOM     12  H   UNL     1       9.484   6.031  22.354  0.00  0.00    +0.222 HD
ENDBRANCH   9  11
BRANCH   9  13
ATOM     13  O   UNL     1      10.363   4.100  23.403  0.00  0.00    -0.303 OA
ATOM     14  H   UNL     1      10.349   3.847  22.460  0.00  0.00    +0.222 HD
ENDBRANCH   9  13
ENDBRANCH   8   9
ENDBRANCH   7   8
ENDBRANCH   4   7
ENDBRANCH   1   4
BRANCH   1  15
ATOM     15  C   UNL     1       9.321   0.263  23.067  0.00  0.00    +0.185 C 
BRANCH  15  16
ATOM     16  O   UNL     1       9.884   1.157  24.043  0.00  0.00    -0.386 OA
ATOM     17  H   UNL     1      10.026   0.638  24.859  0.00  0.00    +0.210 HD
ENDBRANCH  15  16
BRANCH  15  18
ATOM     18  C   UNL     1      10.230  -0.967  22.861  0.00  0.00    +0.254 C 
BRANCH  18  19
ATOM     19  C   UNL     1       9.809  -2.034  23.863  0.00  0.00    +0.336 C 
ATOM     20  O   UNL     1      10.239  -3.176  23.892  0.00  0.00    -0.248 OA
BRANCH  19  21
ATOM     21  O   UNL     1       8.941  -1.539  24.788  0.00  0.00    -0.479 OA
ATOM     22  H   UNL     1       8.937  -2.146  25.569  0.00  0.00    +0.295 HD
ENDBRANCH  19  21
ENDBRANCH  18  19
BRANCH  18  23
ATOM     23  O   UNL     1      10.165  -1.534  21.544  0.00  0.00    -0.378 OA
ATOM     24  H   UNL     1       9.426  -1.089  21.087  0.00  0.00    +0.211 HD
ENDBRANCH  18  23
ENDBRANCH  15  18
ENDBRANCH   1  15
TORSDOF 14
ENDMDL
MODEL 7
REMARK VINA RESULT:      -5.0      1.473      2.700
REMARK  Name = 
REMARK  14 active torsions:
REMARK  status: ('A' for Active; 'I' for Inactive)
REMARK    1  A    between atoms: O_1  and  C_2
REMARK    2  A    between atoms: C_2  and  C_4
REMARK    3  A    between atoms: C_2  and  C_10
REMARK    4  A    between atoms: C_4  and  O_5
REMARK    5  A    between atoms: O_5  and  P_6
REMARK    6  A    between atoms: P_6  and  O_7
REMARK    7  A    between atoms: P_6  and  O_8
REMARK    8  A    between atoms: C_10  and  O_12
REMARK    9  A    between atoms: C_10  and  C_13
REMARK   10  A    between atoms: C_13  and  O_15
REMARK   11  A    between atoms: C_13  and  C_16
REMARK   12  A    between atoms: C_16  and  O_18
REMARK   13  A    between atoms: C_16  and  C_19
REMARK   14  A    between atoms: C_19  and  O_20
REMARK                            x       y       z     vdW  Elec       q    Type
REMARK                         _______ _______ _______ _____ _____    ______ ____
ROOT
ATOM      1  C   UNL     1       8.488  -1.797  22.361  0.00  0.00    +0.177 C 
ENDROOT
BRANCH   1   2
ATOM      2  O   UNL     1       9.510  -1.318  21.470  0.00  0.00    -0.386 OA
ATOM      3  H   UNL     1       9.099  -0.564  20.996  0.00  0.00    +0.210 HD
ENDBRANCH   1   2
BRANCH   1   4
ATOM      4  C   UNL     1       7.599  -0.588  22.703  0.00  0.00    +0.172 C 
BRANCH   4   5
ATOM      5  O   UNL     1       6.297  -1.111  23.053  0.00  0.00    -0.387 OA
ATOM      6  H   UNL     1       6.013  -0.606  23.839  0.00  0.00    +0.210 HD
ENDBRANCH   4   5
BRANCH   4   7
ATOM      7  C   UNL     1       8.142   0.237  23.865  0.00  0.00    +0.206 C 
BRANCH   7   8
ATOM      8  O   UNL     1       8.361   1.563  23.405  0.00  0.00    -0.284 OA
BRANCH   8   9
ATOM      9  P   UNL     1       9.872   1.923  23.054  0.00  0.00    +0.472 P 
ATOM     10  O   UNL     1      10.446   3.155  23.677  0.00  0.00    -0.228 OA
BRANCH   9  11
ATOM     11  O   UNL     1       9.955   1.832  21.468  0.00  0.00    -0.303 OA
ATOM     12  H   UNL     1      10.668   1.228  21.196  0.00  0.00    +0.222 HD
ENDBRANCH   9  11
BRANCH   9  13
ATOM     13  O   UNL     1      10.683   0.613  23.465  0.00  0.00    -0.303 OA
ATOM     14  H   UNL     1      10.854   0.058  22.680  0.00  0.00    +0.222 HD
ENDBRANCH   9  13
ENDBRANCH   8   9
ENDBRANCH   7   8
ENDBRANCH   4   7
ENDBRANCH   1   4
BRANCH   1  15
ATOM     15  C   UNL     1       9.126  -2.465  23.600  0.00  0.00    +0.185 C 
BRANCH  15  16
ATOM     16  O   UNL     1      10.550  -2.580  23.430  0.00  0.00    -0.386 OA
ATOM     17  H   UNL     1      10.703  -3.255  22.740  0.00  0.00    +0.210 HD
ENDBRANCH  15  16
BRANCH  15  18
ATOM     18  C   UNL     1       8.510  -3.823  23.995  0.00  0.00    +0.254 C 
BRANCH  18  19
ATOM     19  C   UNL     1       9.258  -4.340  25.217  0.00  0.00    +0.336 C 
ATOM     20  O   UNL     1       8.942  -4.124  26.376  0.00  0.00    -0.248 OA
BRANCH  19  21
ATOM     21  O   UNL     1      10.294  -5.151  24.864  0.00  0.00    -0.479 OA
ATOM     22  H   UNL     1      10.752  -5.449  25.689  0.00  0.00    +0.295 HD
ENDBRANCH  19  21
ENDBRANCH  18  19
BRANCH  18  23
ATOM     23  O   UNL     1       7.111  -3.766  24.313  0.00  0.00    -0.378 OA
ATOM     24  H   UNL     1       6.708  -3.144  23.678  0.00  0.00    +0.211 HD
ENDBRANCH  18  23
ENDBRANCH  15  18
ENDBRANCH   1  15
TORSDOF 14
ENDMDL
MODEL 8
REMARK VINA RESULT:      -5.0      2.225      6.114
REMARK  Name = 
REMARK  14 active torsions:
REMARK  status: ('A' for Active; 'I' for Inactive)
REMARK    1  A    between atoms: O_1  and  C_2
REMARK    2  A    between atoms: C_2  and  C_4
REMARK    3  A    between atoms: C_2  and  C_10
REMARK    4  A    between atoms: C_4  and  O_5
REMARK    5  A    between atoms: O_5  and  P_6
REMARK    6  A    between atoms: P_6  and  O_7
REMARK    7  A    between atoms: P_6  and  O_8
REMARK    8  A    between atoms: C_10  and  O_12
REMARK    9  A    between atoms: C_10  and  C_13
REMARK   10  A    between atoms: C_13  and  O_15
REMARK   11  A    between atoms: C_13  and  C_16
REMARK   12  A    between atoms: C_16  and  O_18
REMARK   13  A    between atoms: C_16  and  C_19
REMARK   14  A    between atoms: C_19  and  O_20
REMARK                            x       y       z     vdW  Elec       q    Type
REMARK                         _______ _______ _______ _____ _____    ______ ____
ROOT
ATOM      1  C   UNL     1       9.021  -1.616  23.778  0.00  0.00    +0.177 C 
ENDROOT
BRANCH   1   2
ATOM      2  O   UNL     1      10.057  -2.609  23.863  0.00  0.00    -0.386 OA
ATOM      3  H   UNL     1       9.618  -3.401  24.239  0.00  0.00    +0.210 HD
ENDBRANCH   1   2
BRANCH   1   4
ATOM      4  C   UNL     1       7.724  -2.362  23.417  0.00  0.00    +0.172 C 
BRANCH   4   5
ATOM      5  O   UNL     1       8.024  -3.194  22.274  0.00  0.00    -0.387 OA
ATOM      6  H   UNL     1       7.667  -4.077  22.490  0.00  0.00    +0.210 HD
ENDBRANCH   4   5
BRANCH   4   7
ATOM      7  C   UNL     1       7.204  -3.232  24.555  0.00  0.00    +0.206 C 
BRANCH   7   8
ATOM      8  O   UNL     1       7.849  -4.496  24.480  0.00  0.00    -0.284 OA
BRANCH   8   9
ATOM      9  P   UNL     1       8.374  -5.077  25.868  0.00  0.00    +0.472 P 
ATOM     10  O   UNL     1       7.423  -5.910  26.666  0.00  0.00    -0.228 OA
BRANCH   9  11
ATOM     11  O   UNL     1       9.016  -3.828  26.616  0.00  0.00    -0.303 OA
ATOM     12  H   UNL     1       9.979  -3.938  26.702  0.00  0.00    +0.222 HD
ENDBRANCH   9  11
BRANCH   9  13
ATOM     13  O   UNL     1       9.689  -5.888  25.470  0.00  0.00    -0.303 OA
ATOM     14  H   UNL     1      10.326  -5.302  25.017  0.00  0.00    +0.222 HD
ENDBRANCH   9  13
ENDBRANCH   8   9
ENDBRANCH   7   8
ENDBRANCH   4   7
ENDBRANCH   1   4
BRANCH   1  15
ATOM     15  C   UNL     1       9.408  -0.520  22.759  0.00  0.00    +0.185 C 
BRANCH  15  16
ATOM     16  O   UNL     1       9.781  -1.113  21.503  0.00  0.00    -0.386 OA
ATOM     17  H   UNL     1       9.091  -1.766  21.278  0.00  0.00    +0.210 HD
ENDBRANCH  15  16
BRANCH  15  18
ATOM     18  C   UNL     1      10.493   0.464  23.244  0.00  0.00    +0.254 C 
BRANCH  18  19
ATOM     19  C   UNL     1      10.077   1.867  22.821  0.00  0.00    +0.336 C 
ATOM     20  O   UNL     1      10.029   2.836  23.560  0.00  0.00    -0.248 OA
BRANCH  19  21
ATOM     21  O   UNL     1       9.835   1.935  21.482  0.00  0.00    -0.479 OA
ATOM     22  H   UNL     1      10.231   1.136  21.053  0.00  0.00    +0.295 HD
ENDBRANCH  19  21
ENDBRANCH  18  19
BRANCH  18  23
ATOM     23  O   UNL     1      10.696   0.464  24.665  0.00  0.00    -0.378 OA
ATOM     24  H   UNL     1      10.551   1.381  24.967  0.00  0.00    +0.211 HD
ENDBRANCH  18  23
ENDBRANCH  15  18
ENDBRANCH   1  15
TORSDOF 14
ENDMDL
MODEL 9
REMARK VINA RESULT:      -5.0      1.505      2.479
REMARK  Name = 
REMARK  14 active torsions:
REMARK  status: ('A' for Active; 'I' for Inactive)
REMARK    1  A    between atoms: O_1  and  C_2
REMARK    2  A    between atoms: C_2  and  C_4
REMARK    3  A    between atoms: C_2  and  C_10
REMARK    4  A    between atoms: C_4  and  O_5
REMARK    5  A    between atoms: O_5  and  P_6
REMARK    6  A    between atoms: P_6  and  O_7
REMARK    7  A    between atoms: P_6  and  O_8
REMARK    8  A    between atoms: C_10  and  O_12
REMARK    9  A    between atoms: C_10  and  C_13
REMARK   10  A    between atoms: C_13  and  O_15
REMARK   11  A    between atoms: C_13  and  C_16
REMARK   12  A    between atoms: C_16  and  O_18
REMARK   13  A    between atoms: C_16  and  C_19
REMARK   14  A    between atoms: C_19  and  O_20
REMARK                            x       y       z     vdW  Elec       q    Type
REMARK                         _______ _______ _______ _____ _____    ______ ____
ROOT
ATOM      1  C   UNL     1       8.171  -1.602  24.821  0.00  0.00    +0.177 C 
ENDROOT
BRANCH   1   2
ATOM      2  O   UNL     1       7.918  -1.507  23.408  0.00  0.00    -0.386 OA
ATOM      3  H   UNL     1       7.478  -0.639  23.288  0.00  0.00    +0.210 HD
ENDBRANCH   1   2
BRANCH   1   4
ATOM      4  C   UNL     1       8.628  -0.207  25.282  0.00  0.00    +0.172 C 
BRANCH   4   5
ATOM      5  O   UNL     1       9.225  -0.373  26.588  0.00  0.00    -0.387 OA
ATOM      6  H   UNL     1       9.598   0.500  26.819  0.00  0.00    +0.210 HD
ENDBRANCH   4   5
BRANCH   4   7
ATOM      7  C   UNL     1       9.642   0.427  24.337  0.00  0.00    +0.206 C 
BRANCH   7   8
ATOM      8  O   UNL     1       8.945   1.286  23.446  0.00  0.00    -0.284 OA
BRANCH   8   9
ATOM      9  P   UNL     1       9.388   1.189  21.919  0.00  0.00    +0.472 P 
ATOM     10  O   UNL     1       9.796  -0.156  21.408  0.00  0.00    -0.228 OA
BRANCH   9  11
ATOM     11  O   UNL     1      10.440   2.366  21.724  0.00  0.00    -0.303 OA
ATOM     12  H   UNL     1      10.051   3.220  21.982  0.00  0.00    +0.222 HD
ENDBRANCH   9  11
BRANCH   9  13
ATOM     13  O   UNL     1       8.139   1.777  21.120  0.00  0.00    -0.303 OA
ATOM     14  H   UNL     1       7.339   1.764  21.681  0.00  0.00    +0.222 HD
ENDBRANCH   9  13
ENDBRANCH   8   9
ENDBRANCH   7   8
ENDBRANCH   4   7
ENDBRANCH   1   4
BRANCH   1  15
ATOM     15  C   UNL     1       9.202  -2.717  25.108  0.00  0.00    +0.185 C 
BRANCH  15  16
ATOM     16  O   UNL     1       9.966  -3.011  23.925  0.00  0.00    -0.386 OA
ATOM     17  H   UNL     1      10.875  -2.691  24.084  0.00  0.00    +0.210 HD
ENDBRANCH  15  16
BRANCH  15  18
ATOM     18  C   UNL     1       8.613  -4.008  25.714  0.00  0.00    +0.254 C 
BRANCH  18  19
ATOM     19  C   UNL     1       9.013  -5.173  24.819  0.00  0.00    +0.336 C 
ATOM     20  O   UNL     1       8.460  -5.477  23.775  0.00  0.00    -0.248 OA
BRANCH  19  21
ATOM     21  O   UNL     1      10.128  -5.801  25.284  0.00  0.00    -0.479 OA
ATOM     22  H   UNL     1      10.870  -5.146  25.305  0.00  0.00    +0.295 HD
ENDBRANCH  19  21
ENDBRANCH  18  19
BRANCH  18  23
ATOM     23  O   UNL     1       9.060  -4.290  27.049  0.00  0.00    -0.378 OA
ATOM     24  H   UNL     1       8.311  -4.715  27.508  0.00  0.00    +0.211 HD
ENDBRANCH  18  23
ENDBRANCH  15  18
ENDBRANCH   1  15
TORSDOF 14
ENDMDL
