MODEL 1
REMARK VINA RESULT:      -6.8      0.000      0.000
REMARK  Name = 
REMARK  3 active torsions:
REMARK  status: ('A' for Active; 'I' for Inactive)
REMARK    1  A    between atoms: C_7  and  O_8
REMARK    2  A    between atoms: C_11  and  C_12
REMARK    3  A    between atoms: C_18  and  N_20
REMARK                            x       y       z     vdW  Elec       q    Type
REMARK                         _______ _______ _______ _____ _____    ______ ____
ROOT
ATOM      1  C   UNL     1       7.575   3.555  24.308  0.00  0.00    +0.011 C 
ATOM      2  C   UNL     1       8.138   2.816  23.083  0.00  0.00    +0.064 C 
ATOM      3  C   UNL     1       9.656   2.436  23.242  0.00  0.00    +0.009 C 
ATOM      4  C   UNL     1      10.121   1.774  21.913  0.00  0.00    +0.018 C 
ATOM      5  C   UNL     1      10.030   1.498  24.417  0.00  0.00    +0.013 C 
ATOM      6  C   UNL     1       9.163   0.263  24.640  0.00  0.00    +0.001 C 
ATOM      7  C   UNL     1       8.285   0.385  25.881  0.00  0.00    +0.000 C 
ATOM      8  C   UNL     1       7.116   1.368  25.770  0.00  0.00    +0.000 C 
ATOM      9  C   UNL     1      10.434   3.750  23.507  0.00  0.00    -0.033 A 
ATOM     10  C   UNL     1       9.797   4.871  24.082  0.00  0.00    -0.043 A 
ATOM     11  C   UNL     1      10.538   6.052  24.298  0.00  0.00    +0.007 A 
ATOM     12  C   UNL     1      11.897   6.112  24.005  0.00  0.00    +0.045 A 
ATOM     13  C   UNL     1      12.531   4.992  23.493  0.00  0.00    +0.117 A 
ATOM     14  C   UNL     1      11.819   3.823  23.250  0.00  0.00    +0.050 A 
ATOM     15  C   UNL     1       7.505   2.848  25.691  0.00  0.00    +0.005 C 
ATOM     16  C   UNL     1       8.324   4.900  24.435  0.00  0.00    +0.040 C 
ENDROOT
BRANCH   2  17
ATOM     17  N   UNL     1       7.193   1.775  22.644  0.00  0.00    -0.326 NA
ATOM     18  H   UNL     1       7.295   1.655  21.635  0.00  0.00    +0.119 HD
ATOM     19  H   UNL     1       7.435   0.869  23.034  0.00  0.00    +0.119 HD
ENDBRANCH   2  17
BRANCH  13  20
ATOM     20  O   UNL     1      13.869   4.982  23.223  0.00  0.00    -0.507 OA
ATOM     21  H   UNL     1      14.029   5.563  22.460  0.00  0.00    +0.292 HD
ENDBRANCH  13  20
TORSDOF 2
ENDMDL
MODEL 2
REMARK VINA RESULT:      -6.4      3.962      6.961
REMARK  Name = 
REMARK  3 active torsions:
REMARK  status: ('A' for Active; 'I' for Inactive)
REMARK    1  A    between atoms: C_7  and  O_8
REMARK    2  A    between atoms: C_11  and  C_12
REMARK    3  A    between atoms: C_18  and  N_20
REMARK                            x       y       z     vdW  Elec       q    Type
REMARK                         _______ _______ _______ _____ _____    ______ ____
ROOT
ATOM      1  C   UNL     1       7.935  -0.754  22.361  0.00  0.00    +0.011 C 
ATOM      2  C   UNL     1       7.391  -0.252  23.708  0.00  0.00    +0.064 C 
ATOM      3  C   UNL     1       8.269  -0.708  24.930  0.00  0.00    +0.009 C 
ATOM      4  C   UNL     1       7.570  -0.211  26.228  0.00  0.00    +0.018 C 
ATOM      5  C   UNL     1       9.746  -0.239  24.954  0.00  0.00    +0.013 C 
ATOM      6  C   UNL     1      10.028   1.226  24.635  0.00  0.00    +0.001 C 
ATOM      7  C   UNL     1      10.680   1.408  23.269  0.00  0.00    +0.000 C 
ATOM      8  C   UNL     1       9.767   1.166  22.063  0.00  0.00    +0.000 C 
ATOM      9  C   UNL     1       8.334  -2.257  24.898  0.00  0.00    -0.033 A 
ATOM     10  C   UNL     1       8.164  -2.967  23.690  0.00  0.00    -0.043 A 
ATOM     11  C   UNL     1       8.222  -4.377  23.703  0.00  0.00    +0.007 A 
ATOM     12  C   UNL     1       8.497  -5.075  24.876  0.00  0.00    +0.045 A 
ATOM     13  C   UNL     1       8.719  -4.371  26.048  0.00  0.00    +0.117 A 
ATOM     14  C   UNL     1       8.647  -2.982  26.066  0.00  0.00    +0.050 A 
ATOM     15  C   UNL     1       9.327  -0.286  21.849  0.00  0.00    +0.005 C 
ATOM     16  C   UNL     1       7.862  -2.297  22.365  0.00  0.00    +0.040 C 
ENDROOT
BRANCH   2  17
ATOM     17  N   UNL     1       7.015   1.168  23.602  0.00  0.00    -0.326 NA
ATOM     18  H   UNL     1       6.002   1.240  23.714  0.00  0.00    +0.119 HD
ATOM     19  H   UNL     1       7.396   1.709  24.371  0.00  0.00    +0.119 HD
ENDBRANCH   2  17
BRANCH  13  20
ATOM     20  O   UNL     1       9.030  -5.000  27.218  0.00  0.00    -0.507 OA
ATOM     21  H   UNL     1       9.274  -5.918  27.014  0.00  0.00    +0.292 HD
ENDBRANCH  13  20
TORSDOF 2
ENDMDL
MODEL 3
REMARK VINA RESULT:      -6.3      3.520      5.830
REMARK  Name = 
REMARK  3 active torsions:
REMARK  status: ('A' for Active; 'I' for Inactive)
REMARK    1  A    between atoms: C_7  and  O_8
REMARK    2  A    between atoms: C_11  and  C_12
REMARK    3  A    between atoms: C_18  and  N_20
REMARK                            x       y       z     vdW  Elec       q    Type
REMARK                         _______ _______ _______ _____ _____    ______ ____
ROOT
ATOM      1  C   UNL     1      10.034   1.605  24.160  0.00  0.00    +0.011 C 
ATOM      2  C   UNL     1      10.091   1.209  22.676  0.00  0.00    +0.064 C 
ATOM      3  C   UNL     1       8.849   0.360  22.222  0.00  0.00    +0.009 C 
ATOM      4  C   UNL     1       9.068  -0.044  20.735  0.00  0.00    +0.018 C 
ATOM      5  C   UNL     1       7.454   1.022  22.352  0.00  0.00    +0.013 C 
ATOM      6  C   UNL     1       7.304   2.458  21.860  0.00  0.00    +0.001 C 
ATOM      7  C   UNL     1       7.156   3.453  23.007  0.00  0.00    +0.000 C 
ATOM      8  C   UNL     1       8.422   3.709  23.829  0.00  0.00    +0.000 C 
ATOM      9  C   UNL     1       8.790  -0.894  23.131  0.00  0.00    -0.033 A 
ATOM     10  C   UNL     1       9.357  -0.882  24.424  0.00  0.00    -0.043 A 
ATOM     11  C   UNL     1       9.291  -2.047  25.218  0.00  0.00    +0.007 A 
ATOM     12  C   UNL     1       8.630  -3.187  24.770  0.00  0.00    +0.045 A 
ATOM     13  C   UNL     1       8.027  -3.175  23.523  0.00  0.00    +0.117 A 
ATOM     14  C   UNL     1       8.096  -2.048  22.712  0.00  0.00    +0.050 A 
ATOM     15  C   UNL     1       8.902   2.532  24.686  0.00  0.00    +0.005 C 
ATOM     16  C   UNL     1      10.094   0.309  24.999  0.00  0.00    +0.040 C 
ENDROOT
BRANCH   2  17
ATOM     17  N   UNL     1      10.489   2.369  21.860  0.00  0.00    -0.326 NA
ATOM     18  H   UNL     1      10.165   2.214  20.904  0.00  0.00    +0.119 HD
ATOM     19  H   UNL     1      10.008   3.212  22.158  0.00  0.00    +0.119 HD
ENDBRANCH   2  17
BRANCH  13  20
ATOM     20  O   UNL     1       7.334  -4.251  23.048  0.00  0.00    -0.507 OA
ATOM     21  H   UNL     1       6.395  -4.128  23.266  0.00  0.00    +0.292 HD
ENDBRANCH  13  20
TORSDOF 2
ENDMDL
MODEL 4
REMARK VINA RESULT:      -6.2      3.944      6.212
REMARK  Name = 
REMARK  3 active torsions:
REMARK  status: ('A' for Active; 'I' for Inactive)
REMARK    1  A    between atoms: C_7  and  O_8
REMARK    2  A    between atoms: C_11  and  C_12
REMARK    3  A    between atoms: C_18  and  N_20
REMARK                            x       y       z     vdW  Elec       q    Type
REMARK                         _______ _______ _______ _____ _____    ______ ____
ROOT
ATOM      1  C   UNL     1       6.942   0.712  24.245  0.00  0.00    +0.011 C 
ATOM      2  C   UNL     1       8.355   0.906  24.817  0.00  0.00    +0.064 C 
ATOM      3  C   UNL     1       9.401  -0.102  24.216  0.00  0.00    +0.009 C 
ATOM      4  C   UNL     1      10.761   0.141  24.932  0.00  0.00    +0.018 C 
ATOM      5  C   UNL     1       9.634  -0.051  22.685  0.00  0.00    +0.013 C 
ATOM      6  C   UNL     1       9.813   1.321  22.043  0.00  0.00    +0.001 C 
ATOM      7  C   UNL     1       8.604   1.734  21.209  0.00  0.00    +0.000 C 
ATOM      8  C   UNL     1       7.349   2.105  22.004  0.00  0.00    +0.000 C 
ATOM      9  C   UNL     1       8.877  -1.534  24.500  0.00  0.00    -0.033 A 
ATOM     10  C   UNL     1       7.499  -1.781  24.683  0.00  0.00    -0.043 A 
ATOM     11  C   UNL     1       7.062  -3.096  24.948  0.00  0.00    +0.007 A 
ATOM     12  C   UNL     1       7.960  -4.160  24.979  0.00  0.00    +0.045 A 
ATOM     13  C   UNL     1       9.304  -3.921  24.743  0.00  0.00    +0.117 A 
ATOM     14  C   UNL     1       9.762  -2.631  24.501  0.00  0.00    +0.050 A 
ATOM     15  C   UNL     1       6.663   0.945  22.733  0.00  0.00    +0.005 C 
ATOM     16  C   UNL     1       6.448  -0.690  24.667  0.00  0.00    +0.040 C 
ENDROOT
BRANCH   2  17
ATOM     17  N   UNL     1       8.694   2.339  24.846  0.00  0.00    -0.326 NA
ATOM     18  H   UNL     1       9.422   2.510  24.150  0.00  0.00    +0.119 HD
ATOM     19  H   UNL     1       7.912   2.910  24.542  0.00  0.00    +0.119 HD
ENDBRANCH   2  17
BRANCH  13  20
ATOM     20  O   UNL     1      10.222  -4.930  24.724  0.00  0.00    -0.507 OA
ATOM     21  H   UNL     1      11.094  -4.551  24.924  0.00  0.00    +0.292 HD
ENDBRANCH  13  20
TORSDOF 2
ENDMDL
MODEL 5
REMARK VINA RESULT:      -6.2      3.975      6.451
REMARK  Name = 
REMARK  3 active torsions:
REMARK  status: ('A' for Active; 'I' for Inactive)
REMARK    1  A    between atoms: C_7  and  O_8
REMARK    2  A    between atoms: C_11  and  C_12
REMARK    3  A    between atoms: C_18  and  N_20
REMARK                            x       y       z     vdW  Elec       q    Type
REMARK                         _______ _______ _______ _____ _____    ______ ____
ROOT
ATOM      1  C   UNL     1       8.561   0.472  25.377  0.00  0.00    +0.011 C 
ATOM      2  C   UNL     1       9.598  -0.331  24.576  0.00  0.00    +0.064 C 
ATOM      3  C   UNL     1       9.104  -0.693  23.127  0.00  0.00    +0.009 C 
ATOM      4  C   UNL     1      10.201  -1.570  22.457  0.00  0.00    +0.018 C 
ATOM      5  C   UNL     1       8.767   0.486  22.180  0.00  0.00    +0.013 C 
ATOM      6  C   UNL     1       9.758   1.643  22.112  0.00  0.00    +0.001 C 
ATOM      7  C   UNL     1       9.229   2.902  22.793  0.00  0.00    +0.000 C 
ATOM      8  C   UNL     1       9.167   2.849  24.322  0.00  0.00    +0.000 C 
ATOM      9  C   UNL     1       7.780  -1.486  23.277  0.00  0.00    -0.033 A 
ATOM     10  C   UNL     1       6.961  -1.325  24.416  0.00  0.00    -0.043 A 
ATOM     11  C   UNL     1       5.768  -2.071  24.519  0.00  0.00    +0.007 A 
ATOM     12  C   UNL     1       5.358  -2.921  23.495  0.00  0.00    +0.045 A 
ATOM     13  C   UNL     1       6.138  -3.032  22.355  0.00  0.00    +0.117 A 
ATOM     14  C   UNL     1       7.329  -2.324  22.238  0.00  0.00    +0.050 A 
ATOM     15  C   UNL     1       8.126   1.889  24.908  0.00  0.00    +0.005 C 
ATOM     16  C   UNL     1       7.320  -0.425  25.580  0.00  0.00    +0.040 C 
ENDROOT
BRANCH   2  17
ATOM     17  N   UNL     1      10.933   0.270  24.735  0.00  0.00    -0.326 NA
ATOM     18  H   UNL     1      11.053   0.530  25.715  0.00  0.00    +0.119 HD
ATOM     19  H   UNL     1      11.667  -0.410  24.560  0.00  0.00    +0.119 HD
ENDBRANCH   2  17
BRANCH  13  20
ATOM     20  O   UNL     1       5.768  -3.820  21.304  0.00  0.00    -0.507 OA
ATOM     21  H   UNL     1       6.446  -3.743  20.613  0.00  0.00    +0.292 HD
ENDBRANCH  13  20
TORSDOF 2
ENDMDL
MODEL 6
REMARK VINA RESULT:      -6.2      6.888      9.899
REMARK  Name = 
REMARK  3 active torsions:
REMARK  status: ('A' for Active; 'I' for Inactive)
REMARK    1  A    between atoms: C_7  and  O_8
REMARK    2  A    between atoms: C_11  and  C_12
REMARK    3  A    between atoms: C_18  and  N_20
REMARK                            x       y       z     vdW  Elec       q    Type
REMARK                         _______ _______ _______ _____ _____    ______ ____
ROOT
ATOM      1  C   UNL     1       7.844  -3.707  26.022  0.00  0.00    +0.011 C 
ATOM      2  C   UNL     1       8.196  -4.326  24.660  0.00  0.00    +0.064 C 
ATOM      3  C   UNL     1       6.932  -4.588  23.762  0.00  0.00    +0.009 C 
ATOM      4  C   UNL     1       7.413  -5.287  22.458  0.00  0.00    +0.018 C 
ATOM      5  C   UNL     1       6.073  -3.358  23.375  0.00  0.00    +0.013 C 
ATOM      6  C   UNL     1       6.803  -2.112  22.886  0.00  0.00    +0.001 C 
ATOM      7  C   UNL     1       6.775  -0.982  23.911  0.00  0.00    +0.000 C 
ATOM      8  C   UNL     1       7.652  -1.191  25.149  0.00  0.00    +0.000 C 
ATOM      9  C   UNL     1       5.981  -5.513  24.565  0.00  0.00    -0.033 A 
ATOM     10  C   UNL     1       6.015  -5.543  25.976  0.00  0.00    -0.043 A 
ATOM     11  C   UNL     1       5.140  -6.405  26.670  0.00  0.00    +0.007 A 
ATOM     12  C   UNL     1       4.207  -7.184  25.990  0.00  0.00    +0.045 A 
ATOM     13  C   UNL     1       4.139  -7.108  24.608  0.00  0.00    +0.117 A 
ATOM     14  C   UNL     1       5.006  -6.283  23.900  0.00  0.00    +0.050 A 
ATOM     15  C   UNL     1       7.192  -2.298  26.104  0.00  0.00    +0.005 C 
ATOM     16  C   UNL     1       6.992  -4.733  26.803  0.00  0.00    +0.040 C 
ENDROOT
BRANCH   2  17
ATOM     17  N   UNL     1       9.346  -3.621  24.069  0.00  0.00    -0.326 NA
ATOM     18  H   UNL     1      10.013  -3.414  24.814  0.00  0.00    +0.119 HD
ATOM     19  H   UNL     1       9.857  -4.220  23.429  0.00  0.00    +0.119 HD
ENDBRANCH   2  17
BRANCH  13  20
ATOM     20  O   UNL     1       3.221  -7.819  23.892  0.00  0.00    -0.507 OA
ATOM     21  H   UNL     1       3.693  -8.334  23.218  0.00  0.00    +0.292 HD
ENDBRANCH  13  20
TORSDOF 2
ENDMDL
MODEL 7
REMARK VINA RESULT:      -6.2      4.506      7.073
REMARK  Name = 
REMARK  3 active torsions:
REMARK  status: ('A' for Active; 'I' for Inactive)
REMARK    1  A    between atoms: C_7  and  O_8
REMARK    2  A    between atoms: C_11  and  C_12
REMARK    3  A    between atoms: C_18  and  N_20
REMARK                            x       y       z     vdW  Elec       q    Type
REMARK                         _______ _______ _______ _____ _____    ______ ____
ROOT
ATOM      1  C   UNL     1       7.164   0.194  24.463  0.00  0.00    +0.011 C 
ATOM      2  C   UNL     1       8.479  -0.586  24.620  0.00  0.00    +0.064 C 
ATOM      3  C   UNL     1       8.810  -1.485  23.373  0.00  0.00    +0.009 C 
ATOM      4  C   UNL     1      10.110  -2.279  23.692  0.00  0.00    +0.018 C 
ATOM      5  C   UNL     1       8.990  -0.768  22.012  0.00  0.00    +0.013 C 
ATOM      6  C   UNL     1       9.854   0.489  21.984  0.00  0.00    +0.001 C 
ATOM      7  C   UNL     1       9.029   1.758  21.797  0.00  0.00    +0.000 C 
ATOM      8  C   UNL     1       8.187   2.183  23.004  0.00  0.00    +0.000 C 
ATOM      9  C   UNL     1       7.612  -2.448  23.170  0.00  0.00    -0.033 A 
ATOM     10  C   UNL     1       6.320  -2.110  23.628  0.00  0.00    -0.043 A 
ATOM     11  C   UNL     1       5.258  -3.017  23.432  0.00  0.00    +0.007 A 
ATOM     12  C   UNL     1       5.450  -4.214  22.748  0.00  0.00    +0.045 A 
ATOM     13  C   UNL     1       6.707  -4.517  22.251  0.00  0.00    +0.117 A 
ATOM     14  C   UNL     1       7.776  -3.649  22.450  0.00  0.00    +0.050 A 
ATOM     15  C   UNL     1       7.010   1.263  23.345  0.00  0.00    +0.005 C 
ATOM     16  C   UNL     1       6.012  -0.832  24.381  0.00  0.00    +0.040 C 
ENDROOT
BRANCH   2  17
ATOM     17  N   UNL     1       9.531   0.301  25.147  0.00  0.00    -0.326 NA
ATOM     18  H   UNL     1       9.286   0.554  26.106  0.00  0.00    +0.119 HD
ATOM     19  H   UNL     1      10.417  -0.187  25.231  0.00  0.00    +0.119 HD
ENDBRANCH   2  17
BRANCH  13  20
ATOM     20  O   UNL     1       6.946  -5.657  21.541  0.00  0.00    -0.507 OA
ATOM     21  H   UNL     1       7.128  -6.375  22.170  0.00  0.00    +0.292 HD
ENDBRANCH  13  20
TORSDOF 2
ENDMDL
MODEL 8
REMARK VINA RESULT:      -6.1      4.414      6.443
REMARK  Name = 
REMARK  3 active torsions:
REMARK  status: ('A' for Active; 'I' for Inactive)
REMARK    1  A    between atoms: C_7  and  O_8
REMARK    2  A    between atoms: C_11  and  C_12
REMARK    3  A    between atoms: C_18  and  N_20
REMARK                            x       y       z     vdW  Elec       q    Type
REMARK                         _______ _______ _______ _____ _____    ______ ____
ROOT
ATOM      1  C   UNL     1       8.449  -3.652  24.823  0.00  0.00    +0.011 C 
ATOM      2  C   UNL     1       7.526  -2.564  25.394  0.00  0.00    +0.064 C 
ATOM      3  C   UNL     1       6.849  -1.688  24.276  0.00  0.00    +0.009 C 
ATOM      4  C   UNL     1       6.014  -0.581  24.982  0.00  0.00    +0.018 C 
ATOM      5  C   UNL     1       5.938  -2.421  23.260  0.00  0.00    +0.013 C 
ATOM      6  C   UNL     1       4.930  -3.425  23.809  0.00  0.00    +0.001 C 
ATOM      7  C   UNL     1       5.319  -4.867  23.500  0.00  0.00    +0.000 C 
ATOM      8  C   UNL     1       6.514  -5.412  24.287  0.00  0.00    +0.000 C 
ATOM      9  C   UNL     1       7.987  -1.065  23.428  0.00  0.00    -0.033 A 
ATOM     10  C   UNL     1       9.253  -1.683  23.342  0.00  0.00    -0.043 A 
ATOM     11  C   UNL     1      10.266  -1.080  22.567  0.00  0.00    +0.007 A 
ATOM     12  C   UNL     1      10.021   0.084  21.842  0.00  0.00    +0.045 A 
ATOM     13  C   UNL     1       8.760   0.656  21.885  0.00  0.00    +0.117 A 
ATOM     14  C   UNL     1       7.751   0.093  22.659  0.00  0.00    +0.050 A 
ATOM     15  C   UNL     1       7.872  -4.792  23.938  0.00  0.00    +0.005 C 
ATOM     16  C   UNL     1       9.614  -2.949  24.092  0.00  0.00    +0.040 C 
ENDROOT
BRANCH   2  17
ATOM     17  N   UNL     1       6.677  -3.129  26.456  0.00  0.00    -0.326 NA
ATOM     18  H   UNL     1       5.730  -3.233  26.088  0.00  0.00    +0.119 HD
ATOM     19  H   UNL     1       6.963  -4.074  26.693  0.00  0.00    +0.119 HD
ENDBRANCH   2  17
BRANCH  13  20
ATOM     20  O   UNL     1       8.453   1.775  21.166  0.00  0.00    -0.507 OA
ATOM     21  H   UNL     1       9.002   2.506  21.492  0.00  0.00    +0.292 HD
ENDBRANCH  13  20
TORSDOF 2
ENDMDL
MODEL 9
REMARK VINA RESULT:      -6.1      3.460      5.381
REMARK  Name = 
REMARK  3 active torsions:
REMARK  status: ('A' for Active; 'I' for Inactive)
REMARK    1  A    between atoms: C_7  and  O_8
REMARK    2  A    between atoms: C_11  and  C_12
REMARK    3  A    between atoms: C_18  and  N_20
REMARK                            x       y       z     vdW  Elec       q    Type
REMARK                         _______ _______ _______ _____ _____    ______ ____
ROOT
ATOM      1  C   UNL     1       8.084  -2.188  26.332  0.00  0.00    +0.011 C 
ATOM      2  C   UNL     1       6.985  -1.922  25.292  0.00  0.00    +0.064 C 
ATOM      3  C   UNL     1       7.551  -1.748  23.835  0.00  0.00    +0.009 C 
ATOM      4  C   UNL     1       6.356  -1.404  22.899  0.00  0.00    +0.018 C 
ATOM      5  C   UNL     1       8.321  -2.948  23.229  0.00  0.00    +0.013 C 
ATOM      6  C   UNL     1       7.704  -4.334  23.380  0.00  0.00    +0.001 C 
ATOM      7  C   UNL     1       8.461  -5.201  24.381  0.00  0.00    +0.000 C 
ATOM      8  C   UNL     1       8.300  -4.806  25.852  0.00  0.00    +0.000 C 
ATOM      9  C   UNL     1       8.574  -0.585  23.874  0.00  0.00    -0.033 A 
ATOM     10  C   UNL     1       9.245  -0.246  25.069  0.00  0.00    -0.043 A 
ATOM     11  C   UNL     1      10.163   0.826  25.066  0.00  0.00    +0.007 A 
ATOM     12  C   UNL     1      10.458   1.518  23.894  0.00  0.00    +0.045 A 
ATOM     13  C   UNL     1       9.838   1.145  22.713  0.00  0.00    +0.117 A 
ATOM     14  C   UNL     1       8.914   0.107  22.693  0.00  0.00    +0.050 A 
ATOM     15  C   UNL     1       8.949  -3.477  26.253  0.00  0.00    +0.005 C 
ATOM     16  C   UNL     1       8.993  -0.940  26.391  0.00  0.00    +0.040 C 
ENDROOT
BRANCH   2  17
ATOM     17  N   UNL     1       5.856  -2.844  25.503  0.00  0.00    -0.326 NA
ATOM     18  H   UNL     1       6.109  -3.493  26.251  0.00  0.00    +0.119 HD
ATOM     19  H   UNL     1       5.040  -2.354  25.857  0.00  0.00    +0.119 HD
ENDBRANCH   2  17
BRANCH  13  20
ATOM     20  O   UNL     1      10.117   1.763  21.528  0.00  0.00    -0.507 OA
ATOM     21  H   UNL     1      10.554   2.609  21.721  0.00  0.00    +0.292 HD
ENDBRANCH  13  20
TORSDOF 2
ENDMDL
