MODEL 1
REMARK VINA RESULT:      -7.0      0.000      0.000
REMARK  Name = 
REMARK  7 active torsions:
REMARK  status: ('A' for Active; 'I' for Inactive)
REMARK    1  A    between atoms: C_2  and  C_17
REMARK    2  A    between atoms: C_7  and  C_9
REMARK    3  A    between atoms: C_9  and  N_10
REMARK    4  A    between atoms: N_10  and  C_11
REMARK    5  A    between atoms: N_19  and  C_20
REMARK    6  A    between atoms: C_20  and  C_21
REMARK    7  A    between atoms: C_24  and  C_27
REMARK                            x       y       z     vdW  Elec       q    Type
REMARK                         _______ _______ _______ _____ _____    ______ ____
ROOT
ATOM      1  C   UNL     1       7.915  -2.739  23.562  0.00  0.00    +0.234 C 
ATOM      2  N   UNL     1       9.267  -2.506  23.675  0.00  0.00    -0.310 N 
ATOM      3  H   UNL     1       9.739  -2.738  24.541  0.00  0.00    +0.149 HD
ATOM      4  O   UNL     1       7.284  -2.456  22.547  0.00  0.00    -0.274 OA
ENDROOT
BRANCH   1   5
ATOM      5  C   UNL     1       7.226  -3.366  24.794  0.00  0.00    +0.162 C 
ATOM      6  N   UNL     1       5.759  -3.301  24.768  0.00  0.00    -0.289 N 
ATOM      7  C   UNL     1       4.951  -2.290  25.251  0.00  0.00    +0.230 C 
ATOM      8  O   UNL     1       3.724  -2.422  25.288  0.00  0.00    -0.274 OA
ATOM      9  C   UNL     1       5.183  -4.595  24.432  0.00  0.00    +0.108 C 
ATOM     10  C   UNL     1       6.365  -5.488  24.089  0.00  0.00    +0.021 C 
ATOM     11  C   UNL     1       7.519  -4.866  24.866  0.00  0.00    +0.033 C 
BRANCH   7  12
ATOM     12  C   UNL     1       5.614  -0.977  25.695  0.00  0.00    +0.178 C 
BRANCH  12  13
ATOM     13  N   UNL     1       5.444   0.098  24.701  0.00  0.00    -0.305 NA
ATOM     14  H   UNL     1       4.943   0.860  25.167  0.00  0.00    +0.123 HD
BRANCH  13  15
ATOM     15  C   UNL     1       6.696   0.656  24.157  0.00  0.00    +0.054 C 
ATOM     16  C   UNL     1       7.326   1.561  25.235  0.00  0.00    +0.019 C 
ATOM     17  C   UNL     1       6.520   2.840  25.476  0.00  0.00    +0.002 C 
ATOM     18  C   UNL     1       6.274   3.613  24.182  0.00  0.00    +0.000 C 
ATOM     19  C   UNL     1       5.683   2.732  23.085  0.00  0.00    +0.002 C 
ATOM     20  C   UNL     1       6.525   1.477  22.867  0.00  0.00    +0.019 C 
ENDBRANCH  13  15
ENDBRANCH  12  13
ENDBRANCH   7  12
ENDBRANCH   1   5
BRANCH   2  21
ATOM     21  C   UNL     1       9.996  -1.863  22.607  0.00  0.00    +0.139 C 
BRANCH  21  22
ATOM     22  C   UNL     1      10.117  -0.380  22.834  0.00  0.00    -0.030 A 
ATOM     23  C   UNL     1      10.572   0.121  24.062  0.00  0.00    +0.006 A 
ATOM     24  C   UNL     1      10.734   1.497  24.254  0.00  0.00    +0.016 A 
ATOM     25  C   UNL     1      10.449   2.388  23.214  0.00  0.00    +0.065 A 
ATOM     26  C   UNL     1       9.968   1.898  21.995  0.00  0.00    +0.016 A 
ATOM     27  C   UNL     1       9.810   0.521  21.806  0.00  0.00    +0.006 A 
BRANCH  25  28
ATOM     28  C   UNL     1      10.676   3.848  23.404  0.00  0.00    +0.308 C 
ATOM     29  N   UNL     1       9.806   4.630  23.958  0.00  0.00    -0.099 NA
ATOM     30  H   UNL     1       8.944   4.128  24.191  0.00  0.00    +0.363 HD
ATOM     31  N   UNL     1      11.834   4.433  22.989  0.00  0.00    -0.247 N 
ATOM     32  H   UNL     1      11.908   5.375  23.358  0.00  0.00    +0.288 HD
ATOM     33  H   UNL     1      12.681   3.894  23.134  0.00  0.00    +0.288 HD
ENDBRANCH  25  28
ENDBRANCH  21  22
ENDBRANCH   2  21
TORSDOF 7
ENDMDL
MODEL 2
REMARK VINA RESULT:      -6.9      2.798      7.661
REMARK  Name = 
REMARK  7 active torsions:
REMARK  status: ('A' for Active; 'I' for Inactive)
REMARK    1  A    between atoms: C_2  and  C_17
REMARK    2  A    between atoms: C_7  and  C_9
REMARK    3  A    between atoms: C_9  and  N_10
REMARK    4  A    between atoms: N_10  and  C_11
REMARK    5  A    between atoms: N_19  and  C_20
REMARK    6  A    between atoms: C_20  and  C_21
REMARK    7  A    between atoms: C_24  and  C_27
REMARK                            x       y       z     vdW  Elec       q    Type
REMARK                         _______ _______ _______ _____ _____    ______ ____
ROOT
ATOM      1  C   UNL     1       8.820  -0.111  25.426  0.00  0.00    +0.234 C 
ATOM      2  N   UNL     1       8.335  -1.311  25.893  0.00  0.00    -0.310 N 
ATOM      3  H   UNL     1       8.778  -2.173  25.599  0.00  0.00    +0.149 HD
ATOM      4  O   UNL     1       8.309   0.965  25.728  0.00  0.00    -0.274 OA
ENDROOT
BRANCH   1   5
ATOM      5  C   UNL     1      10.042  -0.190  24.484  0.00  0.00    +0.162 C 
ATOM      6  N   UNL     1       9.706  -0.176  23.054  0.00  0.00    -0.289 N 
ATOM      7  C   UNL     1       9.435  -1.259  22.241  0.00  0.00    +0.230 C 
ATOM      8  O   UNL     1       9.299  -1.119  21.022  0.00  0.00    -0.274 OA
ATOM      9  C   UNL     1       9.984   1.125  22.463  0.00  0.00    +0.108 C 
ATOM     10  C   UNL     1      10.384   2.021  23.625  0.00  0.00    +0.021 C 
ATOM     11  C   UNL     1      10.931   1.043  24.657  0.00  0.00    +0.033 C 
BRANCH   7  12
ATOM     12  C   UNL     1       9.253  -2.635  22.899  0.00  0.00    +0.178 C 
BRANCH  12  13
ATOM     13  N   UNL     1       7.843  -2.920  23.218  0.00  0.00    -0.305 NA
ATOM     14  H   UNL     1       7.402  -2.026  23.455  0.00  0.00    +0.123 HD
BRANCH  13  15
ATOM     15  C   UNL     1       7.060  -3.525  22.123  0.00  0.00    +0.054 C 
ATOM     16  C   UNL     1       5.613  -3.004  22.225  0.00  0.00    +0.019 C 
ATOM     17  C   UNL     1       4.872  -3.552  23.447  0.00  0.00    +0.002 C 
ATOM     18  C   UNL     1       4.914  -5.077  23.504  0.00  0.00    +0.000 C 
ATOM     19  C   UNL     1       6.333  -5.623  23.371  0.00  0.00    +0.002 C 
ATOM     20  C   UNL     1       7.029  -5.063  22.132  0.00  0.00    +0.019 C 
ENDBRANCH  13  15
ENDBRANCH  12  13
ENDBRANCH   7  12
ENDBRANCH   1   5
BRANCH   2  21
ATOM     21  C   UNL     1       7.156  -1.355  26.727  0.00  0.00    +0.139 C 
BRANCH  21  22
ATOM     22  C   UNL     1       6.599  -2.751  26.824  0.00  0.00    -0.030 A 
ATOM     23  C   UNL     1       7.438  -3.867  26.691  0.00  0.00    +0.006 A 
ATOM     24  C   UNL     1       6.928  -5.161  26.834  0.00  0.00    +0.016 A 
ATOM     25  C   UNL     1       5.573  -5.352  27.121  0.00  0.00    +0.065 A 
ATOM     26  C   UNL     1       4.725  -4.246  27.229  0.00  0.00    +0.016 A 
ATOM     27  C   UNL     1       5.238  -2.953  27.087  0.00  0.00    +0.006 A 
BRANCH  25  28
ATOM     28  C   UNL     1       5.046  -6.731  27.328  0.00  0.00    +0.308 C 
ATOM     29  N   UNL     1       4.190  -7.286  26.531  0.00  0.00    -0.099 NA
ATOM     30  H   UNL     1       3.896  -6.642  25.790  0.00  0.00    +0.363 HD
ATOM     31  N   UNL     1       5.450  -7.478  28.394  0.00  0.00    -0.247 N 
ATOM     32  H   UNL     1       5.151  -8.442  28.285  0.00  0.00    +0.288 HD
ATOM     33  H   UNL     1       6.431  -7.404  28.642  0.00  0.00    +0.288 HD
ENDBRANCH  25  28
ENDBRANCH  21  22
ENDBRANCH   2  21
TORSDOF 7
ENDMDL
MODEL 3
REMARK VINA RESULT:      -6.4      2.145      5.043
REMARK  Name = 
REMARK  7 active torsions:
REMARK  status: ('A' for Active; 'I' for Inactive)
REMARK    1  A    between atoms: C_2  and  C_17
REMARK    2  A    between atoms: C_7  and  C_9
REMARK    3  A    between atoms: C_9  and  N_10
REMARK    4  A    between atoms: N_10  and  C_11
REMARK    5  A    between atoms: N_19  and  C_20
REMARK    6  A    between atoms: C_20  and  C_21
REMARK    7  A    between atoms: C_24  and  C_27
REMARK                            x       y       z     vdW  Elec       q    Type
REMARK                         _______ _______ _______ _____ _____    ______ ____
ROOT
ATOM      1  C   UNL     1       6.539   0.537  24.470  0.00  0.00    +0.234 C 
ATOM      2  N   UNL     1       7.622   1.325  24.157  0.00  0.00    -0.310 N 
ATOM      3  H   UNL     1       8.557   0.974  24.328  0.00  0.00    +0.149 HD
ATOM      4  O   UNL     1       5.382   0.918  24.309  0.00  0.00    -0.274 OA
ENDROOT
BRANCH   1   5
ATOM      5  C   UNL     1       6.856  -0.857  25.055  0.00  0.00    +0.162 C 
ATOM      6  N   UNL     1       8.265  -1.256  24.942  0.00  0.00    -0.289 N 
ATOM      7  C   UNL     1       8.869  -1.930  23.898  0.00  0.00    +0.230 C 
ATOM      8  O   UNL     1      10.036  -2.324  23.988  0.00  0.00    -0.274 OA
ATOM      9  C   UNL     1       8.949  -1.134  26.220  0.00  0.00    +0.108 C 
ATOM     10  C   UNL     1       7.943  -0.483  27.158  0.00  0.00    +0.021 C 
ATOM     11  C   UNL     1       6.597  -0.876  26.563  0.00  0.00    +0.033 C 
BRANCH   7  12
ATOM     12  C   UNL     1       8.069  -2.130  22.601  0.00  0.00    +0.178 C 
BRANCH  12  13
ATOM     13  N   UNL     1       7.744  -3.547  22.359  0.00  0.00    -0.305 NA
ATOM     14  H   UNL     1       7.717  -4.010  23.273  0.00  0.00    +0.123 HD
BRANCH  13  15
ATOM     15  C   UNL     1       6.448  -3.791  21.699  0.00  0.00    +0.054 C 
ATOM     16  C   UNL     1       5.329  -3.334  22.657  0.00  0.00    +0.019 C 
ATOM     17  C   UNL     1       5.201  -4.234  23.888  0.00  0.00    +0.002 C 
ATOM     18  C   UNL     1       5.034  -5.704  23.506  0.00  0.00    +0.000 C 
ATOM     19  C   UNL     1       6.108  -6.175  22.531  0.00  0.00    +0.002 C 
ATOM     20  C   UNL     1       6.192  -5.258  21.312  0.00  0.00    +0.019 C 
ENDBRANCH  13  15
ENDBRANCH  12  13
ENDBRANCH   7  12
ENDBRANCH   1   5
BRANCH   2  21
ATOM     21  C   UNL     1       7.437   2.671  23.667  0.00  0.00    +0.139 C 
BRANCH  21  22
ATOM     22  C   UNL     1       8.736   3.432  23.637  0.00  0.00    -0.030 A 
ATOM     23  C   UNL     1       8.773   4.796  23.960  0.00  0.00    +0.006 A 
ATOM     24  C   UNL     1       9.988   5.489  23.983  0.00  0.00    +0.016 A 
ATOM     25  C   UNL     1      11.182   4.821  23.691  0.00  0.00    +0.065 A 
ATOM     26  C   UNL     1      11.149   3.468  23.341  0.00  0.00    +0.016 A 
ATOM     27  C   UNL     1       9.933   2.777  23.321  0.00  0.00    +0.006 A 
BRANCH  25  28
ATOM     28  C   UNL     1      12.479   5.550  23.771  0.00  0.00    +0.308 C 
ATOM     29  N   UNL     1      12.727   6.449  24.669  0.00  0.00    -0.099 NA
ATOM     30  H   UNL     1      11.911   6.620  25.265  0.00  0.00    +0.363 HD
ATOM     31  N   UNL     1      13.476   5.298  22.879  0.00  0.00    -0.247 N 
ATOM     32  H   UNL     1      14.342   5.731  23.183  0.00  0.00    +0.288 HD
ATOM     33  H   UNL     1      13.602   4.327  22.615  0.00  0.00    +0.288 HD
ENDBRANCH  25  28
ENDBRANCH  21  22
ENDBRANCH   2  21
TORSDOF 7
ENDMDL
MODEL 4
REMARK VINA RESULT:      -6.4      1.878      4.087
REMARK  Name = 
REMARK  7 active torsions:
REMARK  status: ('A' for Active; 'I' for Inactive)
REMARK    1  A    between atoms: C_2  and  C_17
REMARK    2  A    between atoms: C_7  and  C_9
REMARK    3  A    between atoms: C_9  and  N_10
REMARK    4  A    between atoms: N_10  and  C_11
REMARK    5  A    between atoms: N_19  and  C_20
REMARK    6  A    between atoms: C_20  and  C_21
REMARK    7  A    between atoms: C_24  and  C_27
REMARK                            x       y       z     vdW  Elec       q    Type
REMARK                         _______ _______ _______ _____ _____    ______ ____
ROOT
ATOM      1  C   UNL     1       6.250  -2.346  26.408  0.00  0.00    +0.234 C 
ATOM      2  N   UNL     1       7.189  -1.385  26.113  0.00  0.00    -0.310 N 
ATOM      3  H   UNL     1       7.953  -1.613  25.488  0.00  0.00    +0.149 HD
ATOM      4  O   UNL     1       5.317  -2.136  27.179  0.00  0.00    -0.274 OA
ENDROOT
BRANCH   1   5
ATOM      5  C   UNL     1       6.442  -3.719  25.725  0.00  0.00    +0.162 C 
ATOM      6  N   UNL     1       7.843  -4.137  25.588  0.00  0.00    -0.289 N 
ATOM      7  C   UNL     1       8.702  -3.874  24.539  0.00  0.00    +0.230 C 
ATOM      8  O   UNL     1       9.818  -4.401  24.485  0.00  0.00    -0.274 OA
ATOM      9  C   UNL     1       8.185  -5.156  26.569  0.00  0.00    +0.108 C 
ATOM     10  C   UNL     1       6.963  -5.280  27.467  0.00  0.00    +0.021 C 
ATOM     11  C   UNL     1       5.816  -4.829  26.572  0.00  0.00    +0.033 C 
BRANCH   7  12
ATOM     12  C   UNL     1       8.255  -2.869  23.466  0.00  0.00    +0.178 C 
BRANCH  12  13
ATOM     13  N   UNL     1       8.827  -1.528  23.685  0.00  0.00    -0.305 NA
ATOM     14  H   UNL     1       9.056  -1.458  24.681  0.00  0.00    +0.123 HD
BRANCH  13  15
ATOM     15  C   UNL     1      10.056  -1.237  22.924  0.00  0.00    +0.054 C 
ATOM     16  C   UNL     1      10.865  -0.182  23.705  0.00  0.00    +0.019 C 
ATOM     17  C   UNL     1      10.194   1.194  23.708  0.00  0.00    +0.002 C 
ATOM     18  C   UNL     1       9.877   1.678  22.294  0.00  0.00    +0.000 C 
ATOM     19  C   UNL     1       9.107   0.638  21.485  0.00  0.00    +0.002 C 
ATOM     20  C   UNL     1       9.818  -0.713  21.497  0.00  0.00    +0.019 C 
ENDBRANCH  13  15
ENDBRANCH  12  13
ENDBRANCH   7  12
ENDBRANCH   1   5
BRANCH   2  21
ATOM     21  C   UNL     1       7.142  -0.088  26.749  0.00  0.00    +0.139 C 
BRANCH  21  22
ATOM     22  C   UNL     1       7.001   1.019  25.738  0.00  0.00    -0.030 A 
ATOM     23  C   UNL     1       7.567   2.280  25.975  0.00  0.00    +0.006 A 
ATOM     24  C   UNL     1       7.480   3.290  25.012  0.00  0.00    +0.016 A 
ATOM     25  C   UNL     1       6.832   3.047  23.797  0.00  0.00    +0.065 A 
ATOM     26  C   UNL     1       6.243   1.801  23.564  0.00  0.00    +0.016 A 
ATOM     27  C   UNL     1       6.333   0.791  24.528  0.00  0.00    +0.006 A 
BRANCH  25  28
ATOM     28  C   UNL     1       6.792   4.109  22.752  0.00  0.00    +0.308 C 
ATOM     29  N   UNL     1       5.689   4.547  22.235  0.00  0.00    -0.099 NA
ATOM     30  H   UNL     1       4.876   4.038  22.598  0.00  0.00    +0.363 HD
ATOM     31  N   UNL     1       7.942   4.670  22.284  0.00  0.00    -0.247 N 
ATOM     32  H   UNL     1       7.734   5.493  21.728  0.00  0.00    +0.288 HD
ATOM     33  H   UNL     1       8.665   4.842  22.974  0.00  0.00    +0.288 HD
ENDBRANCH  25  28
ENDBRANCH  21  22
ENDBRANCH   2  21
TORSDOF 7
ENDMDL
MODEL 5
REMARK VINA RESULT:      -6.3      2.517      6.716
REMARK  Name = 
REMARK  7 active torsions:
REMARK  status: ('A' for Active; 'I' for Inactive)
REMARK    1  A    between atoms: C_2  and  C_17
REMARK    2  A    between atoms: C_7  and  C_9
REMARK    3  A    between atoms: C_9  and  N_10
REMARK    4  A    between atoms: N_10  and  C_11
REMARK    5  A    between atoms: N_19  and  C_20
REMARK    6  A    between atoms: C_20  and  C_21
REMARK    7  A    between atoms: C_24  and  C_27
REMARK                            x       y       z     vdW  Elec       q    Type
REMARK                         _______ _______ _______ _____ _____    ______ ____
ROOT
ATOM      1  C   UNL     1       7.157  -2.284  22.613  0.00  0.00    +0.234 C 
ATOM      2  N   UNL     1       7.827  -3.483  22.695  0.00  0.00    -0.310 N 
ATOM      3  H   UNL     1       8.840  -3.488  22.676  0.00  0.00    +0.149 HD
ATOM      4  O   UNL     1       5.930  -2.218  22.606  0.00  0.00    -0.274 OA
ENDROOT
BRANCH   1   5
ATOM      5  C   UNL     1       8.036  -1.018  22.515  0.00  0.00    +0.162 C 
ATOM      6  N   UNL     1       8.455  -0.468  23.811  0.00  0.00    -0.289 N 
ATOM      7  C   UNL     1       7.792   0.463  24.586  0.00  0.00    +0.230 C 
ATOM      8  O   UNL     1       8.321   0.943  25.593  0.00  0.00    -0.274 OA
ATOM      9  C   UNL     1       9.848  -0.786  24.089  0.00  0.00    +0.108 C 
ATOM     10  C   UNL     1      10.285  -1.712  22.964  0.00  0.00    +0.021 C 
ATOM     11  C   UNL     1       9.358  -1.338  21.815  0.00  0.00    +0.033 C 
BRANCH   7  12
ATOM     12  C   UNL     1       6.358   0.849  24.192  0.00  0.00    +0.178 C 
BRANCH  12  13
ATOM     13  N   UNL     1       5.355  -0.060  24.775  0.00  0.00    -0.305 NA
ATOM     14  H   UNL     1       5.243  -0.842  24.124  0.00  0.00    +0.123 HD
BRANCH  13  15
ATOM     15  C   UNL     1       5.709  -0.625  26.092  0.00  0.00    +0.054 C 
ATOM     16  C   UNL     1       5.539  -2.156  26.017  0.00  0.00    +0.019 C 
ATOM     17  C   UNL     1       4.073  -2.583  25.903  0.00  0.00    +0.002 C 
ATOM     18  C   UNL     1       3.216  -1.987  27.018  0.00  0.00    +0.000 C 
ATOM     19  C   UNL     1       3.391  -0.476  27.138  0.00  0.00    +0.002 C 
ATOM     20  C   UNL     1       4.865  -0.095  27.264  0.00  0.00    +0.019 C 
ENDBRANCH  13  15
ENDBRANCH  12  13
ENDBRANCH   7  12
ENDBRANCH   1   5
BRANCH   2  21
ATOM     21  C   UNL     1       7.102  -4.733  22.724  0.00  0.00    +0.139 C 
BRANCH  21  22
ATOM     22  C   UNL     1       6.812  -5.172  24.134  0.00  0.00    -0.030 A 
ATOM     23  C   UNL     1       7.759  -4.983  25.152  0.00  0.00    +0.006 A 
ATOM     24  C   UNL     1       7.467  -5.344  26.471  0.00  0.00    +0.016 A 
ATOM     25  C   UNL     1       6.219  -5.890  26.788  0.00  0.00    +0.065 A 
ATOM     26  C   UNL     1       5.280  -6.107  25.775  0.00  0.00    +0.016 A 
ATOM     27  C   UNL     1       5.574  -5.743  24.457  0.00  0.00    +0.006 A 
BRANCH  25  28
ATOM     28  C   UNL     1       5.893  -6.221  28.205  0.00  0.00    +0.308 C 
ATOM     29  N   UNL     1       6.067  -5.388  29.180  0.00  0.00    -0.099 NA
ATOM     30  H   UNL     1       6.498  -4.516  28.857  0.00  0.00    +0.363 HD
ATOM     31  N   UNL     1       5.391  -7.443  28.537  0.00  0.00    -0.247 N 
ATOM     32  H   UNL     1       5.051  -7.438  29.493  0.00  0.00    +0.288 HD
ATOM     33  H   UNL     1       4.717  -7.838  27.889  0.00  0.00    +0.288 HD
ENDBRANCH  25  28
ENDBRANCH  21  22
ENDBRANCH   2  21
TORSDOF 7
ENDMDL
MODEL 6
REMARK VINA RESULT:      -6.0      2.131      6.614
REMARK  Name = 
REMARK  7 active torsions:
REMARK  status: ('A' for Active; 'I' for Inactive)
REMARK    1  A    between atoms: C_2  and  C_17
REMARK    2  A    between atoms: C_7  and  C_9
REMARK    3  A    between atoms: C_9  and  N_10
REMARK    4  A    between atoms: N_10  and  C_11
REMARK    5  A    between atoms: N_19  and  C_20
REMARK    6  A    between atoms: C_20  and  C_21
REMARK    7  A    between atoms: C_24  and  C_27
REMARK                            x       y       z     vdW  Elec       q    Type
REMARK                         _______ _______ _______ _____ _____    ______ ____
ROOT
ATOM      1  C   UNL     1       9.397  -0.049  23.766  0.00  0.00    +0.234 C 
ATOM      2  N   UNL     1       9.533  -1.222  23.060  0.00  0.00    -0.310 N 
ATOM      3  H   UNL     1       9.343  -1.227  22.065  0.00  0.00    +0.149 HD
ATOM      4  O   UNL     1       9.589   0.013  24.978  0.00  0.00    -0.274 OA
ENDROOT
BRANCH   1   5
ATOM      5  C   UNL     1       8.972   1.192  22.951  0.00  0.00    +0.162 C 
ATOM      6  N   UNL     1       8.370   2.267  23.751  0.00  0.00    -0.289 N 
ATOM      7  C   UNL     1       7.036   2.437  24.067  0.00  0.00    +0.230 C 
ATOM      8  O   UNL     1       6.644   3.460  24.636  0.00  0.00    -0.274 OA
ATOM      9  C   UNL     1       9.309   3.361  23.950  0.00  0.00    +0.108 C 
ATOM     10  C   UNL     1      10.625   2.877  23.360  0.00  0.00    +0.021 C 
ATOM     11  C   UNL     1      10.193   1.858  22.314  0.00  0.00    +0.033 C 
BRANCH   7  12
ATOM     12  C   UNL     1       6.060   1.296  23.740  0.00  0.00    +0.178 C 
BRANCH  12  13
ATOM     13  N   UNL     1       5.260   0.893  24.911  0.00  0.00    -0.305 NA
ATOM     14  H   UNL     1       4.499   0.300  24.565  0.00  0.00    +0.123 HD
BRANCH  13  15
ATOM     15  C   UNL     1       5.990   0.125  25.937  0.00  0.00    +0.054 C 
ATOM     16  C   UNL     1       6.295  -1.273  25.363  0.00  0.00    +0.019 C 
ATOM     17  C   UNL     1       5.038  -2.131  25.199  0.00  0.00    +0.002 C 
ATOM     18  C   UNL     1       4.241  -2.230  26.498  0.00  0.00    +0.000 C 
ATOM     19  C   UNL     1       3.955  -0.861  27.108  0.00  0.00    +0.002 C 
ATOM     20  C   UNL     1       5.235  -0.046  27.267  0.00  0.00    +0.019 C 
ENDBRANCH  13  15
ENDBRANCH  12  13
ENDBRANCH   7  12
ENDBRANCH   1   5
BRANCH   2  21
ATOM     21  C   UNL     1       9.862  -2.456  23.737  0.00  0.00    +0.139 C 
BRANCH  21  22
ATOM     22  C   UNL     1       8.707  -3.422  23.719  0.00  0.00    -0.030 A 
ATOM     23  C   UNL     1       8.474  -4.277  24.805  0.00  0.00    +0.006 A 
ATOM     24  C   UNL     1       7.370  -5.136  24.809  0.00  0.00    +0.016 A 
ATOM     25  C   UNL     1       6.482  -5.142  23.728  0.00  0.00    +0.065 A 
ATOM     26  C   UNL     1       6.724  -4.312  22.629  0.00  0.00    +0.016 A 
ATOM     27  C   UNL     1       7.827  -3.452  22.629  0.00  0.00    +0.006 A 
BRANCH  25  28
ATOM     28  C   UNL     1       5.277  -6.019  23.762  0.00  0.00    +0.308 C 
ATOM     29  N   UNL     1       4.774  -6.482  24.861  0.00  0.00    -0.099 NA
ATOM     30  H   UNL     1       5.336  -6.211  25.675  0.00  0.00    +0.363 HD
ATOM     31  N   UNL     1       4.646  -6.380  22.610  0.00  0.00    -0.247 N 
ATOM     32  H   UNL     1       3.751  -6.812  22.817  0.00  0.00    +0.288 HD
ATOM     33  H   UNL     1       4.573  -5.661  21.899  0.00  0.00    +0.288 HD
ENDBRANCH  25  28
ENDBRANCH  21  22
ENDBRANCH   2  21
TORSDOF 7
ENDMDL
MODEL 7
REMARK VINA RESULT:      -6.0      2.891      6.111
REMARK  Name = 
REMARK  7 active torsions:
REMARK  status: ('A' for Active; 'I' for Inactive)
REMARK    1  A    between atoms: C_2  and  C_17
REMARK    2  A    between atoms: C_7  and  C_9
REMARK    3  A    between atoms: C_9  and  N_10
REMARK    4  A    between atoms: N_10  and  C_11
REMARK    5  A    between atoms: N_19  and  C_20
REMARK    6  A    between atoms: C_20  and  C_21
REMARK    7  A    between atoms: C_24  and  C_27
REMARK                            x       y       z     vdW  Elec       q    Type
REMARK                         _______ _______ _______ _____ _____    ______ ____
ROOT
ATOM      1  C   UNL     1       6.077   5.140  23.986  0.00  0.00    +0.234 C 
ATOM      2  N   UNL     1       6.848   4.715  25.044  0.00  0.00    -0.310 N 
ATOM      3  H   UNL     1       6.681   3.800  25.443  0.00  0.00    +0.149 HD
ATOM      4  O   UNL     1       6.216   6.249  23.477  0.00  0.00    -0.274 OA
ENDROOT
BRANCH   1   5
ATOM      5  C   UNL     1       5.008   4.146  23.480  0.00  0.00    +0.162 C 
ATOM      6  N   UNL     1       4.828   2.963  24.332  0.00  0.00    -0.289 N 
ATOM      7  C   UNL     1       5.498   1.758  24.254  0.00  0.00    +0.230 C 
ATOM      8  O   UNL     1       5.155   0.795  24.947  0.00  0.00    -0.274 OA
ATOM      9  C   UNL     1       3.611   3.068  25.124  0.00  0.00    +0.108 C 
ATOM     10  C   UNL     1       3.073   4.466  24.856  0.00  0.00    +0.021 C 
ATOM     11  C   UNL     1       3.626   4.803  23.477  0.00  0.00    +0.033 C 
BRANCH   7  12
ATOM     12  C   UNL     1       6.716   1.662  23.322  0.00  0.00    +0.178 C 
BRANCH  12  13
ATOM     13  N   UNL     1       7.615   0.553  23.690  0.00  0.00    -0.305 NA
ATOM     14  H   UNL     1       7.454  -0.200  23.015  0.00  0.00    +0.123 HD
BRANCH  13  15
ATOM     15  C   UNL     1       9.054   0.875  23.663  0.00  0.00    +0.054 C 
ATOM     16  C   UNL     1       9.511   0.905  22.190  0.00  0.00    +0.019 C 
ATOM     17  C   UNL     1       9.512  -0.483  21.545  0.00  0.00    +0.002 C 
ATOM     18  C   UNL     1      10.327  -1.489  22.355  0.00  0.00    +0.000 C 
ATOM     19  C   UNL     1       9.920  -1.514  23.825  0.00  0.00    +0.002 C 
ATOM     20  C   UNL     1       9.947  -0.114  24.433  0.00  0.00    +0.019 C 
ENDBRANCH  13  15
ENDBRANCH  12  13
ENDBRANCH   7  12
ENDBRANCH   1   5
BRANCH   2  21
ATOM     21  C   UNL     1       7.832   5.591  25.638  0.00  0.00    +0.139 C 
BRANCH  21  22
ATOM     22  C   UNL     1       9.167   5.469  24.954  0.00  0.00    -0.030 A 
ATOM     23  C   UNL     1       9.447   4.376  24.121  0.00  0.00    +0.006 A 
ATOM     24  C   UNL     1      10.668   4.291  23.446  0.00  0.00    +0.016 A 
ATOM     25  C   UNL     1      11.621   5.305  23.590  0.00  0.00    +0.065 A 
ATOM     26  C   UNL     1      11.361   6.383  24.440  0.00  0.00    +0.016 A 
ATOM     27  C   UNL     1      10.138   6.467  25.113  0.00  0.00    +0.006 A 
BRANCH  25  28
ATOM     28  C   UNL     1      12.898   5.237  22.824  0.00  0.00    +0.308 C 
ATOM     29  N   UNL     1      14.051   5.068  23.389  0.00  0.00    -0.099 NA
ATOM     30  H   UNL     1      13.968   5.041  24.410  0.00  0.00    +0.363 HD
ATOM     31  N   UNL     1      12.903   5.359  21.467  0.00  0.00    -0.247 N 
ATOM     32  H   UNL     1      13.811   5.104  21.092  0.00  0.00    +0.288 HD
ATOM     33  H   UNL     1      12.141   4.904  20.977  0.00  0.00    +0.288 HD
ENDBRANCH  25  28
ENDBRANCH  21  22
ENDBRANCH   2  21
TORSDOF 7
ENDMDL
MODEL 8
REMARK VINA RESULT:      -5.9      1.734      2.269
REMARK  Name = 
REMARK  7 active torsions:
REMARK  status: ('A' for Active; 'I' for Inactive)
REMARK    1  A    between atoms: C_2  and  C_17
REMARK    2  A    between atoms: C_7  and  C_9
REMARK    3  A    between atoms: C_9  and  N_10
REMARK    4  A    between atoms: N_10  and  C_11
REMARK    5  A    between atoms: N_19  and  C_20
REMARK    6  A    between atoms: C_20  and  C_21
REMARK    7  A    between atoms: C_24  and  C_27
REMARK                            x       y       z     vdW  Elec       q    Type
REMARK                         _______ _______ _______ _____ _____    ______ ____
ROOT
ATOM      1  C   UNL     1       8.935  -2.549  23.531  0.00  0.00    +0.234 C 
ATOM      2  N   UNL     1      10.072  -1.785  23.399  0.00  0.00    -0.310 N 
ATOM      3  H   UNL     1      10.730  -1.739  24.167  0.00  0.00    +0.149 HD
ATOM      4  O   UNL     1       8.088  -2.624  22.643  0.00  0.00    -0.274 OA
ENDROOT
BRANCH   1   5
ATOM      5  C   UNL     1       8.770  -3.300  24.871  0.00  0.00    +0.162 C 
ATOM      6  N   UNL     1       7.510  -3.021  25.572  0.00  0.00    -0.289 N 
ATOM      7  C   UNL     1       7.261  -2.020  26.491  0.00  0.00    +0.230 C 
ATOM      8  O   UNL     1       6.194  -1.978  27.110  0.00  0.00    -0.274 OA
ATOM      9  C   UNL     1       6.575  -4.127  25.430  0.00  0.00    +0.108 C 
ATOM     10  C   UNL     1       7.236  -5.096  24.462  0.00  0.00    +0.021 C 
ATOM     11  C   UNL     1       8.723  -4.811  24.634  0.00  0.00    +0.033 C 
BRANCH   7  12
ATOM     12  C   UNL     1       8.326  -0.930  26.686  0.00  0.00    +0.178 C 
BRANCH  12  13
ATOM     13  N   UNL     1       7.731   0.384  26.989  0.00  0.00    -0.305 NA
ATOM     14  H   UNL     1       8.326   0.827  27.696  0.00  0.00    +0.123 HD
BRANCH  13  15
ATOM     15  C   UNL     1       7.634   1.310  25.845  0.00  0.00    +0.054 C 
ATOM     16  C   UNL     1       7.391   2.729  26.396  0.00  0.00    +0.019 C 
ATOM     17  C   UNL     1       6.001   2.891  27.017  0.00  0.00    +0.002 C 
ATOM     18  C   UNL     1       4.892   2.476  26.052  0.00  0.00    +0.000 C 
ATOM     19  C   UNL     1       5.126   1.088  25.463  0.00  0.00    +0.002 C 
ATOM     20  C   UNL     1       6.516   0.975  24.842  0.00  0.00    +0.019 C 
ENDBRANCH  13  15
ENDBRANCH  12  13
ENDBRANCH   7  12
ENDBRANCH   1   5
BRANCH   2  21
ATOM     21  C   UNL     1      10.291  -0.989  22.213  0.00  0.00    +0.139 C 
BRANCH  21  22
ATOM     22  C   UNL     1       9.819   0.428  22.403  0.00  0.00    -0.030 A 
ATOM     23  C   UNL     1       8.749   0.932  21.650  0.00  0.00    +0.006 A 
ATOM     24  C   UNL     1       8.278   2.231  21.864  0.00  0.00    +0.016 A 
ATOM     25  C   UNL     1       8.868   3.038  22.842  0.00  0.00    +0.065 A 
ATOM     26  C   UNL     1       9.953   2.552  23.578  0.00  0.00    +0.016 A 
ATOM     27  C   UNL     1      10.421   1.252  23.363  0.00  0.00    +0.006 A 
BRANCH  25  28
ATOM     28  C   UNL     1       8.325   4.401  23.105  0.00  0.00    +0.308 C 
ATOM     29  N   UNL     1       9.061   5.466  23.095  0.00  0.00    -0.099 NA
ATOM     30  H   UNL     1      10.048   5.240  22.937  0.00  0.00    +0.363 HD
ATOM     31  N   UNL     1       7.004   4.584  23.379  0.00  0.00    -0.247 N 
ATOM     32  H   UNL     1       6.767   5.570  23.345  0.00  0.00    +0.288 HD
ATOM     33  H   UNL     1       6.356   4.013  22.846  0.00  0.00    +0.288 HD
ENDBRANCH  25  28
ENDBRANCH  21  22
ENDBRANCH   2  21
TORSDOF 7
ENDMDL
MODEL 9
REMARK VINA RESULT:      -5.9      2.147      6.767
REMARK  Name = 
REMARK  7 active torsions:
REMARK  status: ('A' for Active; 'I' for Inactive)
REMARK    1  A    between atoms: C_2  and  C_17
REMARK    2  A    between atoms: C_7  and  C_9
REMARK    3  A    between atoms: C_9  and  N_10
REMARK    4  A    between atoms: N_10  and  C_11
REMARK    5  A    between atoms: N_19  and  C_20
REMARK    6  A    between atoms: C_20  and  C_21
REMARK    7  A    between atoms: C_24  and  C_27
REMARK                            x       y       z     vdW  Elec       q    Type
REMARK                         _______ _______ _______ _____ _____    ______ ____
ROOT
ATOM      1  C   UNL     1       8.093  -1.155  23.811  0.00  0.00    +0.234 C 
ATOM      2  N   UNL     1       8.686  -2.102  24.615  0.00  0.00    -0.310 N 
ATOM      3  H   UNL     1       8.958  -1.852  25.558  0.00  0.00    +0.149 HD
ATOM      4  O   UNL     1       7.766  -1.393  22.651  0.00  0.00    -0.274 OA
ENDROOT
BRANCH   1   5
ATOM      5  C   UNL     1       7.874   0.236  24.445  0.00  0.00    +0.162 C 
ATOM      6  N   UNL     1       6.831   1.041  23.795  0.00  0.00    -0.289 N 
ATOM      7  C   UNL     1       6.978   1.919  22.739  0.00  0.00    +0.230 C 
ATOM      8  O   UNL     1       6.042   2.636  22.375  0.00  0.00    -0.274 OA
ATOM      9  C   UNL     1       5.612   1.058  24.590  0.00  0.00    +0.108 C 
ATOM     10  C   UNL     1       5.861   0.089  25.736  0.00  0.00    +0.021 C 
ATOM     11  C   UNL     1       7.377   0.096  25.885  0.00  0.00    +0.033 C 
BRANCH   7  12
ATOM     12  C   UNL     1       8.322   1.942  21.995  0.00  0.00    +0.178 C 
BRANCH  12  13
ATOM     13  N   UNL     1       9.114   3.145  22.309  0.00  0.00    -0.305 NA
ATOM     14  H   UNL     1       8.463   3.935  22.337  0.00  0.00    +0.123 HD
BRANCH  13  15
ATOM     15  C   UNL     1       9.825   3.109  23.602  0.00  0.00    +0.054 C 
ATOM     16  C   UNL     1       9.029   3.963  24.610  0.00  0.00    +0.019 C 
ATOM     17  C   UNL     1       9.085   5.459  24.290  0.00  0.00    +0.002 C 
ATOM     18  C   UNL     1      10.521   5.962  24.154  0.00  0.00    +0.000 C 
ATOM     19  C   UNL     1      11.342   5.113  23.188  0.00  0.00    +0.002 C 
ATOM     20  C   UNL     1      11.272   3.632  23.552  0.00  0.00    +0.019 C 
ENDBRANCH  13  15
ENDBRANCH  12  13
ENDBRANCH   7  12
ENDBRANCH   1   5
BRANCH   2  21
ATOM     21  C   UNL     1       8.998  -3.416  24.101  0.00  0.00    +0.139 C 
BRANCH  21  22
ATOM     22  C   UNL     1       7.866  -4.382  24.331  0.00  0.00    -0.030 A 
ATOM     23  C   UNL     1       7.518  -4.781  25.629  0.00  0.00    +0.006 A 
ATOM     24  C   UNL     1       6.434  -5.638  25.844  0.00  0.00    +0.016 A 
ATOM     25  C   UNL     1       5.680  -6.098  24.760  0.00  0.00    +0.065 A 
ATOM     26  C   UNL     1       6.037  -5.727  23.460  0.00  0.00    +0.016 A 
ATOM     27  C   UNL     1       7.121  -4.869  23.249  0.00  0.00    +0.006 A 
BRANCH  25  28
ATOM     28  C   UNL     1       4.491  -6.966  24.999  0.00  0.00    +0.308 C 
ATOM     29  N   UNL     1       3.825  -7.527  24.042  0.00  0.00    -0.099 NA
ATOM     30  H   UNL     1       4.188  -7.256  23.122  0.00  0.00    +0.363 HD
ATOM     31  N   UNL     1       4.046  -7.203  26.264  0.00  0.00    -0.247 N 
ATOM     32  H   UNL     1       3.359  -7.951  26.264  0.00  0.00    +0.288 HD
ATOM     33  H   UNL     1       4.761  -7.336  26.970  0.00  0.00    +0.288 HD
ENDBRANCH  25  28
ENDBRANCH  21  22
ENDBRANCH   2  21
TORSDOF 7
ENDMDL
