MODEL 1
REMARK VINA RESULT:      -7.9      0.000      0.000
REMARK  Name = 
REMARK  7 active torsions:
REMARK  status: ('A' for Active; 'I' for Inactive)
REMARK    1  A    between atoms: C_1  and  O_2
REMARK    2  A    between atoms: O_2  and  C_3
REMARK    3  A    between atoms: N_9  and  S_10
REMARK    4  A    between atoms: S_10  and  C_13
REMARK    5  A    between atoms: C_22  and  C_24
REMARK    6  A    between atoms: C_27  and  O_28
REMARK    7  A    between atoms: O_28  and  C_29
REMARK                            x       y       z     vdW  Elec       q    Type
REMARK                         _______ _______ _______ _____ _____    ______ ____
ROOT
ATOM      1  C   UNL     1      10.172   3.763  23.593  0.00  0.00    +0.123 A 
ATOM      2  C   UNL     1       8.772   3.912  23.584  0.00  0.00    +0.058 A 
ATOM      3  C   UNL     1       7.888   2.822  23.423  0.00  0.00    +0.032 A 
ATOM      4  C   UNL     1       8.545   1.596  23.248  0.00  0.00    +0.165 A 
ATOM      5  O   UNL     1       7.971   0.364  23.105  0.00  0.00    -0.423 OA
ATOM      6  C   UNL     1       9.017  -0.482  22.909  0.00  0.00    +0.308 A 
ATOM      7  N   UNL     1      10.194   0.100  22.881  0.00  0.00    -0.194 NA
ATOM      8  N   UNL     1       8.828  -1.847  22.642  0.00  0.00    -0.169 N 
ATOM      9  H   UNL     1       9.553  -2.214  22.030  0.00  0.00    +0.178 HD
ATOM     10  C   UNL     1       9.915   1.415  23.172  0.00  0.00    +0.115 A 
ATOM     11  C   UNL     1      10.764   2.512  23.370  0.00  0.00    +0.077 A 
ENDROOT
BRANCH   3  12
ATOM     12  C   UNL     1       6.421   2.933  23.401  0.00  0.00    +0.004 A 
ATOM     13  C   UNL     1       5.722   3.531  22.344  0.00  0.00    +0.015 A 
ATOM     14  C   UNL     1       4.325   3.560  22.342  0.00  0.00    +0.068 A 
ATOM     15  C   UNL     1       3.649   2.979  23.402  0.00  0.00    +0.214 A 
ATOM     16  N   UNL     1       4.269   2.412  24.451  0.00  0.00    -0.221 NA
ATOM     17  C   UNL     1       5.623   2.412  24.426  0.00  0.00    +0.123 A 
BRANCH  15  18
ATOM     18  O   UNL     1       2.271   3.000  23.354  0.00  0.00    -0.480 OA
ATOM     19  C   UNL     1       1.770   2.983  22.019  0.00  0.00    +0.279 C 
ENDBRANCH  15  18
ENDBRANCH   3  12
BRANCH   8  20
ATOM     20  S   UNL     1       8.886  -2.762  24.062  0.00  0.00    +0.077 S 
ATOM     21  O   UNL     1       8.453  -1.928  25.160  0.00  0.00    -0.150 OA
ATOM     22  O   UNL     1      10.192  -3.388  24.113  0.00  0.00    -0.150 OA
BRANCH  20  23
ATOM     23  C   UNL     1       7.687  -4.044  23.849  0.00  0.00    +0.128 A 
ATOM     24  C   UNL     1       7.022  -4.622  24.931  0.00  0.00    +0.068 A 
ATOM     25 CL   UNL     1       7.316  -4.207  26.578  0.00  0.00    -0.082 Cl
ATOM     26  C   UNL     1       6.062  -5.612  24.691  0.00  0.00    +0.023 A 
ATOM     27  C   UNL     1       5.765  -6.017  23.386  0.00  0.00    +0.021 A 
ATOM     28  C   UNL     1       6.430  -5.430  22.314  0.00  0.00    +0.043 A 
ATOM     29 CL   UNL     1       6.065  -5.924  20.709  0.00  0.00    -0.083 Cl
ATOM     30  C   UNL     1       7.388  -4.446  22.534  0.00  0.00    +0.050 A 
ENDBRANCH  20  23
ENDBRANCH   8  20
BRANCH   1  32
ATOM     31  C   UNL     1      12.227   4.919  23.353  0.00  0.00    +0.277 C 
ATOM     32  O   UNL     1      10.867   4.930  23.780  0.00  0.00    -0.495 OA
ENDBRANCH   1  32
TORSDOF 5
ENDMDL
MODEL 2
REMARK VINA RESULT:      -7.4      3.842      8.588
REMARK  Name = 
REMARK  7 active torsions:
REMARK  status: ('A' for Active; 'I' for Inactive)
REMARK    1  A    between atoms: C_1  and  O_2
REMARK    2  A    between atoms: O_2  and  C_3
REMARK    3  A    between atoms: N_9  and  S_10
REMARK    4  A    between atoms: S_10  and  C_13
REMARK    5  A    between atoms: C_22  and  C_24
REMARK    6  A    between atoms: C_27  and  O_28
REMARK    7  A    between atoms: O_28  and  C_29
REMARK                            x       y       z     vdW  Elec       q    Type
REMARK                         _______ _______ _______ _____ _____    ______ ____
ROOT
ATOM      1  C   UNL     1       7.374  -4.631  22.578  0.00  0.00    +0.123 A 
ATOM      2  C   UNL     1       6.892  -5.269  23.737  0.00  0.00    +0.058 A 
ATOM      3  C   UNL     1       6.824  -4.625  24.992  0.00  0.00    +0.032 A 
ATOM      4  C   UNL     1       7.307  -3.309  24.967  0.00  0.00    +0.165 A 
ATOM      5  O   UNL     1       7.338  -2.420  26.005  0.00  0.00    -0.423 OA
ATOM      6  C   UNL     1       7.945  -1.316  25.494  0.00  0.00    +0.308 A 
ATOM      7  N   UNL     1       8.329  -1.431  24.244  0.00  0.00    -0.194 NA
ATOM      8  N   UNL     1       8.235  -0.194  26.287  0.00  0.00    -0.169 N 
ATOM      9  H   UNL     1       9.084   0.274  25.979  0.00  0.00    +0.178 HD
ATOM     10  C   UNL     1       7.860  -2.669  23.871  0.00  0.00    +0.115 A 
ATOM     11  C   UNL     1       7.881  -3.325  22.633  0.00  0.00    +0.077 A 
ENDROOT
BRANCH   3  12
ATOM     12  C   UNL     1       6.335  -5.254  26.228  0.00  0.00    +0.004 A 
ATOM     13  C   UNL     1       5.023  -5.728  26.370  0.00  0.00    +0.015 A 
ATOM     14  C   UNL     1       4.624  -6.372  27.545  0.00  0.00    +0.068 A 
ATOM     15  C   UNL     1       5.552  -6.537  28.558  0.00  0.00    +0.214 A 
ATOM     16  N   UNL     1       6.816  -6.083  28.483  0.00  0.00    -0.221 NA
ATOM     17  C   UNL     1       7.166  -5.455  27.336  0.00  0.00    +0.123 A 
BRANCH  15  18
ATOM     18  O   UNL     1       5.133  -7.202  29.692  0.00  0.00    -0.480 OA
ATOM     19  C   UNL     1       3.808  -6.842  30.077  0.00  0.00    +0.279 C 
ENDBRANCH  15  18
ENDBRANCH   3  12
BRANCH   8  20
ATOM     20  S   UNL     1       6.995   0.951  26.203  0.00  0.00    +0.077 S 
ATOM     21  O   UNL     1       6.744   1.452  27.536  0.00  0.00    -0.150 OA
ATOM     22  O   UNL     1       5.910   0.352  25.450  0.00  0.00    -0.150 OA
BRANCH  20  23
ATOM     23  C   UNL     1       7.643   2.282  25.237  0.00  0.00    +0.128 A 
ATOM     24  C   UNL     1       6.909   3.442  24.989  0.00  0.00    +0.068 A 
ATOM     25 CL   UNL     1       5.294   3.698  25.536  0.00  0.00    -0.082 Cl
ATOM     26  C   UNL     1       7.492   4.472  24.241  0.00  0.00    +0.023 A 
ATOM     27  C   UNL     1       8.795   4.347  23.750  0.00  0.00    +0.021 A 
ATOM     28  C   UNL     1       9.521   3.188  24.008  0.00  0.00    +0.043 A 
ATOM     29 CL   UNL     1      11.125   3.033  23.409  0.00  0.00    -0.083 Cl
ATOM     30  C   UNL     1       8.956   2.155  24.748  0.00  0.00    +0.050 A 
ENDBRANCH  20  23
ENDBRANCH   8  20
BRANCH   1  32
ATOM     31  C   UNL     1       6.083  -5.975  21.114  0.00  0.00    +0.277 C 
ATOM     32  O   UNL     1       7.347  -5.408  21.448  0.00  0.00    -0.495 OA
ENDBRANCH   1  32
TORSDOF 5
ENDMDL
MODEL 3
REMARK VINA RESULT:      -7.3      1.558      4.859
REMARK  Name = 
REMARK  7 active torsions:
REMARK  status: ('A' for Active; 'I' for Inactive)
REMARK    1  A    between atoms: C_1  and  O_2
REMARK    2  A    between atoms: O_2  and  C_3
REMARK    3  A    between atoms: N_9  and  S_10
REMARK    4  A    between atoms: S_10  and  C_13
REMARK    5  A    between atoms: C_22  and  C_24
REMARK    6  A    between atoms: C_27  and  O_28
REMARK    7  A    between atoms: O_28  and  C_29
REMARK                            x       y       z     vdW  Elec       q    Type
REMARK                         _______ _______ _______ _____ _____    ______ ____
ROOT
ATOM      1  C   UNL     1       5.392   3.185  23.536  0.00  0.00    +0.123 A 
ATOM      2  C   UNL     1       6.612   3.883  23.447  0.00  0.00    +0.058 A 
ATOM      3  C   UNL     1       7.864   3.262  23.651  0.00  0.00    +0.032 A 
ATOM      4  C   UNL     1       7.763   1.902  23.974  0.00  0.00    +0.165 A 
ATOM      5  O   UNL     1       8.789   1.025  24.191  0.00  0.00    -0.423 OA
ATOM      6  C   UNL     1       8.179  -0.142  24.525  0.00  0.00    +0.308 A 
ATOM      7  N   UNL     1       6.868  -0.081  24.572  0.00  0.00    -0.194 NA
ATOM      8  N   UNL     1       8.909  -1.281  24.900  0.00  0.00    -0.169 N 
ATOM      9  H   UNL     1       8.407  -1.840  25.585  0.00  0.00    +0.178 HD
ATOM     10  C   UNL     1       6.585   1.196  24.148  0.00  0.00    +0.115 A 
ATOM     11  C   UNL     1       5.362   1.834  23.906  0.00  0.00    +0.077 A 
ENDROOT
BRANCH   3  12
ATOM     12  C   UNL     1       9.160   3.953  23.574  0.00  0.00    +0.004 A 
ATOM     13  C   UNL     1       9.295   5.336  23.760  0.00  0.00    +0.015 A 
ATOM     14  C   UNL     1      10.557   5.936  23.736  0.00  0.00    +0.068 A 
ATOM     15  C   UNL     1      11.668   5.136  23.531  0.00  0.00    +0.214 A 
ATOM     16  N   UNL     1      11.594   3.809  23.326  0.00  0.00    -0.221 NA
ATOM     17  C   UNL     1      10.356   3.262  23.345  0.00  0.00    +0.123 A 
BRANCH  15  18
ATOM     18  O   UNL     1      12.900   5.757  23.541  0.00  0.00    -0.480 OA
ATOM     19  C   UNL     1      13.573   5.655  22.289  0.00  0.00    +0.279 C 
ENDBRANCH  15  18
ENDBRANCH   3  12
BRANCH   8  20
ATOM     20  S   UNL     1       9.199  -2.287  23.574  0.00  0.00    +0.077 S 
ATOM     21  O   UNL     1      10.521  -2.855  23.711  0.00  0.00    -0.150 OA
ATOM     22  O   UNL     1       8.867  -1.530  22.383  0.00  0.00    -0.150 OA
BRANCH  20  23
ATOM     23  C   UNL     1       8.026  -3.603  23.713  0.00  0.00    +0.128 A 
ATOM     24  C   UNL     1       7.599  -4.085  24.951  0.00  0.00    +0.068 A 
ATOM     25 CL   UNL     1       8.185  -3.508  26.466  0.00  0.00    -0.082 Cl
ATOM     26  C   UNL     1       6.645  -5.109  24.992  0.00  0.00    +0.023 A 
ATOM     27  C   UNL     1       6.121  -5.643  23.811  0.00  0.00    +0.021 A 
ATOM     28  C   UNL     1       6.549  -5.151  22.582  0.00  0.00    +0.043 A 
ATOM     29 CL   UNL     1       5.903  -5.803  21.128  0.00  0.00    -0.083 Cl
ATOM     30  C   UNL     1       7.497  -4.135  22.523  0.00  0.00    +0.050 A 
ENDBRANCH  20  23
ENDBRANCH   8  20
BRANCH   1  32
ATOM     31  C   UNL     1       3.424   3.482  22.250  0.00  0.00    +0.277 C 
ATOM     32  O   UNL     1       4.281   3.950  23.289  0.00  0.00    -0.495 OA
ENDBRANCH   1  32
TORSDOF 5
ENDMDL
MODEL 4
REMARK VINA RESULT:      -7.2      1.253      2.013
REMARK  Name = 
REMARK  7 active torsions:
REMARK  status: ('A' for Active; 'I' for Inactive)
REMARK    1  A    between atoms: C_1  and  O_2
REMARK    2  A    between atoms: O_2  and  C_3
REMARK    3  A    between atoms: N_9  and  S_10
REMARK    4  A    between atoms: S_10  and  C_13
REMARK    5  A    between atoms: C_22  and  C_24
REMARK    6  A    between atoms: C_27  and  O_28
REMARK    7  A    between atoms: O_28  and  C_29
REMARK                            x       y       z     vdW  Elec       q    Type
REMARK                         _______ _______ _______ _____ _____    ______ ____
ROOT
ATOM      1  C   UNL     1      10.238   2.735  23.376  0.00  0.00    +0.123 A 
ATOM      2  C   UNL     1       8.875   3.085  23.430  0.00  0.00    +0.058 A 
ATOM      3  C   UNL     1       7.837   2.130  23.352  0.00  0.00    +0.032 A 
ATOM      4  C   UNL     1       8.302   0.817  23.190  0.00  0.00    +0.165 A 
ATOM      5  O   UNL     1       7.551  -0.323  23.120  0.00  0.00    -0.423 OA
ATOM      6  C   UNL     1       8.453  -1.316  22.904  0.00  0.00    +0.308 A 
ATOM      7  N   UNL     1       9.698  -0.912  22.798  0.00  0.00    -0.194 NA
ATOM      8  N   UNL     1       8.057  -2.647  22.697  0.00  0.00    -0.169 N 
ATOM      9  H   UNL     1       8.688  -3.133  22.065  0.00  0.00    +0.178 HD
ATOM     10  C   UNL     1       9.626   0.438  23.054  0.00  0.00    +0.115 A 
ATOM     11  C   UNL     1      10.632   1.406  23.170  0.00  0.00    +0.077 A 
ENDROOT
BRANCH   3  12
ATOM     12  C   UNL     1       6.402   2.451  23.397  0.00  0.00    +0.004 A 
ATOM     13  C   UNL     1       5.739   3.105  22.350  0.00  0.00    +0.015 A 
ATOM     14  C   UNL     1       4.361   3.336  22.416  0.00  0.00    +0.068 A 
ATOM     15  C   UNL     1       3.670   2.898  23.532  0.00  0.00    +0.214 A 
ATOM     16  N   UNL     1       4.259   2.285  24.573  0.00  0.00    -0.221 NA
ATOM     17  C   UNL     1       5.595   2.088  24.481  0.00  0.00    +0.123 A 
BRANCH  15  18
ATOM     18  O   UNL     1       2.307   3.116  23.551  0.00  0.00    -0.480 OA
ATOM     19  C   UNL     1       1.959   4.431  23.125  0.00  0.00    +0.279 C 
ENDBRANCH  15  18
ENDBRANCH   3  12
BRANCH   8  20
ATOM     20  S   UNL     1       8.060  -3.519  24.145  0.00  0.00    +0.077 S 
ATOM     21  O   UNL     1       7.998  -2.581  25.243  0.00  0.00    -0.150 OA
ATOM     22  O   UNL     1       9.158  -4.462  24.073  0.00  0.00    -0.150 OA
BRANCH  20  23
ATOM     23  C   UNL     1       6.556  -4.449  24.140  0.00  0.00    +0.128 A 
ATOM     24  C   UNL     1       6.270  -5.388  23.148  0.00  0.00    +0.068 A 
ATOM     25 CL   UNL     1       7.299  -5.715  21.803  0.00  0.00    -0.082 Cl
ATOM     26  C   UNL     1       5.075  -6.112  23.219  0.00  0.00    +0.023 A 
ATOM     27  C   UNL     1       4.177  -5.906  24.271  0.00  0.00    +0.021 A 
ATOM     28  C   UNL     1       4.474  -4.972  25.258  0.00  0.00    +0.043 A 
ATOM     29 CL   UNL     1       3.373  -4.719  26.554  0.00  0.00    -0.083 Cl
ATOM     30  C   UNL     1       5.657  -4.242  25.202  0.00  0.00    +0.050 A 
ENDBRANCH  20  23
ENDBRANCH   8  20
BRANCH   1  32
ATOM     31  C   UNL     1      10.501   5.061  23.744  0.00  0.00    +0.277 C 
ATOM     32  O   UNL     1      11.101   3.794  23.486  0.00  0.00    -0.495 OA
ENDBRANCH   1  32
TORSDOF 5
ENDMDL
MODEL 5
REMARK VINA RESULT:      -7.1      3.822      7.501
REMARK  Name = 
REMARK  7 active torsions:
REMARK  status: ('A' for Active; 'I' for Inactive)
REMARK    1  A    between atoms: C_1  and  O_2
REMARK    2  A    between atoms: O_2  and  C_3
REMARK    3  A    between atoms: N_9  and  S_10
REMARK    4  A    between atoms: S_10  and  C_13
REMARK    5  A    between atoms: C_22  and  C_24
REMARK    6  A    between atoms: C_27  and  O_28
REMARK    7  A    between atoms: O_28  and  C_29
REMARK                            x       y       z     vdW  Elec       q    Type
REMARK                         _______ _______ _______ _____ _____    ______ ____
ROOT
ATOM      1  C   UNL     1      11.712   5.346  23.542  0.00  0.00    +0.123 A 
ATOM      2  C   UNL     1      11.592   3.956  23.353  0.00  0.00    +0.058 A 
ATOM      3  C   UNL     1      10.379   3.260  23.548  0.00  0.00    +0.032 A 
ATOM      4  C   UNL     1       9.328   4.086  23.972  0.00  0.00    +0.165 A 
ATOM      5  O   UNL     1       8.033   3.719  24.208  0.00  0.00    -0.423 OA
ATOM      6  C   UNL     1       7.429   4.854  24.649  0.00  0.00    +0.308 A 
ATOM      7  N   UNL     1       8.224   5.894  24.746  0.00  0.00    -0.194 NA
ATOM      8  N   UNL     1       6.091   4.867  25.074  0.00  0.00    -0.169 N 
ATOM      9  H   UNL     1       5.939   5.544  25.817  0.00  0.00    +0.178 HD
ATOM     10  C   UNL     1       9.421   5.440  24.244  0.00  0.00    +0.115 A 
ATOM     11  C   UNL     1      10.630   6.105  24.008  0.00  0.00    +0.077 A 
ENDROOT
BRANCH   3  12
ATOM     12  C   UNL     1      10.210   1.810  23.370  0.00  0.00    +0.004 A 
ATOM     13  C   UNL     1       9.966   1.223  22.121  0.00  0.00    +0.015 A 
ATOM     14  C   UNL     1       9.871  -0.166  21.994  0.00  0.00    +0.068 A 
ATOM     15  C   UNL     1      10.031  -0.946  23.126  0.00  0.00    +0.214 A 
ATOM     16  N   UNL     1      10.246  -0.436  24.351  0.00  0.00    -0.221 NA
ATOM     17  C   UNL     1      10.321   0.913  24.439  0.00  0.00    +0.123 A 
BRANCH  15  18
ATOM     18  O   UNL     1       9.960  -2.314  22.961  0.00  0.00    -0.480 OA
ATOM     19  C   UNL     1       9.575  -2.989  24.156  0.00  0.00    +0.279 C 
ENDBRANCH  15  18
ENDBRANCH   3  12
BRANCH   8  20
ATOM     20  S   UNL     1       5.052   5.293  23.812  0.00  0.00    +0.077 S 
ATOM     21  O   UNL     1       5.580   4.750  22.581  0.00  0.00    -0.150 OA
ATOM     22  O   UNL     1       4.814   6.720  23.918  0.00  0.00    -0.150 OA
BRANCH  20  23
ATOM     23  C   UNL     1       3.525   4.471  24.156  0.00  0.00    +0.128 A 
ATOM     24  C   UNL     1       2.423   4.572  23.306  0.00  0.00    +0.068 A 
ATOM     25 CL   UNL     1       2.392   5.531  21.874  0.00  0.00    -0.082 Cl
ATOM     26  C   UNL     1       1.253   3.871  23.622  0.00  0.00    +0.023 A 
ATOM     27  C   UNL     1       1.185   3.075  24.769  0.00  0.00    +0.021 A 
ATOM     28  C   UNL     1       2.292   2.977  25.606  0.00  0.00    +0.043 A 
ATOM     29 CL   UNL     1       2.212   1.996  27.016  0.00  0.00    -0.083 Cl
ATOM     30  C   UNL     1       3.462   3.668  25.309  0.00  0.00    +0.050 A 
ENDBRANCH  20  23
ENDBRANCH   8  20
BRANCH   1  32
ATOM     31  C   UNL     1      13.418   5.729  21.941  0.00  0.00    +0.277 C 
ATOM     32  O   UNL     1      12.963   5.848  23.286  0.00  0.00    -0.495 OA
ENDBRANCH   1  32
TORSDOF 5
ENDMDL
MODEL 6
REMARK VINA RESULT:      -7.1      2.204      3.517
REMARK  Name = 
REMARK  7 active torsions:
REMARK  status: ('A' for Active; 'I' for Inactive)
REMARK    1  A    between atoms: C_1  and  O_2
REMARK    2  A    between atoms: O_2  and  C_3
REMARK    3  A    between atoms: N_9  and  S_10
REMARK    4  A    between atoms: S_10  and  C_13
REMARK    5  A    between atoms: C_22  and  C_24
REMARK    6  A    between atoms: C_27  and  O_28
REMARK    7  A    between atoms: O_28  and  C_29
REMARK                            x       y       z     vdW  Elec       q    Type
REMARK                         _______ _______ _______ _____ _____    ______ ____
ROOT
ATOM      1  C   UNL     1       9.739   1.508  23.105  0.00  0.00    +0.123 A 
ATOM      2  C   UNL     1       8.630   1.745  23.939  0.00  0.00    +0.058 A 
ATOM      3  C   UNL     1       7.637   0.772  24.186  0.00  0.00    +0.032 A 
ATOM      4  C   UNL     1       7.855  -0.429  23.497  0.00  0.00    +0.165 A 
ATOM      5  O   UNL     1       7.097  -1.565  23.557  0.00  0.00    -0.423 OA
ATOM      6  C   UNL     1       7.682  -2.416  22.674  0.00  0.00    +0.308 A 
ATOM      7  N   UNL     1       8.717  -1.918  22.038  0.00  0.00    -0.194 NA
ATOM      8  N   UNL     1       7.142  -3.681  22.391  0.00  0.00    -0.169 N 
ATOM      9  H   UNL     1       7.317  -3.957  21.428  0.00  0.00    +0.178 HD
ATOM     10  C   UNL     1       8.886  -0.678  22.608  0.00  0.00    +0.115 A 
ATOM     11  C   UNL     1       9.872   0.297  22.413  0.00  0.00    +0.077 A 
ENDROOT
BRANCH   3  12
ATOM     12  C   UNL     1       6.460   0.979  25.044  0.00  0.00    +0.004 A 
ATOM     13  C   UNL     1       6.422   0.582  26.387  0.00  0.00    +0.015 A 
ATOM     14  C   UNL     1       5.301   0.854  27.178  0.00  0.00    +0.068 A 
ATOM     15  C   UNL     1       4.236   1.528  26.606  0.00  0.00    +0.214 A 
ATOM     16  N   UNL     1       4.211   1.913  25.318  0.00  0.00    -0.221 NA
ATOM     17  C   UNL     1       5.308   1.624  24.579  0.00  0.00    +0.123 A 
BRANCH  15  18
ATOM     18  O   UNL     1       3.159   1.806  27.422  0.00  0.00    -0.480 OA
ATOM     19  C   UNL     1       3.480   1.698  28.807  0.00  0.00    +0.279 C 
ENDBRANCH  15  18
ENDBRANCH   3  12
BRANCH   8  20
ATOM     20  S   UNL     1       7.831  -4.874  23.370  0.00  0.00    +0.077 S 
ATOM     21  O   UNL     1       8.915  -4.280  24.119  0.00  0.00    -0.150 OA
ATOM     22  O   UNL     1       8.093  -6.022  22.523  0.00  0.00    -0.150 OA
BRANCH  20  23
ATOM     23  C   UNL     1       6.567  -5.334  24.517  0.00  0.00    +0.128 A 
ATOM     24  C   UNL     1       5.302  -5.746  24.096  0.00  0.00    +0.068 A 
ATOM     25 CL   UNL     1       4.804  -5.805  22.447  0.00  0.00    -0.082 Cl
ATOM     26  C   UNL     1       4.355  -6.126  25.055  0.00  0.00    +0.023 A 
ATOM     27  C   UNL     1       4.670  -6.101  26.417  0.00  0.00    +0.021 A 
ATOM     28  C   UNL     1       5.936  -5.695  26.825  0.00  0.00    +0.043 A 
ATOM     29 CL   UNL     1       6.326  -5.666  28.499  0.00  0.00    -0.083 Cl
ATOM     30  C   UNL     1       6.888  -5.312  25.886  0.00  0.00    +0.050 A 
ENDBRANCH  20  23
ENDBRANCH   8  20
BRANCH   1  32
ATOM     31  C   UNL     1      10.193   3.775  23.627  0.00  0.00    +0.277 C 
ATOM     32  O   UNL     1      10.608   2.564  23.000  0.00  0.00    -0.495 OA
ENDBRANCH   1  32
TORSDOF 5
ENDMDL
MODEL 7
REMARK VINA RESULT:      -6.9      3.897      8.681
REMARK  Name = 
REMARK  7 active torsions:
REMARK  status: ('A' for Active; 'I' for Inactive)
REMARK    1  A    between atoms: C_1  and  O_2
REMARK    2  A    between atoms: O_2  and  C_3
REMARK    3  A    between atoms: N_9  and  S_10
REMARK    4  A    between atoms: S_10  and  C_13
REMARK    5  A    between atoms: C_22  and  C_24
REMARK    6  A    between atoms: C_27  and  O_28
REMARK    7  A    between atoms: O_28  and  C_29
REMARK                            x       y       z     vdW  Elec       q    Type
REMARK                         _______ _______ _______ _____ _____    ______ ____
ROOT
ATOM      1  C   UNL     1       7.262  -4.966  22.947  0.00  0.00    +0.123 A 
ATOM      2  C   UNL     1       6.801  -5.275  24.240  0.00  0.00    +0.058 A 
ATOM      3  C   UNL     1       6.872  -4.361  25.315  0.00  0.00    +0.032 A 
ATOM      4  C   UNL     1       7.467  -3.140  24.967  0.00  0.00    +0.165 A 
ATOM      5  O   UNL     1       7.645  -2.049  25.771  0.00  0.00    -0.423 OA
ATOM      6  C   UNL     1       8.314  -1.156  24.994  0.00  0.00    +0.308 A 
ATOM      7  N   UNL     1       8.605  -1.588  23.789  0.00  0.00    -0.194 NA
ATOM      8  N   UNL     1       8.753   0.080  25.494  0.00  0.00    -0.169 N 
ATOM      9  H   UNL     1       9.619   0.378  25.051  0.00  0.00    +0.178 HD
ATOM     10  C   UNL     1       8.004  -2.824  23.731  0.00  0.00    +0.115 A 
ATOM     11  C   UNL     1       7.887  -3.741  22.678  0.00  0.00    +0.077 A 
ENDROOT
BRANCH   3  12
ATOM     12  C   UNL     1       6.409  -4.643  26.683  0.00  0.00    +0.004 A 
ATOM     13  C   UNL     1       5.218  -4.119  27.203  0.00  0.00    +0.015 A 
ATOM     14  C   UNL     1       4.792  -4.465  28.489  0.00  0.00    +0.068 A 
ATOM     15  C   UNL     1       5.567  -5.338  29.231  0.00  0.00    +0.214 A 
ATOM     16  N   UNL     1       6.728  -5.853  28.790  0.00  0.00    -0.221 NA
ATOM     17  C   UNL     1       7.117  -5.489  27.545  0.00  0.00    +0.123 A 
BRANCH  15  18
ATOM     18  O   UNL     1       5.103  -5.680  30.485  0.00  0.00    -0.480 OA
ATOM     19  C   UNL     1       3.759  -6.155  30.459  0.00  0.00    +0.279 C 
ENDBRANCH  15  18
ENDBRANCH   3  12
BRANCH   8  20
ATOM     20  S   UNL     1       7.618   1.297  25.201  0.00  0.00    +0.077 S 
ATOM     21  O   UNL     1       6.922   1.580  26.436  0.00  0.00    -0.150 OA
ATOM     22  O   UNL     1       6.860   0.901  24.030  0.00  0.00    -0.150 OA
BRANCH  20  23
ATOM     23  C   UNL     1       8.559   2.730  24.768  0.00  0.00    +0.128 A 
ATOM     24  C   UNL     1       9.654   2.661  23.905  0.00  0.00    +0.068 A 
ATOM     25 CL   UNL     1      10.246   1.199  23.210  0.00  0.00    -0.082 Cl
ATOM     26  C   UNL     1      10.339   3.837  23.579  0.00  0.00    +0.023 A 
ATOM     27  C   UNL     1       9.934   5.068  24.104  0.00  0.00    +0.021 A 
ATOM     28  C   UNL     1       8.837   5.126  24.958  0.00  0.00    +0.043 A 
ATOM     29 CL   UNL     1       8.334   6.639  25.602  0.00  0.00    -0.083 Cl
ATOM     30  C   UNL     1       8.146   3.967  25.294  0.00  0.00    +0.050 A 
ENDBRANCH  20  23
ENDBRANCH   8  20
BRANCH   1  32
ATOM     31  C   UNL     1       6.202  -5.687  20.953  0.00  0.00    +0.277 C 
ATOM     32  O   UNL     1       7.094  -5.971  22.029  0.00  0.00    -0.495 OA
ENDBRANCH   1  32
TORSDOF 5
ENDMDL
MODEL 8
REMARK VINA RESULT:      -6.8      1.821      2.428
REMARK  Name = 
REMARK  7 active torsions:
REMARK  status: ('A' for Active; 'I' for Inactive)
REMARK    1  A    between atoms: C_1  and  O_2
REMARK    2  A    between atoms: O_2  and  C_3
REMARK    3  A    between atoms: N_9  and  S_10
REMARK    4  A    between atoms: S_10  and  C_13
REMARK    5  A    between atoms: C_22  and  C_24
REMARK    6  A    between atoms: C_27  and  O_28
REMARK    7  A    between atoms: O_28  and  C_29
REMARK                            x       y       z     vdW  Elec       q    Type
REMARK                         _______ _______ _______ _____ _____    ______ ____
ROOT
ATOM      1  C   UNL     1       9.868   1.644  22.698  0.00  0.00    +0.123 A 
ATOM      2  C   UNL     1       8.664   2.090  23.275  0.00  0.00    +0.058 A 
ATOM      3  C   UNL     1       7.604   1.216  23.603  0.00  0.00    +0.032 A 
ATOM      4  C   UNL     1       7.864  -0.121  23.271  0.00  0.00    +0.165 A 
ATOM      5  O   UNL     1       7.056  -1.200  23.495  0.00  0.00    -0.423 OA
ATOM      6  C   UNL     1       7.723  -2.249  22.944  0.00  0.00    +0.308 A 
ATOM      7  N   UNL     1       8.858  -1.933  22.366  0.00  0.00    -0.194 NA
ATOM      8  N   UNL     1       7.173  -3.540  22.904  0.00  0.00    -0.169 N 
ATOM      9  H   UNL     1       7.471  -4.049  22.075  0.00  0.00    +0.178 HD
ATOM     10  C   UNL     1       8.999  -0.591  22.633  0.00  0.00    +0.115 A 
ATOM     11  C   UNL     1      10.045   0.297  22.353  0.00  0.00    +0.077 A 
ENDROOT
BRANCH   3  12
ATOM     12  C   UNL     1       6.328   1.639  24.199  0.00  0.00    +0.004 A 
ATOM     13  C   UNL     1       6.065   1.546  25.573  0.00  0.00    +0.015 A 
ATOM     14  C   UNL     1       4.858   2.016  26.099  0.00  0.00    +0.068 A 
ATOM     15  C   UNL     1       3.935   2.580  25.236  0.00  0.00    +0.214 A 
ATOM     16  N   UNL     1       4.126   2.675  23.909  0.00  0.00    -0.221 NA
ATOM     17  C   UNL     1       5.301   2.200  23.432  0.00  0.00    +0.123 A 
BRANCH  15  18
ATOM     18  O   UNL     1       2.767   3.060  25.793  0.00  0.00    -0.480 OA
ATOM     19  C   UNL     1       1.815   3.455  24.808  0.00  0.00    +0.279 C 
ENDBRANCH  15  18
ENDBRANCH   3  12
BRANCH   8  20
ATOM     20  S   UNL     1       7.663  -4.457  24.237  0.00  0.00    +0.077 S 
ATOM     21  O   UNL     1       8.045  -3.552  25.297  0.00  0.00    -0.150 OA
ATOM     22  O   UNL     1       8.619  -5.434  23.754  0.00  0.00    -0.150 OA
BRANCH  20  23
ATOM     23  C   UNL     1       6.222  -5.334  24.764  0.00  0.00    +0.128 A 
ATOM     24  C   UNL     1       6.081  -5.808  26.069  0.00  0.00    +0.068 A 
ATOM     25 CL   UNL     1       7.287  -5.647  27.290  0.00  0.00    -0.082 Cl
ATOM     26  C   UNL     1       4.902  -6.469  26.430  0.00  0.00    +0.023 A 
ATOM     27  C   UNL     1       3.872  -6.651  25.502  0.00  0.00    +0.021 A 
ATOM     28  C   UNL     1       4.021  -6.170  24.205  0.00  0.00    +0.043 A 
ATOM     29 CL   UNL     1       2.756  -6.391  23.061  0.00  0.00    -0.083 Cl
ATOM     30  C   UNL     1       5.187  -5.513  23.828  0.00  0.00    +0.050 A 
ENDBRANCH  20  23
ENDBRANCH   8  20
BRANCH   1  32
ATOM     31  C   UNL     1      10.849   3.667  23.448  0.00  0.00    +0.277 C 
ATOM     32  O   UNL     1      10.789   2.634  22.468  0.00  0.00    -0.495 OA
ENDBRANCH   1  32
TORSDOF 5
ENDMDL
MODEL 9
REMARK VINA RESULT:      -6.6      1.961      2.823
REMARK  Name = 
REMARK  7 active torsions:
REMARK  status: ('A' for Active; 'I' for Inactive)
REMARK    1  A    between atoms: C_1  and  O_2
REMARK    2  A    between atoms: O_2  and  C_3
REMARK    3  A    between atoms: N_9  and  S_10
REMARK    4  A    between atoms: S_10  and  C_13
REMARK    5  A    between atoms: C_22  and  C_24
REMARK    6  A    between atoms: C_27  and  O_28
REMARK    7  A    between atoms: O_28  and  C_29
REMARK                            x       y       z     vdW  Elec       q    Type
REMARK                         _______ _______ _______ _____ _____    ______ ____
ROOT
ATOM      1  C   UNL     1      10.228   2.809  23.255  0.00  0.00    +0.123 A 
ATOM      2  C   UNL     1       8.864   3.146  23.338  0.00  0.00    +0.058 A 
ATOM      3  C   UNL     1       7.831   2.194  23.184  0.00  0.00    +0.032 A 
ATOM      4  C   UNL     1       8.304   0.902  22.916  0.00  0.00    +0.165 A 
ATOM      5  O   UNL     1       7.560  -0.234  22.755  0.00  0.00    -0.423 OA
ATOM      6  C   UNL     1       8.467  -1.201  22.459  0.00  0.00    +0.308 A 
ATOM      7  N   UNL     1       9.709  -0.781  22.385  0.00  0.00    -0.194 NA
ATOM      8  N   UNL     1       8.079  -2.513  22.145  0.00  0.00    -0.169 N 
ATOM      9  H   UNL     1       8.712  -2.942  21.475  0.00  0.00    +0.178 HD
ATOM     10  C   UNL     1       9.630   0.542  22.749  0.00  0.00    +0.115 A 
ATOM     11  C   UNL     1      10.630   1.504  22.942  0.00  0.00    +0.077 A 
ENDROOT
BRANCH   3  12
ATOM     12  C   UNL     1       6.395   2.502  23.256  0.00  0.00    +0.004 A 
ATOM     13  C   UNL     1       5.727   3.239  22.269  0.00  0.00    +0.015 A 
ATOM     14  C   UNL     1       4.348   3.455  22.354  0.00  0.00    +0.068 A 
ATOM     15  C   UNL     1       3.659   2.919  23.428  0.00  0.00    +0.214 A 
ATOM     16  N   UNL     1       4.253   2.223  24.414  0.00  0.00    -0.221 NA
ATOM     17  C   UNL     1       5.590   2.043  24.306  0.00  0.00    +0.123 A 
BRANCH  15  18
ATOM     18  O   UNL     1       2.296   3.127  23.466  0.00  0.00    -0.480 OA
ATOM     19  C   UNL     1       1.939   4.470  23.146  0.00  0.00    +0.279 C 
ENDBRANCH  15  18
ENDBRANCH   3  12
BRANCH   8  20
ATOM     20  S   UNL     1       8.088  -3.499  23.518  0.00  0.00    +0.077 S 
ATOM     21  O   UNL     1       9.445  -3.584  24.010  0.00  0.00    -0.150 OA
ATOM     22  O   UNL     1       7.376  -4.714  23.175  0.00  0.00    -0.150 OA
BRANCH  20  23
ATOM     23  C   UNL     1       7.126  -2.638  24.726  0.00  0.00    +0.128 A 
ATOM     24  C   UNL     1       5.737  -2.759  24.787  0.00  0.00    +0.068 A 
ATOM     25 CL   UNL     1       4.799  -3.698  23.687  0.00  0.00    -0.082 Cl
ATOM     26  C   UNL     1       5.037  -2.074  25.787  0.00  0.00    +0.023 A 
ATOM     27  C   UNL     1       5.715  -1.282  26.718  0.00  0.00    +0.021 A 
ATOM     28  C   UNL     1       7.101  -1.173  26.651  0.00  0.00    +0.043 A 
ATOM     29 CL   UNL     1       7.937  -0.202  27.797  0.00  0.00    -0.083 Cl
ATOM     30  C   UNL     1       7.812  -1.845  25.663  0.00  0.00    +0.050 A 
ENDBRANCH  20  23
ENDBRANCH   8  20
BRANCH   1  32
ATOM     31  C   UNL     1      10.475   5.111  23.763  0.00  0.00    +0.277 C 
ATOM     32  O   UNL     1      11.086   3.862  23.450  0.00  0.00    -0.495 OA
ENDBRANCH   1  32
TORSDOF 5
ENDMDL
