MODEL 1
REMARK VINA RESULT:      -6.7      0.000      0.000
REMARK  Name = 
REMARK  15 active torsions:
REMARK  status: ('A' for Active; 'I' for Inactive)
REMARK    1  A    between atoms: C_2  and  C_3
REMARK    2  A    between atoms: C_2  and  N_8
REMARK    3  A    between atoms: C_2  and  C_28
REMARK    4  A    between atoms: C_3  and  C_4
REMARK    5  A    between atoms: C_4  and  C_5
REMARK    6  A    between atoms: C_5  and  O_6
REMARK    7  A    between atoms: N_8  and  S_9
REMARK    8  A    between atoms: S_9  and  C_12
REMARK    9  A    between atoms: C_19  and  O_20
REMARK   10  A    between atoms: O_20  and  C_21
REMARK   11  A    between atoms: C_21  and  C_22
REMARK   12  A    between atoms: C_22  and  C_23
REMARK   13  A    between atoms: C_23  and  C_24
REMARK   14  A    between atoms: C_24  and  C_25
REMARK   15  A    between atoms: C_28  and  O_29
REMARK                            x       y       z     vdW  Elec       q    Type
REMARK                         _______ _______ _______ _____ _____    ______ ____
ROOT
ATOM      1  S   UNL     1       8.250  -3.755  23.855  0.00  0.00    +0.059 S 
ATOM      2  O   UNL     1       7.584  -3.973  22.596  0.00  0.00    -0.153 OA
ATOM      3  O   UNL     1       9.415  -4.516  24.246  0.00  0.00    -0.153 OA
ENDROOT
BRANCH   1   4
ATOM      4  C   UNL     1       8.625  -2.029  24.005  0.00  0.00    +0.106 A 
ATOM      5  C   UNL     1       8.665  -1.448  25.273  0.00  0.00    +0.029 A 
ATOM      6  C   UNL     1       9.073  -0.121  25.406  0.00  0.00    +0.010 A 
ATOM      7  C   UNL     1       9.438   0.636  24.281  0.00  0.00    -0.014 A 
ATOM      8  C   UNL     1       9.868   1.965  24.409  0.00  0.00    +0.054 A 
ATOM      9  C   UNL     1      10.197   2.725  23.286  0.00  0.00    +0.121 A 
ATOM     10  C   UNL     1      10.139   2.143  22.021  0.00  0.00    +0.046 A 
ATOM     11  C   UNL     1       9.740   0.810  21.878  0.00  0.00    +0.012 A 
ATOM     12  C   UNL     1       9.383   0.044  22.996  0.00  0.00    -0.016 A 
ATOM     13  C   UNL     1       8.994  -1.298  22.870  0.00  0.00    +0.037 A 
BRANCH   9  14
ATOM     14  O   UNL     1      10.611   4.005  23.542  0.00  0.00    -0.492 OA
BRANCH  14  15
ATOM     15  C   UNL     1       9.692   4.800  24.292  0.00  0.00    +0.229 C 
BRANCH  15  16
ATOM     16  C   UNL     1       8.840   5.611  23.320  0.00  0.00    +0.041 C 
BRANCH  16  17
ATOM     17  C   UNL     1       7.390   5.131  23.349  0.00  0.00    +0.003 C 
BRANCH  17  18
ATOM     18  C   UNL     1       7.083   4.168  22.206  0.00  0.00    -0.003 C 
ATOM     19  C   UNL     1       6.493   2.869  22.733  0.00  0.00    +0.004 C 
ENDBRANCH  17  18
ENDBRANCH  16  17
ENDBRANCH  15  16
ENDBRANCH  14  15
ENDBRANCH   9  14
ENDBRANCH   1   4
BRANCH   1  20
ATOM     20  N   UNL     1       7.138  -4.028  25.086  0.00  0.00    -0.176 NA
ATOM     21  H   UNL     1       6.861  -3.198  25.612  0.00  0.00    +0.149 HD
BRANCH  20  22
ATOM     22  C   UNL     1       7.038  -5.380  25.677  0.00  0.00    +0.185 C 
BRANCH  22  23
ATOM     23  C   UNL     1       7.718  -5.485  27.046  0.00  0.00    +0.324 C 
ATOM     24  O   UNL     1       7.181  -5.988  28.024  0.00  0.00    -0.249 OA
BRANCH  23  25
ATOM     25  O   UNL     1       8.931  -4.891  27.115  0.00  0.00    -0.479 OA
ATOM     26  H   UNL     1       8.881  -3.920  27.037  0.00  0.00    +0.295 HD
ENDBRANCH  23  25
ENDBRANCH  22  23
BRANCH  22  27
ATOM     27  C   UNL     1       5.562  -5.770  25.845  0.00  0.00    +0.043 C 
BRANCH  27  28
ATOM     28  C   UNL     1       4.644  -5.215  24.751  0.00  0.00    +0.122 C 
BRANCH  28  29
ATOM     29  C   UNL     1       4.662  -6.098  23.519  0.00  0.00    +0.305 C 
ATOM     30  O   UNL     1       4.756  -5.691  22.371  0.00  0.00    -0.251 OA
BRANCH  29  31
ATOM     31  O   UNL     1       4.576  -7.410  23.816  0.00  0.00    -0.481 OA
ATOM     32  H   UNL     1       4.120  -7.611  24.654  0.00  0.00    +0.295 HD
ENDBRANCH  29  31
ENDBRANCH  28  29
ENDBRANCH  27  28
ENDBRANCH  22  27
ENDBRANCH  20  22
ENDBRANCH   1  20
TORSDOF 14
ENDMDL
MODEL 2
REMARK VINA RESULT:      -6.6      1.490      2.355
REMARK  Name = 
REMARK  15 active torsions:
REMARK  status: ('A' for Active; 'I' for Inactive)
REMARK    1  A    between atoms: C_2  and  C_3
REMARK    2  A    between atoms: C_2  and  N_8
REMARK    3  A    between atoms: C_2  and  C_28
REMARK    4  A    between atoms: C_3  and  C_4
REMARK    5  A    between atoms: C_4  and  C_5
REMARK    6  A    between atoms: C_5  and  O_6
REMARK    7  A    between atoms: N_8  and  S_9
REMARK    8  A    between atoms: S_9  and  C_12
REMARK    9  A    between atoms: C_19  and  O_20
REMARK   10  A    between atoms: O_20  and  C_21
REMARK   11  A    between atoms: C_21  and  C_22
REMARK   12  A    between atoms: C_22  and  C_23
REMARK   13  A    between atoms: C_23  and  C_24
REMARK   14  A    between atoms: C_24  and  C_25
REMARK   15  A    between atoms: C_28  and  O_29
REMARK                            x       y       z     vdW  Elec       q    Type
REMARK                         _______ _______ _______ _____ _____    ______ ____
ROOT
ATOM      1  S   UNL     1       8.569  -3.126  23.829  0.00  0.00    +0.059 S 
ATOM      2  O   UNL     1       7.937  -3.443  22.573  0.00  0.00    -0.153 OA
ATOM      3  O   UNL     1       9.837  -3.703  24.214  0.00  0.00    -0.153 OA
ENDROOT
BRANCH   1   4
ATOM      4  C   UNL     1       8.680  -1.364  23.977  0.00  0.00    +0.106 A 
ATOM      5  C   UNL     1       9.601  -0.811  24.868  0.00  0.00    +0.029 A 
ATOM      6  C   UNL     1       9.775   0.573  24.903  0.00  0.00    +0.010 A 
ATOM      7  C   UNL     1       9.033   1.413  24.058  0.00  0.00    -0.014 A 
ATOM      8  C   UNL     1       9.216   2.804  24.074  0.00  0.00    +0.054 A 
ATOM      9  C   UNL     1       8.453   3.639  23.258  0.00  0.00    +0.121 A 
ATOM     10  C   UNL     1       7.523   3.081  22.381  0.00  0.00    +0.046 A 
ATOM     11  C   UNL     1       7.348   1.694  22.332  0.00  0.00    +0.012 A 
ATOM     12  C   UNL     1       8.092   0.847  23.165  0.00  0.00    -0.016 A 
ATOM     13  C   UNL     1       7.937  -0.548  23.117  0.00  0.00    +0.037 A 
BRANCH   9  14
ATOM     14  O   UNL     1       8.731   4.976  23.358  0.00  0.00    -0.492 OA
BRANCH  14  15
ATOM     15  C   UNL     1       9.498   5.350  24.503  0.00  0.00    +0.229 C 
BRANCH  15  16
ATOM     16  C   UNL     1      10.449   6.476  24.107  0.00  0.00    +0.041 C 
BRANCH  16  17
ATOM     17  C   UNL     1      11.902   6.034  24.273  0.00  0.00    +0.003 C 
BRANCH  17  18
ATOM     18  C   UNL     1      12.293   4.964  23.259  0.00  0.00    -0.003 C 
ATOM     19  C   UNL     1      13.197   5.540  22.181  0.00  0.00    +0.004 C 
ENDBRANCH  17  18
ENDBRANCH  16  17
ENDBRANCH  15  16
ENDBRANCH  14  15
ENDBRANCH   9  14
ENDBRANCH   1   4
BRANCH   1  20
ATOM     20  N   UNL     1       7.516  -3.563  25.065  0.00  0.00    -0.176 NA
ATOM     21  H   UNL     1       7.294  -2.819  25.728  0.00  0.00    +0.149 HD
BRANCH  20  22
ATOM     22  C   UNL     1       7.406  -4.988  25.445  0.00  0.00    +0.185 C 
BRANCH  22  23
ATOM     23  C   UNL     1       7.973  -5.280  26.838  0.00  0.00    +0.324 C 
ATOM     24  O   UNL     1       7.317  -5.789  27.736  0.00  0.00    -0.249 OA
BRANCH  23  25
ATOM     25  O   UNL     1       9.240  -4.843  27.029  0.00  0.00    -0.479 OA
ATOM     26  H   UNL     1       9.385  -3.944  26.682  0.00  0.00    +0.295 HD
ENDBRANCH  23  25
ENDBRANCH  22  23
BRANCH  22  27
ATOM     27  C   UNL     1       5.933  -5.421  25.429  0.00  0.00    +0.043 C 
BRANCH  27  28
ATOM     28  C   UNL     1       5.000  -4.427  24.727  0.00  0.00    +0.122 C 
BRANCH  28  29
ATOM     29  C   UNL     1       4.725  -4.848  23.298  0.00  0.00    +0.305 C 
ATOM     30  O   UNL     1       4.368  -5.964  22.955  0.00  0.00    -0.251 OA
BRANCH  29  31
ATOM     31  O   UNL     1       4.904  -3.844  22.415  0.00  0.00    -0.481 OA
ATOM     32  H   UNL     1       4.792  -4.097  21.479  0.00  0.00    +0.295 HD
ENDBRANCH  29  31
ENDBRANCH  28  29
ENDBRANCH  27  28
ENDBRANCH  22  27
ENDBRANCH  20  22
ENDBRANCH   1  20
TORSDOF 14
ENDMDL
MODEL 3
REMARK VINA RESULT:      -6.6      1.751      3.025
REMARK  Name = 
REMARK  15 active torsions:
REMARK  status: ('A' for Active; 'I' for Inactive)
REMARK    1  A    between atoms: C_2  and  C_3
REMARK    2  A    between atoms: C_2  and  N_8
REMARK    3  A    between atoms: C_2  and  C_28
REMARK    4  A    between atoms: C_3  and  C_4
REMARK    5  A    between atoms: C_4  and  C_5
REMARK    6  A    between atoms: C_5  and  O_6
REMARK    7  A    between atoms: N_8  and  S_9
REMARK    8  A    between atoms: S_9  and  C_12
REMARK    9  A    between atoms: C_19  and  O_20
REMARK   10  A    between atoms: O_20  and  C_21
REMARK   11  A    between atoms: C_21  and  C_22
REMARK   12  A    between atoms: C_22  and  C_23
REMARK   13  A    between atoms: C_23  and  C_24
REMARK   14  A    between atoms: C_24  and  C_25
REMARK   15  A    between atoms: C_28  and  O_29
REMARK                            x       y       z     vdW  Elec       q    Type
REMARK                         _______ _______ _______ _____ _____    ______ ____
ROOT
ATOM      1  S   UNL     1       8.111  -4.699  25.673  0.00  0.00    +0.059 S 
ATOM      2  O   UNL     1       8.650  -5.588  24.676  0.00  0.00    -0.153 OA
ATOM      3  O   UNL     1       8.428  -4.841  27.076  0.00  0.00    -0.153 OA
ENDROOT
BRANCH   1   4
ATOM      4  C   UNL     1       8.445  -3.030  25.182  0.00  0.00    +0.106 A 
ATOM      5  C   UNL     1       8.537  -2.037  26.159  0.00  0.00    +0.029 A 
ATOM      6  C   UNL     1       8.915  -0.746  25.791  0.00  0.00    +0.010 A 
ATOM      7  C   UNL     1       9.199  -0.434  24.452  0.00  0.00    -0.014 A 
ATOM      8  C   UNL     1       9.599   0.857  24.077  0.00  0.00    +0.054 A 
ATOM      9  C   UNL     1       9.847   1.174  22.740  0.00  0.00    +0.121 A 
ATOM     10  C   UNL     1       9.737   0.181  21.768  0.00  0.00    +0.046 A 
ATOM     11  C   UNL     1       9.369  -1.119  22.128  0.00  0.00    +0.012 A 
ATOM     12  C   UNL     1       9.092  -1.442  23.464  0.00  0.00    -0.016 A 
ATOM     13  C   UNL     1       8.733  -2.745  23.843  0.00  0.00    +0.037 A 
BRANCH   9  14
ATOM     14  O   UNL     1      10.239   2.464  22.504  0.00  0.00    -0.492 OA
BRANCH  14  15
ATOM     15  C   UNL     1      10.947   3.088  23.574  0.00  0.00    +0.229 C 
BRANCH  15  16
ATOM     16  C   UNL     1      10.316   4.450  23.850  0.00  0.00    +0.041 C 
BRANCH  16  17
ATOM     17  C   UNL     1      11.180   5.569  23.272  0.00  0.00    +0.003 C 
BRANCH  17  18
ATOM     18  C   UNL     1      12.663   5.211  23.286  0.00  0.00    -0.003 C 
ATOM     19  C   UNL     1      13.342   5.653  21.999  0.00  0.00    +0.004 C 
ENDBRANCH  17  18
ENDBRANCH  16  17
ENDBRANCH  15  16
ENDBRANCH  14  15
ENDBRANCH   9  14
ENDBRANCH   1   4
BRANCH   1  20
ATOM     20  N   UNL     1       6.434  -4.803  25.609  0.00  0.00    -0.176 NA
ATOM     21  H   UNL     1       5.960  -4.715  26.509  0.00  0.00    +0.149 HD
BRANCH  20  22
ATOM     22  C   UNL     1       5.800  -5.508  24.474  0.00  0.00    +0.185 C 
BRANCH  22  23
ATOM     23  C   UNL     1       4.853  -6.627  24.919  0.00  0.00    +0.324 C 
ATOM     24  O   UNL     1       4.613  -6.875  26.092  0.00  0.00    -0.249 OA
BRANCH  23  25
ATOM     25  O   UNL     1       4.370  -7.386  23.908  0.00  0.00    -0.479 OA
ATOM     26  H   UNL     1       3.603  -7.925  24.175  0.00  0.00    +0.295 HD
ENDBRANCH  23  25
ENDBRANCH  22  23
BRANCH  22  27
ATOM     27  C   UNL     1       4.997  -4.513  23.623  0.00  0.00    +0.043 C 
BRANCH  27  28
ATOM     28  C   UNL     1       5.677  -4.135  22.302  0.00  0.00    +0.122 C 
BRANCH  28  29
ATOM     29  C   UNL     1       6.277  -5.351  21.625  0.00  0.00    +0.305 C 
ATOM     30  O   UNL     1       7.468  -5.513  21.409  0.00  0.00    -0.251 OA
BRANCH  29  31
ATOM     31  O   UNL     1       5.350  -6.270  21.285  0.00  0.00    -0.481 OA
ATOM     32  H   UNL     1       5.680  -7.187  21.240  0.00  0.00    +0.295 HD
ENDBRANCH  29  31
ENDBRANCH  28  29
ENDBRANCH  27  28
ENDBRANCH  22  27
ENDBRANCH  20  22
ENDBRANCH   1  20
TORSDOF 14
ENDMDL
MODEL 4
REMARK VINA RESULT:      -6.5      1.936      3.602
REMARK  Name = 
REMARK  15 active torsions:
REMARK  status: ('A' for Active; 'I' for Inactive)
REMARK    1  A    between atoms: C_2  and  C_3
REMARK    2  A    between atoms: C_2  and  N_8
REMARK    3  A    between atoms: C_2  and  C_28
REMARK    4  A    between atoms: C_3  and  C_4
REMARK    5  A    between atoms: C_4  and  C_5
REMARK    6  A    between atoms: C_5  and  O_6
REMARK    7  A    between atoms: N_8  and  S_9
REMARK    8  A    between atoms: S_9  and  C_12
REMARK    9  A    between atoms: C_19  and  O_20
REMARK   10  A    between atoms: O_20  and  C_21
REMARK   11  A    between atoms: C_21  and  C_22
REMARK   12  A    between atoms: C_22  and  C_23
REMARK   13  A    between atoms: C_23  and  C_24
REMARK   14  A    between atoms: C_24  and  C_25
REMARK   15  A    between atoms: C_28  and  O_29
REMARK                            x       y       z     vdW  Elec       q    Type
REMARK                         _______ _______ _______ _____ _____    ______ ____
ROOT
ATOM      1  S   UNL     1       5.809  -4.631  22.487  0.00  0.00    +0.059 S 
ATOM      2  O   UNL     1       4.378  -4.541  22.627  0.00  0.00    -0.153 OA
ATOM      3  O   UNL     1       6.430  -5.125  21.278  0.00  0.00    -0.153 OA
ENDROOT
BRANCH   1   4
ATOM      4  C   UNL     1       6.515  -3.055  22.883  0.00  0.00    +0.106 A 
ATOM      5  C   UNL     1       5.811  -2.181  23.713  0.00  0.00    +0.029 A 
ATOM      6  C   UNL     1       6.413  -0.991  24.123  0.00  0.00    +0.010 A 
ATOM      7  C   UNL     1       7.712  -0.661  23.707  0.00  0.00    -0.014 A 
ATOM      8  C   UNL     1       8.331   0.524  24.130  0.00  0.00    +0.054 A 
ATOM      9  C   UNL     1       9.610   0.866  23.687  0.00  0.00    +0.121 A 
ATOM     10  C   UNL     1      10.301  -0.004  22.844  0.00  0.00    +0.046 A 
ATOM     11  C   UNL     1       9.710  -1.204  22.436  0.00  0.00    +0.012 A 
ATOM     12  C   UNL     1       8.417  -1.546  22.855  0.00  0.00    -0.016 A 
ATOM     13  C   UNL     1       7.816  -2.753  22.464  0.00  0.00    +0.037 A 
BRANCH   9  14
ATOM     14  O   UNL     1      10.108   2.043  24.177  0.00  0.00    -0.492 OA
BRANCH  14  15
ATOM     15  C   UNL     1      10.284   3.077  23.209  0.00  0.00    +0.229 C 
BRANCH  15  16
ATOM     16  C   UNL     1       9.945   4.417  23.856  0.00  0.00    +0.041 C 
BRANCH  16  17
ATOM     17  C   UNL     1      11.102   5.401  23.690  0.00  0.00    +0.003 C 
BRANCH  17  18
ATOM     18  C   UNL     1      12.388   4.702  23.258  0.00  0.00    -0.003 C 
ATOM     19  C   UNL     1      13.191   5.580  22.309  0.00  0.00    +0.004 C 
ENDBRANCH  17  18
ENDBRANCH  16  17
ENDBRANCH  15  16
ENDBRANCH  14  15
ENDBRANCH   9  14
ENDBRANCH   1   4
BRANCH   1  20
ATOM     20  N   UNL     1       6.387  -5.642  23.699  0.00  0.00    -0.176 NA
ATOM     21  H   UNL     1       6.681  -6.568  23.388  0.00  0.00    +0.149 HD
BRANCH  20  22
ATOM     22  C   UNL     1       5.969  -5.399  25.097  0.00  0.00    +0.185 C 
BRANCH  22  23
ATOM     23  C   UNL     1       4.945  -6.421  25.600  0.00  0.00    +0.324 C 
ATOM     24  O   UNL     1       5.104  -7.085  26.615  0.00  0.00    -0.249 OA
BRANCH  23  25
ATOM     25  O   UNL     1       3.885  -6.602  24.779  0.00  0.00    -0.479 OA
ATOM     26  H   UNL     1       3.626  -7.538  24.698  0.00  0.00    +0.295 HD
ENDBRANCH  23  25
ENDBRANCH  22  23
BRANCH  22  27
ATOM     27  C   UNL     1       7.191  -5.451  26.026  0.00  0.00    +0.043 C 
BRANCH  27  28
ATOM     28  C   UNL     1       8.168  -4.285  25.832  0.00  0.00    +0.122 C 
BRANCH  28  29
ATOM     29  C   UNL     1       9.486  -4.763  25.257  0.00  0.00    +0.305 C 
ATOM     30  O   UNL     1      10.206  -4.104  24.523  0.00  0.00    -0.251 OA
BRANCH  29  31
ATOM     31  O   UNL     1       9.806  -6.012  25.651  0.00  0.00    -0.481 OA
ATOM     32  H   UNL     1       9.042  -6.590  25.840  0.00  0.00    +0.295 HD
ENDBRANCH  29  31
ENDBRANCH  28  29
ENDBRANCH  27  28
ENDBRANCH  22  27
ENDBRANCH  20  22
ENDBRANCH   1  20
TORSDOF 14
ENDMDL
MODEL 5
REMARK VINA RESULT:      -6.4      1.457      2.143
REMARK  Name = 
REMARK  15 active torsions:
REMARK  status: ('A' for Active; 'I' for Inactive)
REMARK    1  A    between atoms: C_2  and  C_3
REMARK    2  A    between atoms: C_2  and  N_8
REMARK    3  A    between atoms: C_2  and  C_28
REMARK    4  A    between atoms: C_3  and  C_4
REMARK    5  A    between atoms: C_4  and  C_5
REMARK    6  A    between atoms: C_5  and  O_6
REMARK    7  A    between atoms: N_8  and  S_9
REMARK    8  A    between atoms: S_9  and  C_12
REMARK    9  A    between atoms: C_19  and  O_20
REMARK   10  A    between atoms: O_20  and  C_21
REMARK   11  A    between atoms: C_21  and  C_22
REMARK   12  A    between atoms: C_22  and  C_23
REMARK   13  A    between atoms: C_23  and  C_24
REMARK   14  A    between atoms: C_24  and  C_25
REMARK   15  A    between atoms: C_28  and  O_29
REMARK                            x       y       z     vdW  Elec       q    Type
REMARK                         _______ _______ _______ _____ _____    ______ ____
ROOT
ATOM      1  S   UNL     1       8.883  -2.640  23.861  0.00  0.00    +0.059 S 
ATOM      2  O   UNL     1       8.051  -2.856  22.705  0.00  0.00    -0.153 OA
ATOM      3  O   UNL     1      10.124  -3.357  24.055  0.00  0.00    -0.153 OA
ENDROOT
BRANCH   1   4
ATOM      4  C   UNL     1       9.202  -0.904  24.013  0.00  0.00    +0.106 A 
ATOM      5  C   UNL     1      10.237  -0.333  23.272  0.00  0.00    +0.029 A 
ATOM      6  C   UNL     1      10.417   1.050  23.298  0.00  0.00    +0.010 A 
ATOM      7  C   UNL     1       9.573   1.871  24.063  0.00  0.00    -0.014 A 
ATOM      8  C   UNL     1       9.736   3.264  24.079  0.00  0.00    +0.054 A 
ATOM      9  C   UNL     1       8.918   4.075  24.867  0.00  0.00    +0.121 A 
ATOM     10  C   UNL     1       7.896   3.496  25.618  0.00  0.00    +0.046 A 
ATOM     11  C   UNL     1       7.701   2.111  25.591  0.00  0.00    +0.012 A 
ATOM     12  C   UNL     1       8.533   1.285  24.823  0.00  0.00    -0.016 A 
ATOM     13  C   UNL     1       8.342  -0.105  24.775  0.00  0.00    +0.037 A 
BRANCH   9  14
ATOM     14  O   UNL     1       9.170   5.418  24.790  0.00  0.00    -0.492 OA
BRANCH  14  15
ATOM     15  C   UNL     1       9.226   5.949  23.466  0.00  0.00    +0.229 C 
BRANCH  15  16
ATOM     16  C   UNL     1       7.857   6.522  23.110  0.00  0.00    +0.041 C 
BRANCH  16  17
ATOM     17  C   UNL     1       7.225   5.730  21.967  0.00  0.00    +0.003 C 
BRANCH  17  18
ATOM     18  C   UNL     1       6.225   4.695  22.474  0.00  0.00    -0.003 C 
ATOM     19  C   UNL     1       6.643   3.290  22.066  0.00  0.00    +0.004 C 
ENDBRANCH  17  18
ENDBRANCH  16  17
ENDBRANCH  15  16
ENDBRANCH  14  15
ENDBRANCH   9  14
ENDBRANCH   1   4
BRANCH   1  20
ATOM     20  N   UNL     1       7.974  -2.999  25.229  0.00  0.00    -0.176 NA
ATOM     21  H   UNL     1       8.127  -2.379  26.025  0.00  0.00    +0.149 HD
BRANCH  20  22
ATOM     22  C   UNL     1       7.466  -4.375  25.414  0.00  0.00    +0.185 C 
BRANCH  22  23
ATOM     23  C   UNL     1       8.166  -5.122  26.554  0.00  0.00    +0.324 C 
ATOM     24  O   UNL     1       7.564  -5.636  27.487  0.00  0.00    -0.249 OA
BRANCH  23  25
ATOM     25  O   UNL     1       9.517  -5.088  26.498  0.00  0.00    -0.479 OA
ATOM     26  H   UNL     1       9.871  -4.181  26.466  0.00  0.00    +0.295 HD
ENDBRANCH  23  25
ENDBRANCH  22  23
BRANCH  22  27
ATOM     27  C   UNL     1       5.961  -4.342  25.718  0.00  0.00    +0.043 C 
BRANCH  27  28
ATOM     28  C   UNL     1       5.086  -4.892  24.587  0.00  0.00    +0.122 C 
BRANCH  28  29
ATOM     29  C   UNL     1       5.006  -3.916  23.430  0.00  0.00    +0.305 C 
ATOM     30  O   UNL     1       4.779  -4.226  22.271  0.00  0.00    -0.251 OA
BRANCH  29  31
ATOM     31  O   UNL     1       5.202  -2.638  23.811  0.00  0.00    -0.481 OA
ATOM     32  H   UNL     1       5.020  -2.458  24.753  0.00  0.00    +0.295 HD
ENDBRANCH  29  31
ENDBRANCH  28  29
ENDBRANCH  27  28
ENDBRANCH  22  27
ENDBRANCH  20  22
ENDBRANCH   1  20
TORSDOF 14
ENDMDL
MODEL 6
REMARK VINA RESULT:      -6.2      1.704      3.267
REMARK  Name = 
REMARK  15 active torsions:
REMARK  status: ('A' for Active; 'I' for Inactive)
REMARK    1  A    between atoms: C_2  and  C_3
REMARK    2  A    between atoms: C_2  and  N_8
REMARK    3  A    between atoms: C_2  and  C_28
REMARK    4  A    between atoms: C_3  and  C_4
REMARK    5  A    between atoms: C_4  and  C_5
REMARK    6  A    between atoms: C_5  and  O_6
REMARK    7  A    between atoms: N_8  and  S_9
REMARK    8  A    between atoms: S_9  and  C_12
REMARK    9  A    between atoms: C_19  and  O_20
REMARK   10  A    between atoms: O_20  and  C_21
REMARK   11  A    between atoms: C_21  and  C_22
REMARK   12  A    between atoms: C_22  and  C_23
REMARK   13  A    between atoms: C_23  and  C_24
REMARK   14  A    between atoms: C_24  and  C_25
REMARK   15  A    between atoms: C_28  and  O_29
REMARK                            x       y       z     vdW  Elec       q    Type
REMARK                         _______ _______ _______ _____ _____    ______ ____
ROOT
ATOM      1  S   UNL     1       9.130  -2.056  23.162  0.00  0.00    +0.059 S 
ATOM      2  O   UNL     1       8.519  -2.223  21.868  0.00  0.00    -0.153 OA
ATOM      3  O   UNL     1      10.345  -2.748  23.529  0.00  0.00    -0.153 OA
ENDROOT
BRANCH   1   4
ATOM      4  C   UNL     1       9.352  -0.324  23.463  0.00  0.00    +0.106 A 
ATOM      5  C   UNL     1      10.250   0.396  22.674  0.00  0.00    +0.029 A 
ATOM      6  C   UNL     1      10.342   1.779  22.828  0.00  0.00    +0.010 A 
ATOM      7  C   UNL     1       9.547   2.453  23.769  0.00  0.00    -0.014 A 
ATOM      8  C   UNL     1       9.619   3.846  23.917  0.00  0.00    +0.054 A 
ATOM      9  C   UNL     1       8.853   4.508  24.877  0.00  0.00    +0.121 A 
ATOM     10  C   UNL     1       7.970   3.780  25.673  0.00  0.00    +0.046 A 
ATOM     11  C   UNL     1       7.863   2.395  25.519  0.00  0.00    +0.012 A 
ATOM     12  C   UNL     1       8.646   1.715  24.575  0.00  0.00    -0.016 A 
ATOM     13  C   UNL     1       8.541   0.326  24.400  0.00  0.00    +0.037 A 
BRANCH   9  14
ATOM     14  O   UNL     1       9.006   5.868  24.917  0.00  0.00    -0.492 OA
BRANCH  14  15
ATOM     15  C   UNL     1       9.138   6.501  23.644  0.00  0.00    +0.229 C 
BRANCH  15  16
ATOM     16  C   UNL     1       7.755   6.940  23.171  0.00  0.00    +0.041 C 
BRANCH  16  17
ATOM     17  C   UNL     1       7.246   6.012  22.068  0.00  0.00    +0.003 C 
BRANCH  17  18
ATOM     18  C   UNL     1       6.146   5.080  22.568  0.00  0.00    -0.003 C 
ATOM     19  C   UNL     1       6.427   3.641  22.162  0.00  0.00    +0.004 C 
ENDBRANCH  17  18
ENDBRANCH  16  17
ENDBRANCH  15  16
ENDBRANCH  14  15
ENDBRANCH   9  14
ENDBRANCH   1   4
BRANCH   1  20
ATOM     20  N   UNL     1       8.012  -2.522  24.328  0.00  0.00    -0.176 NA
ATOM     21  H   UNL     1       8.302  -2.364  25.294  0.00  0.00    +0.149 HD
BRANCH  20  22
ATOM     22  C   UNL     1       7.005  -3.550  23.988  0.00  0.00    +0.185 C 
BRANCH  22  23
ATOM     23  C   UNL     1       7.608  -4.761  23.270  0.00  0.00    +0.324 C 
ATOM     24  O   UNL     1       8.485  -5.462  23.758  0.00  0.00    -0.249 OA
BRANCH  23  25
ATOM     25  O   UNL     1       7.158  -4.945  22.007  0.00  0.00    -0.479 OA
ATOM     26  H   UNL     1       6.202  -5.130  21.971  0.00  0.00    +0.295 HD
ENDBRANCH  23  25
ENDBRANCH  22  23
BRANCH  22  27
ATOM     27  C   UNL     1       6.312  -4.048  25.265  0.00  0.00    +0.043 C 
BRANCH  27  28
ATOM     28  C   UNL     1       7.099  -3.763  26.549  0.00  0.00    +0.122 C 
BRANCH  28  29
ATOM     29  C   UNL     1       7.833  -4.999  27.028  0.00  0.00    +0.305 C 
ATOM     30  O   UNL     1       7.297  -6.046  27.357  0.00  0.00    -0.251 OA
BRANCH  29  31
ATOM     31  O   UNL     1       9.172  -4.837  27.047  0.00  0.00    -0.481 OA
ATOM     32  H   UNL     1       9.564  -4.768  27.938  0.00  0.00    +0.295 HD
ENDBRANCH  29  31
ENDBRANCH  28  29
ENDBRANCH  27  28
ENDBRANCH  22  27
ENDBRANCH  20  22
ENDBRANCH   1  20
TORSDOF 14
ENDMDL
MODEL 7
REMARK VINA RESULT:      -6.2      3.187      8.259
REMARK  Name = 
REMARK  15 active torsions:
REMARK  status: ('A' for Active; 'I' for Inactive)
REMARK    1  A    between atoms: C_2  and  C_3
REMARK    2  A    between atoms: C_2  and  N_8
REMARK    3  A    between atoms: C_2  and  C_28
REMARK    4  A    between atoms: C_3  and  C_4
REMARK    5  A    between atoms: C_4  and  C_5
REMARK    6  A    between atoms: C_5  and  O_6
REMARK    7  A    between atoms: N_8  and  S_9
REMARK    8  A    between atoms: S_9  and  C_12
REMARK    9  A    between atoms: C_19  and  O_20
REMARK   10  A    between atoms: O_20  and  C_21
REMARK   11  A    between atoms: C_21  and  C_22
REMARK   12  A    between atoms: C_22  and  C_23
REMARK   13  A    between atoms: C_23  and  C_24
REMARK   14  A    between atoms: C_24  and  C_25
REMARK   15  A    between atoms: C_28  and  O_29
REMARK                            x       y       z     vdW  Elec       q    Type
REMARK                         _______ _______ _______ _____ _____    ______ ____
ROOT
ATOM      1  S   UNL     1       9.659   3.445  23.868  0.00  0.00    +0.059 S 
ATOM      2  O   UNL     1       9.024   3.845  25.098  0.00  0.00    -0.153 OA
ATOM      3  O   UNL     1      10.997   3.872  23.525  0.00  0.00    -0.153 OA
ENDROOT
BRANCH   1   4
ATOM      4  C   UNL     1       9.577   1.680  23.737  0.00  0.00    +0.106 A 
ATOM      5  C   UNL     1      10.069   1.058  22.588  0.00  0.00    +0.029 A 
ATOM      6  C   UNL     1      10.114  -0.335  22.529  0.00  0.00    +0.010 A 
ATOM      7  C   UNL     1       9.666  -1.115  23.607  0.00  0.00    -0.014 A 
ATOM      8  C   UNL     1       9.726  -2.516  23.563  0.00  0.00    +0.054 A 
ATOM      9  C   UNL     1       9.249  -3.290  24.622  0.00  0.00    +0.121 A 
ATOM     10  C   UNL     1       8.743  -2.662  25.759  0.00  0.00    +0.046 A 
ATOM     11  C   UNL     1       8.703  -1.266  25.832  0.00  0.00    +0.012 A 
ATOM     12  C   UNL     1       9.157  -0.479  24.764  0.00  0.00    -0.016 A 
ATOM     13  C   UNL     1       9.135   0.924  24.828  0.00  0.00    +0.037 A 
BRANCH   9  14
ATOM     14  O   UNL     1       9.371  -4.645  24.463  0.00  0.00    -0.492 OA
BRANCH  14  15
ATOM     15  C   UNL     1       8.140  -5.368  24.458  0.00  0.00    +0.229 C 
BRANCH  15  16
ATOM     16  C   UNL     1       7.604  -5.411  23.030  0.00  0.00    +0.041 C 
BRANCH  16  17
ATOM     17  C   UNL     1       6.257  -4.696  22.941  0.00  0.00    +0.003 C 
BRANCH  17  18
ATOM     18  C   UNL     1       6.367  -3.360  22.210  0.00  0.00    -0.003 C 
ATOM     19  C   UNL     1       6.062  -2.201  23.147  0.00  0.00    +0.004 C 
ENDBRANCH  17  18
ENDBRANCH  16  17
ENDBRANCH  15  16
ENDBRANCH  14  15
ENDBRANCH   9  14
ENDBRANCH   1   4
BRANCH   1  20
ATOM     20  N   UNL     1       8.706   3.983  22.592  0.00  0.00    -0.176 NA
ATOM     21  H   UNL     1       9.197   4.105  21.706  0.00  0.00    +0.149 HD
BRANCH  20  22
ATOM     22  C   UNL     1       7.461   4.725  22.888  0.00  0.00    +0.185 C 
BRANCH  22  23
ATOM     23  C   UNL     1       7.518   6.189  22.440  0.00  0.00    +0.324 C 
ATOM     24  O   UNL     1       7.833   7.107  23.186  0.00  0.00    -0.249 OA
BRANCH  23  25
ATOM     25  O   UNL     1       7.102   6.403  21.171  0.00  0.00    -0.479 OA
ATOM     26  H   UNL     1       7.702   6.016  20.507  0.00  0.00    +0.295 HD
ENDBRANCH  23  25
ENDBRANCH  22  23
BRANCH  22  27
ATOM     27  C   UNL     1       6.273   4.056  22.182  0.00  0.00    +0.043 C 
BRANCH  27  28
ATOM     28  C   UNL     1       6.116   2.567  22.506  0.00  0.00    +0.122 C 
BRANCH  28  29
ATOM     29  C   UNL     1       5.377   2.364  23.814  0.00  0.00    +0.305 C 
ATOM     30  O   UNL     1       5.912   2.213  24.901  0.00  0.00    -0.251 OA
BRANCH  29  31
ATOM     31  O   UNL     1       4.037   2.380  23.664  0.00  0.00    -0.481 OA
ATOM     32  H   UNL     1       3.531   2.301  24.495  0.00  0.00    +0.295 HD
ENDBRANCH  29  31
ENDBRANCH  28  29
ENDBRANCH  27  28
ENDBRANCH  22  27
ENDBRANCH  20  22
ENDBRANCH   1  20
TORSDOF 14
ENDMDL
MODEL 8
REMARK VINA RESULT:      -6.2      1.911      3.151
REMARK  Name = 
REMARK  15 active torsions:
REMARK  status: ('A' for Active; 'I' for Inactive)
REMARK    1  A    between atoms: C_2  and  C_3
REMARK    2  A    between atoms: C_2  and  N_8
REMARK    3  A    between atoms: C_2  and  C_28
REMARK    4  A    between atoms: C_3  and  C_4
REMARK    5  A    between atoms: C_4  and  C_5
REMARK    6  A    between atoms: C_5  and  O_6
REMARK    7  A    between atoms: N_8  and  S_9
REMARK    8  A    between atoms: S_9  and  C_12
REMARK    9  A    between atoms: C_19  and  O_20
REMARK   10  A    between atoms: O_20  and  C_21
REMARK   11  A    between atoms: C_21  and  C_22
REMARK   12  A    between atoms: C_22  and  C_23
REMARK   13  A    between atoms: C_23  and  C_24
REMARK   14  A    between atoms: C_24  and  C_25
REMARK   15  A    between atoms: C_28  and  O_29
REMARK                            x       y       z     vdW  Elec       q    Type
REMARK                         _______ _______ _______ _____ _____    ______ ____
ROOT
ATOM      1  S   UNL     1       8.288  -4.844  24.983  0.00  0.00    +0.059 S 
ATOM      2  O   UNL     1       9.254  -5.539  24.172  0.00  0.00    -0.153 OA
ATOM      3  O   UNL     1       8.072  -5.180  26.372  0.00  0.00    -0.153 OA
ENDROOT
BRANCH   1   4
ATOM      4  C   UNL     1       8.596  -3.103  24.862  0.00  0.00    +0.106 A 
ATOM      5  C   UNL     1       8.491  -2.311  26.006  0.00  0.00    +0.029 A 
ATOM      6  C   UNL     1       8.846  -0.963  25.942  0.00  0.00    +0.010 A 
ATOM      7  C   UNL     1       9.302  -0.396  24.741  0.00  0.00    -0.014 A 
ATOM      8  C   UNL     1       9.679   0.953  24.673  0.00  0.00    +0.054 A 
ATOM      9  C   UNL     1      10.099   1.523  23.471  0.00  0.00    +0.121 A 
ATOM     10  C   UNL     1      10.186   0.730  22.328  0.00  0.00    +0.046 A 
ATOM     11  C   UNL     1       9.842  -0.624  22.384  0.00  0.00    +0.012 A 
ATOM     12  C   UNL     1       9.395  -1.202  23.581  0.00  0.00    -0.016 A 
ATOM     13  C   UNL     1       9.058  -2.563  23.657  0.00  0.00    +0.037 A 
BRANCH   9  14
ATOM     14  O   UNL     1      10.448   2.845  23.536  0.00  0.00    -0.492 OA
BRANCH  14  15
ATOM     15  C   UNL     1       9.466   3.704  24.116  0.00  0.00    +0.229 C 
BRANCH  15  16
ATOM     16  C   UNL     1       8.278   3.801  23.163  0.00  0.00    +0.041 C 
BRANCH  16  17
ATOM     17  C   UNL     1       6.963   3.699  23.934  0.00  0.00    +0.003 C 
BRANCH  17  18
ATOM     18  C   UNL     1       6.290   2.343  23.740  0.00  0.00    -0.003 C 
ATOM     19  C   UNL     1       6.647   1.748  22.386  0.00  0.00    +0.004 C 
ENDBRANCH  17  18
ENDBRANCH  16  17
ENDBRANCH  15  16
ENDBRANCH  14  15
ENDBRANCH   9  14
ENDBRANCH   1   4
BRANCH   1  20
ATOM     20  N   UNL     1       6.778  -5.030  24.267  0.00  0.00    -0.176 NA
ATOM     21  H   UNL     1       6.236  -5.828  24.601  0.00  0.00    +0.149 HD
BRANCH  20  22
ATOM     22  C   UNL     1       6.540  -4.446  22.929  0.00  0.00    +0.185 C 
BRANCH  22  23
ATOM     23  C   UNL     1       6.147  -5.493  21.882  0.00  0.00    +0.324 C 
ATOM     24  O   UNL     1       5.942  -5.222  20.707  0.00  0.00    -0.249 OA
BRANCH  23  25
ATOM     25  O   UNL     1       5.952  -6.736  22.380  0.00  0.00    -0.479 OA
ATOM     26  H   UNL     1       6.468  -6.904  23.189  0.00  0.00    +0.295 HD
ENDBRANCH  23  25
ENDBRANCH  22  23
BRANCH  22  27
ATOM     27  C   UNL     1       5.416  -3.402  23.006  0.00  0.00    +0.043 C 
BRANCH  27  28
ATOM     28  C   UNL     1       4.727  -3.332  24.373  0.00  0.00    +0.122 C 
BRANCH  28  29
ATOM     29  C   UNL     1       5.054  -2.036  25.087  0.00  0.00    +0.305 C 
ATOM     30  O   UNL     1       4.941  -1.854  26.290  0.00  0.00    -0.251 OA
BRANCH  29  31
ATOM     31  O   UNL     1       5.507  -1.080  24.252  0.00  0.00    -0.481 OA
ATOM     32  H   UNL     1       5.022  -0.234  24.297  0.00  0.00    +0.295 HD
ENDBRANCH  29  31
ENDBRANCH  28  29
ENDBRANCH  27  28
ENDBRANCH  22  27
ENDBRANCH  20  22
ENDBRANCH   1  20
TORSDOF 14
ENDMDL
MODEL 9
REMARK VINA RESULT:      -6.1      2.100      3.454
REMARK  Name = 
REMARK  15 active torsions:
REMARK  status: ('A' for Active; 'I' for Inactive)
REMARK    1  A    between atoms: C_2  and  C_3
REMARK    2  A    between atoms: C_2  and  N_8
REMARK    3  A    between atoms: C_2  and  C_28
REMARK    4  A    between atoms: C_3  and  C_4
REMARK    5  A    between atoms: C_4  and  C_5
REMARK    6  A    between atoms: C_5  and  O_6
REMARK    7  A    between atoms: N_8  and  S_9
REMARK    8  A    between atoms: S_9  and  C_12
REMARK    9  A    between atoms: C_19  and  O_20
REMARK   10  A    between atoms: O_20  and  C_21
REMARK   11  A    between atoms: C_21  and  C_22
REMARK   12  A    between atoms: C_22  and  C_23
REMARK   13  A    between atoms: C_23  and  C_24
REMARK   14  A    between atoms: C_24  and  C_25
REMARK   15  A    between atoms: C_28  and  O_29
REMARK                            x       y       z     vdW  Elec       q    Type
REMARK                         _______ _______ _______ _____ _____    ______ ____
ROOT
ATOM      1  S   UNL     1       8.553  -4.702  25.455  0.00  0.00    +0.059 S 
ATOM      2  O   UNL     1       9.483  -5.421  24.622  0.00  0.00    -0.153 OA
ATOM      3  O   UNL     1       8.442  -4.957  26.874  0.00  0.00    -0.153 OA
ENDROOT
BRANCH   1   4
ATOM      4  C   UNL     1       8.802  -2.964  25.211  0.00  0.00    +0.106 A 
ATOM      5  C   UNL     1       8.655  -2.095  26.293  0.00  0.00    +0.029 A 
ATOM      6  C   UNL     1       8.963  -0.744  26.134  0.00  0.00    +0.010 A 
ATOM      7  C   UNL     1       9.414  -0.250  24.900  0.00  0.00    -0.014 A 
ATOM      8  C   UNL     1       9.745   1.104  24.737  0.00  0.00    +0.054 A 
ATOM      9  C   UNL     1      10.160   1.600  23.500  0.00  0.00    +0.121 A 
ATOM     10  C   UNL     1      10.289   0.729  22.419  0.00  0.00    +0.046 A 
ATOM     11  C   UNL     1       9.992  -0.629  22.571  0.00  0.00    +0.012 A 
ATOM     12  C   UNL     1       9.550  -1.134  23.802  0.00  0.00    -0.016 A 
ATOM     13  C   UNL     1       9.260  -2.497  23.974  0.00  0.00    +0.037 A 
BRANCH   9  14
ATOM     14  O   UNL     1      10.462   2.935  23.472  0.00  0.00    -0.492 OA
BRANCH  14  15
ATOM     15  C   UNL     1       9.430   3.799  23.950  0.00  0.00    +0.229 C 
BRANCH  15  16
ATOM     16  C   UNL     1       9.908   5.243  23.829  0.00  0.00    +0.041 C 
BRANCH  16  17
ATOM     17  C   UNL     1      11.427   5.294  23.673  0.00  0.00    +0.003 C 
BRANCH  17  18
ATOM     18  C   UNL     1      12.052   6.405  24.512  0.00  0.00    -0.003 C 
ATOM     19  C   UNL     1      11.041   6.978  25.494  0.00  0.00    +0.004 C 
ENDBRANCH  17  18
ENDBRANCH  16  17
ENDBRANCH  15  16
ENDBRANCH  14  15
ENDBRANCH   9  14
ENDBRANCH   1   4
BRANCH   1  20
ATOM     20  N   UNL     1       7.005  -4.969  24.857  0.00  0.00    -0.176 NA
ATOM     21  H   UNL     1       6.559  -5.829  25.178  0.00  0.00    +0.149 HD
BRANCH  20  22
ATOM     22  C   UNL     1       6.604  -4.324  23.588  0.00  0.00    +0.185 C 
BRANCH  22  23
ATOM     23  C   UNL     1       6.400  -5.325  22.447  0.00  0.00    +0.324 C 
ATOM     24  O   UNL     1       5.342  -5.451  21.846  0.00  0.00    -0.249 OA
BRANCH  23  25
ATOM     25  O   UNL     1       7.461  -6.132  22.215  0.00  0.00    -0.479 OA
ATOM     26  H   UNL     1       7.399  -6.983  22.686  0.00  0.00    +0.295 HD
ENDBRANCH  23  25
ENDBRANCH  22  23
BRANCH  22  27
ATOM     27  C   UNL     1       5.290  -3.552  23.786  0.00  0.00    +0.043 C 
BRANCH  27  28
ATOM     28  C   UNL     1       5.486  -2.089  24.196  0.00  0.00    +0.122 C 
BRANCH  28  29
ATOM     29  C   UNL     1       5.005  -1.847  25.613  0.00  0.00    +0.305 C 
ATOM     30  O   UNL     1       4.440  -0.833  25.994  0.00  0.00    -0.251 OA
BRANCH  29  31
ATOM     31  O   UNL     1       5.253  -2.887  26.433  0.00  0.00    -0.481 OA
ATOM     32  H   UNL     1       6.030  -2.775  27.013  0.00  0.00    +0.295 HD
ENDBRANCH  29  31
ENDBRANCH  28  29
ENDBRANCH  27  28
ENDBRANCH  22  27
ENDBRANCH  20  22
ENDBRANCH   1  20
TORSDOF 14
ENDMDL
