MODEL 1
REMARK VINA RESULT:      -8.0      0.000      0.000
REMARK  Name = 
REMARK  7 active torsions:
REMARK  status: ('A' for Active; 'I' for Inactive)
REMARK    1  A    between atoms: O_1  and  N_2
REMARK    2  A    between atoms: C_3  and  C_5
REMARK    3  A    between atoms: C_5  and  S_11
REMARK    4  A    between atoms: S_11  and  C_14
REMARK    5  A    between atoms: C_17  and  O_18
REMARK    6  A    between atoms: O_18  and  C_19
REMARK    7  A    between atoms: C_22  and  C_25
REMARK                            x       y       z     vdW  Elec       q    Type
REMARK                         _______ _______ _______ _____ _____    ______ ____
ROOT
ATOM      1  C   UNL     1       9.166  -2.308  24.525  0.00  0.00    +0.090 A 
ATOM      2  C   UNL     1       9.801  -2.214  23.282  0.00  0.00    +0.030 A 
ATOM      3  C   UNL     1      10.257  -0.971  22.823  0.00  0.00    +0.048 A 
ATOM      4  C   UNL     1      10.119   0.162  23.626  0.00  0.00    +0.129 A 
ATOM      5  C   UNL     1       9.513   0.050  24.881  0.00  0.00    +0.048 A 
ATOM      6  C   UNL     1       9.046  -1.182  25.341  0.00  0.00    +0.030 A 
ENDROOT
BRANCH   1   7
ATOM      7  S   UNL     1       8.625  -3.896  25.128  0.00  0.00    +0.011 S 
ATOM      8  O   UNL     1       9.644  -4.854  24.745  0.00  0.00    -0.168 OA
ATOM      9  O   UNL     1       8.309  -3.720  26.539  0.00  0.00    -0.168 OA
BRANCH   7  10
ATOM     10  C   UNL     1       7.089  -4.307  24.280  0.00  0.00    +0.174 C 
ATOM     11  C   UNL     1       6.425  -3.035  23.710  0.00  0.00    +0.068 C 
ATOM     12  C   UNL     1       5.311  -3.361  22.720  0.00  0.00    +0.162 C 
ATOM     13  O   UNL     1       5.791  -4.228  21.697  0.00  0.00    -0.380 OA
ATOM     14  C   UNL     1       6.210  -5.486  22.214  0.00  0.00    +0.162 C 
ATOM     15  C   UNL     1       7.410  -5.284  23.124  0.00  0.00    +0.068 C 
BRANCH  10  18
ATOM     16  N   UNL     1       6.750  -6.018  26.030  0.00  0.00    -0.196 N 
ATOM     17  H   UNL     1       7.754  -6.009  26.235  0.00  0.00    +0.182 HD
ATOM     18  C   UNL     1       6.176  -4.985  25.309  0.00  0.00    +0.263 C 
ATOM     19  O   UNL     1       5.001  -4.647  25.441  0.00  0.00    -0.271 OA
BRANCH  16  20
ATOM     20  O   UNL     1       5.903  -6.610  26.993  0.00  0.00    -0.295 OA
ATOM     21  H   UNL     1       5.010  -6.521  26.614  0.00  0.00    +0.241 HD
ENDBRANCH  16  20
ENDBRANCH  10  18
ENDBRANCH   7  10
ENDBRANCH   1   7
BRANCH   4  22
ATOM     22  O   UNL     1      10.438   1.446  23.256  0.00  0.00    -0.456 OA
BRANCH  22  23
ATOM     23  C   UNL     1       9.475   2.414  23.101  0.00  0.00    +0.128 A 
ATOM     24  C   UNL     1       8.416   2.335  22.198  0.00  0.00    +0.047 A 
ATOM     25  C   UNL     1       7.557   3.429  22.035  0.00  0.00    +0.016 A 
ATOM     26  C   UNL     1       7.765   4.620  22.748  0.00  0.00    +0.055 A 
ATOM     27  C   UNL     1       8.847   4.697  23.636  0.00  0.00    +0.016 A 
ATOM     28  C   UNL     1       9.695   3.599  23.807  0.00  0.00    +0.047 A 
BRANCH  26  29
ATOM     29  C   UNL     1       6.850   5.804  22.527  0.00  0.00    +0.417 C 
ATOM     30  F   UNL     1       5.542   5.438  22.432  0.00  0.00    -0.166 F 
ATOM     31  F   UNL     1       7.136   6.474  21.377  0.00  0.00    -0.166 F 
ATOM     32  F   UNL     1       6.905   6.733  23.523  0.00  0.00    -0.166 F 
ENDBRANCH  26  29
ENDBRANCH  22  23
ENDBRANCH   4  22
TORSDOF 7
ENDMDL
MODEL 2
REMARK VINA RESULT:      -7.8      1.668      2.524
REMARK  Name = 
REMARK  7 active torsions:
REMARK  status: ('A' for Active; 'I' for Inactive)
REMARK    1  A    between atoms: O_1  and  N_2
REMARK    2  A    between atoms: C_3  and  C_5
REMARK    3  A    between atoms: C_5  and  S_11
REMARK    4  A    between atoms: S_11  and  C_14
REMARK    5  A    between atoms: C_17  and  O_18
REMARK    6  A    between atoms: O_18  and  C_19
REMARK    7  A    between atoms: C_22  and  C_25
REMARK                            x       y       z     vdW  Elec       q    Type
REMARK                         _______ _______ _______ _____ _____    ______ ____
ROOT
ATOM      1  C   UNL     1       8.648  -3.332  23.452  0.00  0.00    +0.090 A 
ATOM      2  C   UNL     1       9.767  -2.690  23.994  0.00  0.00    +0.030 A 
ATOM      3  C   UNL     1      10.210  -1.477  23.448  0.00  0.00    +0.048 A 
ATOM      4  C   UNL     1       9.507  -0.889  22.395  0.00  0.00    +0.129 A 
ATOM      5  C   UNL     1       8.370  -1.523  21.883  0.00  0.00    +0.048 A 
ATOM      6  C   UNL     1       7.929  -2.736  22.414  0.00  0.00    +0.030 A 
ENDROOT
BRANCH   1   7
ATOM      7  S   UNL     1       8.059  -4.850  24.174  0.00  0.00    +0.011 S 
ATOM      8  O   UNL     1       7.574  -5.669  23.080  0.00  0.00    -0.168 OA
ATOM      9  O   UNL     1       9.134  -5.355  25.018  0.00  0.00    -0.168 OA
BRANCH   7  10
ATOM     10  C   UNL     1       6.676  -4.440  25.254  0.00  0.00    +0.174 C 
ATOM     11  C   UNL     1       6.907  -3.076  25.940  0.00  0.00    +0.068 C 
ATOM     12  C   UNL     1       5.640  -2.541  26.601  0.00  0.00    +0.162 C 
ATOM     13  O   UNL     1       4.569  -2.502  25.663  0.00  0.00    -0.380 OA
ATOM     14  C   UNL     1       4.223  -3.798  25.190  0.00  0.00    +0.162 C 
ATOM     15  C   UNL     1       5.386  -4.375  24.401  0.00  0.00    +0.068 C 
BRANCH  10  18
ATOM     16  N   UNL     1       7.442  -5.475  27.363  0.00  0.00    -0.196 N 
ATOM     17  H   UNL     1       7.754  -4.558  27.700  0.00  0.00    +0.182 HD
ATOM     18  C   UNL     1       6.568  -5.563  26.293  0.00  0.00    +0.263 C 
ATOM     19  O   UNL     1       5.780  -6.495  26.146  0.00  0.00    -0.271 OA
BRANCH  16  20
ATOM     20  O   UNL     1       7.307  -6.502  28.323  0.00  0.00    -0.295 OA
ATOM     21  H   UNL     1       7.414  -6.047  29.178  0.00  0.00    +0.241 HD
ENDBRANCH  16  20
ENDBRANCH  10  18
ENDBRANCH   7  10
ENDBRANCH   1   7
BRANCH   4  22
ATOM     22  O   UNL     1       9.888   0.242  21.714  0.00  0.00    -0.456 OA
BRANCH  22  23
ATOM     23  C   UNL     1       9.626   1.500  22.201  0.00  0.00    +0.128 A 
ATOM     24  C   UNL     1      10.423   2.167  23.131  0.00  0.00    +0.047 A 
ATOM     25  C   UNL     1      10.004   3.398  23.652  0.00  0.00    +0.016 A 
ATOM     26  C   UNL     1       8.774   3.958  23.275  0.00  0.00    +0.055 A 
ATOM     27  C   UNL     1       7.969   3.267  22.357  0.00  0.00    +0.016 A 
ATOM     28  C   UNL     1       8.396   2.045  21.828  0.00  0.00    +0.047 A 
BRANCH  26  29
ATOM     29  C   UNL     1       8.320   5.267  23.880  0.00  0.00    +0.417 C 
ATOM     30  F   UNL     1       8.742   5.418  25.166  0.00  0.00    -0.166 F 
ATOM     31  F   UNL     1       6.963   5.380  23.915  0.00  0.00    -0.166 F 
ATOM     32  F   UNL     1       8.767   6.366  23.209  0.00  0.00    -0.166 F 
ENDBRANCH  26  29
ENDBRANCH  22  23
ENDBRANCH   4  22
TORSDOF 7
ENDMDL
MODEL 3
REMARK VINA RESULT:      -7.8      1.606      2.311
REMARK  Name = 
REMARK  7 active torsions:
REMARK  status: ('A' for Active; 'I' for Inactive)
REMARK    1  A    between atoms: O_1  and  N_2
REMARK    2  A    between atoms: C_3  and  C_5
REMARK    3  A    between atoms: C_5  and  S_11
REMARK    4  A    between atoms: S_11  and  C_14
REMARK    5  A    between atoms: C_17  and  O_18
REMARK    6  A    between atoms: O_18  and  C_19
REMARK    7  A    between atoms: C_22  and  C_25
REMARK                            x       y       z     vdW  Elec       q    Type
REMARK                         _______ _______ _______ _____ _____    ______ ____
ROOT
ATOM      1  C   UNL     1       8.639  -3.192  23.523  0.00  0.00    +0.090 A 
ATOM      2  C   UNL     1       7.980  -2.670  22.404  0.00  0.00    +0.030 A 
ATOM      3  C   UNL     1       8.428  -1.476  21.824  0.00  0.00    +0.048 A 
ATOM      4  C   UNL     1       9.558  -0.834  22.333  0.00  0.00    +0.129 A 
ATOM      5  C   UNL     1      10.229  -1.383  23.431  0.00  0.00    +0.048 A 
ATOM      6  C   UNL     1       9.783  -2.565  24.022  0.00  0.00    +0.030 A 
ENDROOT
BRANCH   1   7
ATOM      7  S   UNL     1       8.096  -4.733  24.235  0.00  0.00    +0.011 S 
ATOM      8  O   UNL     1       7.669  -5.571  23.131  0.00  0.00    -0.168 OA
ATOM      9  O   UNL     1       9.172  -5.193  25.102  0.00  0.00    -0.168 OA
BRANCH   7  10
ATOM     10  C   UNL     1       6.674  -4.378  25.284  0.00  0.00    +0.174 C 
ATOM     11  C   UNL     1       6.848  -3.019  25.996  0.00  0.00    +0.068 C 
ATOM     12  C   UNL     1       5.550  -2.530  26.630  0.00  0.00    +0.162 C 
ATOM     13  O   UNL     1       4.502  -2.507  25.665  0.00  0.00    -0.380 OA
ATOM     14  C   UNL     1       4.206  -3.805  25.164  0.00  0.00    +0.162 C 
ATOM     15  C   UNL     1       5.406  -4.337  24.397  0.00  0.00    +0.068 C 
BRANCH  10  18
ATOM     16  N   UNL     1       7.446  -5.447  27.373  0.00  0.00    -0.196 N 
ATOM     17  H   UNL     1       7.756  -4.536  27.726  0.00  0.00    +0.182 HD
ATOM     18  C   UNL     1       6.572  -5.519  26.302  0.00  0.00    +0.263 C 
ATOM     19  O   UNL     1       5.787  -6.452  26.140  0.00  0.00    -0.271 OA
BRANCH  16  20
ATOM     20  O   UNL     1       7.316  -6.491  28.315  0.00  0.00    -0.295 OA
ATOM     21  H   UNL     1       6.706  -7.121  27.893  0.00  0.00    +0.241 HD
ENDBRANCH  16  20
ENDBRANCH  10  18
ENDBRANCH   7  10
ENDBRANCH   1   7
BRANCH   4  22
ATOM     22  O   UNL     1      10.041   0.383  21.915  0.00  0.00    -0.456 OA
BRANCH  22  23
ATOM     23  C   UNL     1       9.528   1.565  22.391  0.00  0.00    +0.128 A 
ATOM     24  C   UNL     1       8.316   2.120  21.982  0.00  0.00    +0.047 A 
ATOM     25  C   UNL     1       7.941   3.389  22.441  0.00  0.00    +0.016 A 
ATOM     26  C   UNL     1       8.784   4.127  23.285  0.00  0.00    +0.055 A 
ATOM     27  C   UNL     1      10.012   3.570  23.671  0.00  0.00    +0.016 A 
ATOM     28  C   UNL     1      10.378   2.298  23.222  0.00  0.00    +0.047 A 
BRANCH  26  29
ATOM     29  C   UNL     1       8.380   5.513  23.736  0.00  0.00    +0.417 C 
ATOM     30  F   UNL     1       9.045   6.492  23.063  0.00  0.00    -0.166 F 
ATOM     31  F   UNL     1       8.637   5.724  25.057  0.00  0.00    -0.166 F 
ATOM     32  F   UNL     1       7.053   5.779  23.568  0.00  0.00    -0.166 F 
ENDBRANCH  26  29
ENDBRANCH  22  23
ENDBRANCH   4  22
TORSDOF 7
ENDMDL
MODEL 4
REMARK VINA RESULT:      -7.7      2.600      3.266
REMARK  Name = 
REMARK  7 active torsions:
REMARK  status: ('A' for Active; 'I' for Inactive)
REMARK    1  A    between atoms: O_1  and  N_2
REMARK    2  A    between atoms: C_3  and  C_5
REMARK    3  A    between atoms: C_5  and  S_11
REMARK    4  A    between atoms: S_11  and  C_14
REMARK    5  A    between atoms: C_17  and  O_18
REMARK    6  A    between atoms: O_18  and  C_19
REMARK    7  A    between atoms: C_22  and  C_25
REMARK                            x       y       z     vdW  Elec       q    Type
REMARK                         _______ _______ _______ _____ _____    ______ ____
ROOT
ATOM      1  C   UNL     1       7.823  -1.748  23.844  0.00  0.00    +0.090 A 
ATOM      2  C   UNL     1       7.297  -0.914  22.850  0.00  0.00    +0.030 A 
ATOM      3  C   UNL     1       7.326   0.477  23.018  0.00  0.00    +0.048 A 
ATOM      4  C   UNL     1       7.921   1.030  24.153  0.00  0.00    +0.129 A 
ATOM      5  C   UNL     1       8.474   0.188  25.124  0.00  0.00    +0.048 A 
ATOM      6  C   UNL     1       8.439  -1.198  24.970  0.00  0.00    +0.030 A 
ENDROOT
BRANCH   1   7
ATOM      7  S   UNL     1       7.827  -3.514  23.611  0.00  0.00    +0.011 S 
ATOM      8  O   UNL     1       7.608  -3.746  22.196  0.00  0.00    -0.168 OA
ATOM      9  O   UNL     1       9.044  -4.015  24.234  0.00  0.00    -0.168 OA
BRANCH   7  10
ATOM     10  C   UNL     1       6.434  -4.189  24.535  0.00  0.00    +0.174 C 
ATOM     11  C   UNL     1       5.248  -3.200  24.530  0.00  0.00    +0.068 C 
ATOM     12  C   UNL     1       3.955  -3.850  25.013  0.00  0.00    +0.162 C 
ATOM     13  O   UNL     1       3.680  -5.030  24.264  0.00  0.00    -0.380 OA
ATOM     14  C   UNL     1       4.684  -6.022  24.441  0.00  0.00    +0.162 C 
ATOM     15  C   UNL     1       6.000  -5.518  23.872  0.00  0.00    +0.068 C 
BRANCH  10  18
ATOM     16  N   UNL     1       7.470  -5.697  26.195  0.00  0.00    -0.196 N 
ATOM     17  H   UNL     1       7.952  -6.197  25.441  0.00  0.00    +0.182 HD
ATOM     18  C   UNL     1       6.925  -4.446  25.964  0.00  0.00    +0.263 C 
ATOM     19  O   UNL     1       6.798  -3.597  26.846  0.00  0.00    -0.271 OA
BRANCH  16  20
ATOM     20  O   UNL     1       7.944  -5.904  27.509  0.00  0.00    -0.295 OA
ATOM     21  H   UNL     1       7.339  -5.384  28.067  0.00  0.00    +0.241 HD
ENDBRANCH  16  20
ENDBRANCH  10  18
ENDBRANCH   7  10
ENDBRANCH   1   7
BRANCH   4  22
ATOM     22  O   UNL     1       7.931   2.365  24.478  0.00  0.00    -0.456 OA
BRANCH  22  23
ATOM     23  C   UNL     1       9.039   3.150  24.270  0.00  0.00    +0.128 A 
ATOM     24  C   UNL     1       9.070   4.533  24.446  0.00  0.00    +0.047 A 
ATOM     25  C   UNL     1      10.217   5.254  24.093  0.00  0.00    +0.016 A 
ATOM     26  C   UNL     1      11.330   4.608  23.533  0.00  0.00    +0.055 A 
ATOM     27  C   UNL     1      11.279   3.221  23.338  0.00  0.00    +0.016 A 
ATOM     28  C   UNL     1      10.139   2.500  23.704  0.00  0.00    +0.047 A 
BRANCH  26  29
ATOM     29  C   UNL     1      12.543   5.411  23.119  0.00  0.00    +0.417 C 
ATOM     30  F   UNL     1      12.644   6.586  23.800  0.00  0.00    -0.166 F 
ATOM     31  F   UNL     1      12.520   5.744  21.799  0.00  0.00    -0.166 F 
ATOM     32  F   UNL     1      13.725   4.762  23.319  0.00  0.00    -0.166 F 
ENDBRANCH  26  29
ENDBRANCH  22  23
ENDBRANCH   4  22
TORSDOF 7
ENDMDL
MODEL 5
REMARK VINA RESULT:      -7.6      1.237      1.731
REMARK  Name = 
REMARK  7 active torsions:
REMARK  status: ('A' for Active; 'I' for Inactive)
REMARK    1  A    between atoms: O_1  and  N_2
REMARK    2  A    between atoms: C_3  and  C_5
REMARK    3  A    between atoms: C_5  and  S_11
REMARK    4  A    between atoms: S_11  and  C_14
REMARK    5  A    between atoms: C_17  and  O_18
REMARK    6  A    between atoms: O_18  and  C_19
REMARK    7  A    between atoms: C_22  and  C_25
REMARK                            x       y       z     vdW  Elec       q    Type
REMARK                         _______ _______ _______ _____ _____    ______ ____
ROOT
ATOM      1  C   UNL     1       9.151  -2.352  24.482  0.00  0.00    +0.090 A 
ATOM      2  C   UNL     1       9.775  -2.218  23.237  0.00  0.00    +0.030 A 
ATOM      3  C   UNL     1      10.243  -0.964  22.822  0.00  0.00    +0.048 A 
ATOM      4  C   UNL     1      10.127   0.139  23.669  0.00  0.00    +0.129 A 
ATOM      5  C   UNL     1       9.532  -0.014  24.926  0.00  0.00    +0.048 A 
ATOM      6  C   UNL     1       9.053  -1.256  25.342  0.00  0.00    +0.030 A 
ENDROOT
BRANCH   1   7
ATOM      7  S   UNL     1       8.596  -3.954  25.029  0.00  0.00    +0.011 S 
ATOM      8  O   UNL     1       9.606  -4.908  24.612  0.00  0.00    -0.168 OA
ATOM      9  O   UNL     1       8.281  -3.826  26.445  0.00  0.00    -0.168 OA
BRANCH   7  10
ATOM     10  C   UNL     1       7.056  -4.321  24.167  0.00  0.00    +0.174 C 
ATOM     11  C   UNL     1       7.341  -4.869  22.752  0.00  0.00    +0.068 C 
ATOM     12  C   UNL     1       6.103  -5.490  22.114  0.00  0.00    +0.162 C 
ATOM     13  O   UNL     1       5.541  -6.476  22.974  0.00  0.00    -0.380 OA
ATOM     14  C   UNL     1       5.087  -5.920  24.202  0.00  0.00    +0.162 C 
ATOM     15  C   UNL     1       6.275  -5.380  24.982  0.00  0.00    +0.068 C 
BRANCH  10  18
ATOM     16  N   UNL     1       5.666  -2.608  25.280  0.00  0.00    -0.196 N 
ATOM     17  H   UNL     1       6.098  -2.840  26.179  0.00  0.00    +0.182 HD
ATOM     18  C   UNL     1       6.258  -3.014  24.096  0.00  0.00    +0.263 C 
ATOM     19  O   UNL     1       6.130  -2.400  23.037  0.00  0.00    -0.271 OA
BRANCH  16  20
ATOM     20  O   UNL     1       4.961  -1.387  25.200  0.00  0.00    -0.295 OA
ATOM     21  H   UNL     1       4.149  -1.544  25.715  0.00  0.00    +0.241 HD
ENDBRANCH  16  20
ENDBRANCH  10  18
ENDBRANCH   7  10
ENDBRANCH   1   7
BRANCH   4  22
ATOM     22  O   UNL     1      10.460   1.433  23.346  0.00  0.00    -0.456 OA
BRANCH  22  23
ATOM     23  C   UNL     1       9.502   2.401  23.163  0.00  0.00    +0.128 A 
ATOM     24  C   UNL     1       8.465   2.318  22.236  0.00  0.00    +0.047 A 
ATOM     25  C   UNL     1       7.611   3.412  22.047  0.00  0.00    +0.016 A 
ATOM     26  C   UNL     1       7.803   4.606  22.758  0.00  0.00    +0.055 A 
ATOM     27  C   UNL     1       8.863   4.686  23.672  0.00  0.00    +0.016 A 
ATOM     28  C   UNL     1       9.706   3.589  23.869  0.00  0.00    +0.047 A 
BRANCH  26  29
ATOM     29  C   UNL     1       6.895   5.790  22.510  0.00  0.00    +0.417 C 
ATOM     30  F   UNL     1       5.582   5.434  22.453  0.00  0.00    -0.166 F 
ATOM     31  F   UNL     1       7.166   6.413  21.329  0.00  0.00    -0.166 F 
ATOM     32  F   UNL     1       6.978   6.756  23.468  0.00  0.00    -0.166 F 
ENDBRANCH  26  29
ENDBRANCH  22  23
ENDBRANCH   4  22
TORSDOF 7
ENDMDL
MODEL 6
REMARK VINA RESULT:      -7.5      2.197      3.465
REMARK  Name = 
REMARK  7 active torsions:
REMARK  status: ('A' for Active; 'I' for Inactive)
REMARK    1  A    between atoms: O_1  and  N_2
REMARK    2  A    between atoms: C_3  and  C_5
REMARK    3  A    between atoms: C_5  and  S_11
REMARK    4  A    between atoms: S_11  and  C_14
REMARK    5  A    between atoms: C_17  and  O_18
REMARK    6  A    between atoms: O_18  and  C_19
REMARK    7  A    between atoms: C_22  and  C_25
REMARK                            x       y       z     vdW  Elec       q    Type
REMARK                         _______ _______ _______ _____ _____    ______ ____
ROOT
ATOM      1  C   UNL     1       7.469  -3.886  22.842  0.00  0.00    +0.090 A 
ATOM      2  C   UNL     1       8.367  -4.097  23.895  0.00  0.00    +0.030 A 
ATOM      3  C   UNL     1       9.351  -3.139  24.176  0.00  0.00    +0.048 A 
ATOM      4  C   UNL     1       9.406  -1.957  23.435  0.00  0.00    +0.129 A 
ATOM      5  C   UNL     1       8.482  -1.742  22.407  0.00  0.00    +0.048 A 
ATOM      6  C   UNL     1       7.506  -2.695  22.114  0.00  0.00    +0.030 A 
ENDROOT
BRANCH   1   7
ATOM      7  S   UNL     1       6.190  -5.082  22.513  0.00  0.00    +0.011 S 
ATOM      8  O   UNL     1       5.535  -4.663  21.289  0.00  0.00    -0.168 OA
ATOM      9  O   UNL     1       6.821  -6.393  22.570  0.00  0.00    -0.168 OA
BRANCH   7  10
ATOM     10  C   UNL     1       5.004  -4.998  23.868  0.00  0.00    +0.174 C 
ATOM     11  C   UNL     1       5.642  -5.496  25.182  0.00  0.00    +0.068 C 
ATOM     12  C   UNL     1       4.798  -5.146  26.403  0.00  0.00    +0.162 C 
ATOM     13  O   UNL     1       4.518  -3.749  26.431  0.00  0.00    -0.380 OA
ATOM     14  C   UNL     1       3.745  -3.335  25.311  0.00  0.00    +0.162 C 
ATOM     15  C   UNL     1       4.554  -3.527  24.039  0.00  0.00    +0.068 C 
BRANCH  10  18
ATOM     16  N   UNL     1       3.931  -7.222  23.771  0.00  0.00    -0.196 N 
ATOM     17  H   UNL     1       4.482  -7.524  24.581  0.00  0.00    +0.182 HD
ATOM     18  C   UNL     1       3.810  -5.875  23.474  0.00  0.00    +0.263 C 
ATOM     19  O   UNL     1       2.833  -5.403  22.895  0.00  0.00    -0.271 OA
BRANCH  16  20
ATOM     20  O   UNL     1       2.809  -8.008  23.428  0.00  0.00    -0.295 OA
ATOM     21  H   UNL     1       2.487  -8.352  24.280  0.00  0.00    +0.241 HD
ENDBRANCH  16  20
ENDBRANCH  10  18
ENDBRANCH   7  10
ENDBRANCH   1   7
BRANCH   4  22
ATOM     22  O   UNL     1      10.373  -0.988  23.549  0.00  0.00    -0.456 OA
BRANCH  22  23
ATOM     23  C   UNL     1      10.054   0.325  23.797  0.00  0.00    +0.128 A 
ATOM     24  C   UNL     1       9.253   0.756  24.854  0.00  0.00    +0.047 A 
ATOM     25  C   UNL     1       8.891   2.105  24.948  0.00  0.00    +0.016 A 
ATOM     26  C   UNL     1       9.299   3.029  23.975  0.00  0.00    +0.055 A 
ATOM     27  C   UNL     1      10.085   2.581  22.903  0.00  0.00    +0.016 A 
ATOM     28  C   UNL     1      10.456   1.236  22.818  0.00  0.00    +0.047 A 
BRANCH  26  29
ATOM     29  C   UNL     1       8.863   4.474  24.073  0.00  0.00    +0.417 C 
ATOM     30  F   UNL     1       7.895   4.662  25.012  0.00  0.00    -0.166 F 
ATOM     31  F   UNL     1       8.345   4.941  22.903  0.00  0.00    -0.166 F 
ATOM     32  F   UNL     1       9.872   5.331  24.400  0.00  0.00    -0.166 F 
ENDBRANCH  26  29
ENDBRANCH  22  23
ENDBRANCH   4  22
TORSDOF 7
ENDMDL
MODEL 7
REMARK VINA RESULT:      -7.5      5.087      8.655
REMARK  Name = 
REMARK  7 active torsions:
REMARK  status: ('A' for Active; 'I' for Inactive)
REMARK    1  A    between atoms: O_1  and  N_2
REMARK    2  A    between atoms: C_3  and  C_5
REMARK    3  A    between atoms: C_5  and  S_11
REMARK    4  A    between atoms: S_11  and  C_14
REMARK    5  A    between atoms: C_17  and  O_18
REMARK    6  A    between atoms: O_18  and  C_19
REMARK    7  A    between atoms: C_22  and  C_25
REMARK                            x       y       z     vdW  Elec       q    Type
REMARK                         _______ _______ _______ _____ _____    ______ ____
ROOT
ATOM      1  C   UNL     1       9.864   0.362  23.314  0.00  0.00    +0.090 A 
ATOM      2  C   UNL     1       9.786  -0.550  22.255  0.00  0.00    +0.030 A 
ATOM      3  C   UNL     1       9.763  -1.926  22.518  0.00  0.00    +0.048 A 
ATOM      4  C   UNL     1       9.771  -2.384  23.836  0.00  0.00    +0.129 A 
ATOM      5  C   UNL     1       9.814  -1.463  24.888  0.00  0.00    +0.048 A 
ATOM      6  C   UNL     1       9.849  -0.091  24.635  0.00  0.00    +0.030 A 
ENDROOT
BRANCH   1   7
ATOM      7  S   UNL     1       9.848   2.112  22.982  0.00  0.00    +0.011 S 
ATOM      8  O   UNL     1      10.943   2.688  23.740  0.00  0.00    -0.168 OA
ATOM      9  O   UNL     1       9.830   2.262  21.534  0.00  0.00    -0.168 OA
BRANCH   7  10
ATOM     10  C   UNL     1       8.293   2.773  23.610  0.00  0.00    +0.174 C 
ATOM     11  C   UNL     1       7.100   1.942  23.092  0.00  0.00    +0.068 C 
ATOM     12  C   UNL     1       5.810   2.255  23.843  0.00  0.00    +0.162 C 
ATOM     13  O   UNL     1       6.003   2.111  25.247  0.00  0.00    -0.380 OA
ATOM     14  C   UNL     1       6.961   3.032  25.753  0.00  0.00    +0.162 C 
ATOM     15  C   UNL     1       8.324   2.722  25.156  0.00  0.00    +0.068 C 
BRANCH  10  18
ATOM     16  N   UNL     1       7.563   4.414  21.914  0.00  0.00    -0.196 N 
ATOM     17  H   UNL     1       6.818   3.776  21.615  0.00  0.00    +0.182 HD
ATOM     18  C   UNL     1       8.196   4.226  23.130  0.00  0.00    +0.263 C 
ATOM     19  O   UNL     1       8.692   5.147  23.777  0.00  0.00    -0.271 OA
BRANCH  16  20
ATOM     20  O   UNL     1       7.457   5.762  21.503  0.00  0.00    -0.295 OA
ATOM     21  H   UNL     1       6.544   5.841  21.174  0.00  0.00    +0.241 HD
ENDBRANCH  16  20
ENDBRANCH  10  18
ENDBRANCH   7  10
ENDBRANCH   1   7
BRANCH   4  22
ATOM     22  O   UNL     1       9.844  -3.701  24.223  0.00  0.00    -0.456 OA
BRANCH  22  23
ATOM     23  C   UNL     1       8.728  -4.403  24.609  0.00  0.00    +0.128 A 
ATOM     24  C   UNL     1       7.644  -4.679  23.778  0.00  0.00    +0.047 A 
ATOM     25  C   UNL     1       6.504  -5.299  24.303  0.00  0.00    +0.016 A 
ATOM     26  C   UNL     1       6.423  -5.622  25.666  0.00  0.00    +0.055 A 
ATOM     27  C   UNL     1       7.511  -5.319  26.498  0.00  0.00    +0.016 A 
ATOM     28  C   UNL     1       8.653  -4.711  25.970  0.00  0.00    +0.047 A 
BRANCH  26  29
ATOM     29  C   UNL     1       5.167  -6.254  26.222  0.00  0.00    +0.417 C 
ATOM     30  F   UNL     1       4.573  -7.096  25.332  0.00  0.00    -0.166 F 
ATOM     31  F   UNL     1       4.223  -5.330  26.552  0.00  0.00    -0.166 F 
ATOM     32  F   UNL     1       5.376  -6.991  27.350  0.00  0.00    -0.166 F 
ENDBRANCH  26  29
ENDBRANCH  22  23
ENDBRANCH   4  22
TORSDOF 7
ENDMDL
MODEL 8
REMARK VINA RESULT:      -7.4      1.158      2.278
REMARK  Name = 
REMARK  7 active torsions:
REMARK  status: ('A' for Active; 'I' for Inactive)
REMARK    1  A    between atoms: O_1  and  N_2
REMARK    2  A    between atoms: C_3  and  C_5
REMARK    3  A    between atoms: C_5  and  S_11
REMARK    4  A    between atoms: S_11  and  C_14
REMARK    5  A    between atoms: C_17  and  O_18
REMARK    6  A    between atoms: O_18  and  C_19
REMARK    7  A    between atoms: C_22  and  C_25
REMARK                            x       y       z     vdW  Elec       q    Type
REMARK                         _______ _______ _______ _____ _____    ______ ____
ROOT
ATOM      1  C   UNL     1       9.261  -2.300  24.488  0.00  0.00    +0.090 A 
ATOM      2  C   UNL     1       9.829  -2.236  23.210  0.00  0.00    +0.030 A 
ATOM      3  C   UNL     1      10.313  -1.015  22.722  0.00  0.00    +0.048 A 
ATOM      4  C   UNL     1      10.271   0.124  23.528  0.00  0.00    +0.129 A 
ATOM      5  C   UNL     1       9.732   0.041  24.816  0.00  0.00    +0.048 A 
ATOM      6  C   UNL     1       9.237  -1.169  25.306  0.00  0.00    +0.030 A 
ENDROOT
BRANCH   1   7
ATOM      7  S   UNL     1       8.685  -3.861  25.126  0.00  0.00    +0.011 S 
ATOM      8  O   UNL     1       9.491  -4.889  24.497  0.00  0.00    -0.168 OA
ATOM      9  O   UNL     1       8.688  -3.745  26.578  0.00  0.00    -0.168 OA
BRANCH   7  10
ATOM     10  C   UNL     1       6.971  -4.064  24.607  0.00  0.00    +0.174 C 
ATOM     11  C   UNL     1       6.309  -5.237  25.362  0.00  0.00    +0.068 C 
ATOM     12  C   UNL     1       4.792  -5.243  25.200  0.00  0.00    +0.162 C 
ATOM     13  O   UNL     1       4.247  -3.981  25.572  0.00  0.00    -0.380 OA
ATOM     14  C   UNL     1       4.706  -2.930  24.731  0.00  0.00    +0.162 C 
ATOM     15  C   UNL     1       6.205  -2.755  24.914  0.00  0.00    +0.068 C 
BRANCH  10  18
ATOM     16  N   UNL     1       7.304  -5.620  22.716  0.00  0.00    -0.196 N 
ATOM     17  H   UNL     1       7.061  -6.410  23.322  0.00  0.00    +0.182 HD
ATOM     18  C   UNL     1       6.988  -4.326  23.096  0.00  0.00    +0.263 C 
ATOM     19  O   UNL     1       6.773  -3.424  22.289  0.00  0.00    -0.271 OA
BRANCH  16  20
ATOM     20  O   UNL     1       7.285  -5.849  21.323  0.00  0.00    -0.295 OA
ATOM     21  H   UNL     1       6.376  -5.626  21.055  0.00  0.00    +0.241 HD
ENDBRANCH  16  20
ENDBRANCH  10  18
ENDBRANCH   7  10
ENDBRANCH   1   7
BRANCH   4  22
ATOM     22  O   UNL     1      10.626   1.392  23.136  0.00  0.00    -0.456 OA
BRANCH  22  23
ATOM     23  C   UNL     1       9.699   2.401  23.029  0.00  0.00    +0.128 A 
ATOM     24  C   UNL     1       9.683   3.544  23.827  0.00  0.00    +0.047 A 
ATOM     25  C   UNL     1       8.625   4.455  23.716  0.00  0.00    +0.016 A 
ATOM     26  C   UNL     1       7.561   4.219  22.833  0.00  0.00    +0.055 A 
ATOM     27  C   UNL     1       7.576   3.055  22.051  0.00  0.00    +0.016 A 
ATOM     28  C   UNL     1       8.639   2.153  22.154  0.00  0.00    +0.047 A 
BRANCH  26  29
ATOM     29  C   UNL     1       6.408   5.194  22.758  0.00  0.00    +0.417 C 
ATOM     30  F   UNL     1       5.236   4.587  22.423  0.00  0.00    -0.166 F 
ATOM     31  F   UNL     1       6.608   6.164  21.822  0.00  0.00    -0.166 F 
ATOM     32  F   UNL     1       6.167   5.851  23.928  0.00  0.00    -0.166 F 
ENDBRANCH  26  29
ENDBRANCH  22  23
ENDBRANCH   4  22
TORSDOF 7
ENDMDL
MODEL 9
REMARK VINA RESULT:      -7.3      4.765      8.232
REMARK  Name = 
REMARK  7 active torsions:
REMARK  status: ('A' for Active; 'I' for Inactive)
REMARK    1  A    between atoms: O_1  and  N_2
REMARK    2  A    between atoms: C_3  and  C_5
REMARK    3  A    between atoms: C_5  and  S_11
REMARK    4  A    between atoms: S_11  and  C_14
REMARK    5  A    between atoms: C_17  and  O_18
REMARK    6  A    between atoms: O_18  and  C_19
REMARK    7  A    between atoms: C_22  and  C_25
REMARK                            x       y       z     vdW  Elec       q    Type
REMARK                         _______ _______ _______ _____ _____    ______ ____
ROOT
ATOM      1  C   UNL     1       9.532  -0.207  23.226  0.00  0.00    +0.090 A 
ATOM      2  C   UNL     1       8.909  -0.900  22.181  0.00  0.00    +0.030 A 
ATOM      3  C   UNL     1       8.634  -2.268  22.317  0.00  0.00    +0.048 A 
ATOM      4  C   UNL     1       8.940  -2.925  23.510  0.00  0.00    +0.129 A 
ATOM      5  C   UNL     1       9.532  -2.214  24.560  0.00  0.00    +0.048 A 
ATOM      6  C   UNL     1       9.818  -0.855  24.429  0.00  0.00    +0.030 A 
ENDROOT
BRANCH   1   7
ATOM      7  S   UNL     1       9.841   1.541  23.070  0.00  0.00    +0.011 S 
ATOM      8  O   UNL     1      10.790   1.889  24.110  0.00  0.00    -0.168 OA
ATOM      9  O   UNL     1      10.193   1.780  21.677  0.00  0.00    -0.168 OA
BRANCH   7  10
ATOM     10  C   UNL     1       8.288   2.400  23.386  0.00  0.00    +0.174 C 
ATOM     11  C   UNL     1       8.540   3.899  23.654  0.00  0.00    +0.068 C 
ATOM     12  C   UNL     1       7.254   4.718  23.606  0.00  0.00    +0.162 C 
ATOM     13  O   UNL     1       6.567   4.494  22.378  0.00  0.00    -0.380 OA
ATOM     14  C   UNL     1       6.152   3.140  22.235  0.00  0.00    +0.162 C 
ATOM     15  C   UNL     1       7.377   2.244  22.145  0.00  0.00    +0.068 C 
BRANCH  10  18
ATOM     16  N   UNL     1       8.225   2.019  25.827  0.00  0.00    -0.196 N 
ATOM     17  H   UNL     1       8.676   2.927  25.981  0.00  0.00    +0.182 HD
ATOM     18  C   UNL     1       7.643   1.729  24.605  0.00  0.00    +0.263 C 
ATOM     19  O   UNL     1       6.698   0.952  24.481  0.00  0.00    -0.271 OA
BRANCH  16  20
ATOM     20  O   UNL     1       7.599   1.415  26.939  0.00  0.00    -0.295 OA
ATOM     21  H   UNL     1       7.219   2.162  27.436  0.00  0.00    +0.241 HD
ENDBRANCH  16  20
ENDBRANCH  10  18
ENDBRANCH   7  10
ENDBRANCH   1   7
BRANCH   4  22
ATOM     22  O   UNL     1       8.807  -4.274  23.735  0.00  0.00    -0.456 OA
BRANCH  22  23
ATOM     23  C   UNL     1       7.580  -4.892  23.717  0.00  0.00    +0.128 A 
ATOM     24  C   UNL     1       7.029  -5.518  22.600  0.00  0.00    +0.047 A 
ATOM     25  C   UNL     1       5.720  -6.014  22.654  0.00  0.00    +0.016 A 
ATOM     26  C   UNL     1       4.941  -5.862  23.811  0.00  0.00    +0.055 A 
ATOM     27  C   UNL     1       5.497  -5.210  24.921  0.00  0.00    +0.016 A 
ATOM     28  C   UNL     1       6.807  -4.728  24.869  0.00  0.00    +0.047 A 
BRANCH  26  29
ATOM     29  C   UNL     1       3.516  -6.368  23.835  0.00  0.00    +0.417 C 
ATOM     30  F   UNL     1       2.710  -5.612  24.632  0.00  0.00    -0.166 F 
ATOM     31  F   UNL     1       3.425  -7.641  24.311  0.00  0.00    -0.166 F 
ATOM     32  F   UNL     1       2.918  -6.386  22.610  0.00  0.00    -0.166 F 
ENDBRANCH  26  29
ENDBRANCH  22  23
ENDBRANCH   4  22
TORSDOF 7
ENDMDL
