MODEL 1
REMARK VINA RESULT:      -6.8      0.000      0.000
REMARK  Name = 
REMARK  5 active torsions:
REMARK  status: ('A' for Active; 'I' for Inactive)
REMARK    1  A    between atoms: C_1  and  C_2
REMARK    2  A    between atoms: C_8  and  N_9
REMARK    3  A    between atoms: N_9  and  C_10
REMARK    4  A    between atoms: C_15  and  C_16
REMARK    5  A    between atoms: C_16  and  O_17
REMARK                            x       y       z     vdW  Elec       q    Type
REMARK                         _______ _______ _______ _____ _____    ______ ____
ROOT
ATOM      1  N   UNL     1      10.764   3.393  22.806  0.00  0.00    -0.314 N 
ATOM      2  H   UNL     1      11.579   3.234  22.212  0.00  0.00    +0.152 HD
ENDROOT
BRANCH   1   5
ATOM      3  C   UNL     1       8.256   2.295  21.781  0.00  0.00    +0.047 C 
ATOM      4  C   UNL     1       8.983   1.685  22.947  0.00  0.00    -0.011 A 
ATOM      5  C   UNL     1      10.267   2.148  23.307  0.00  0.00    +0.036 A 
ATOM      6  C   UNL     1      11.037   1.387  24.205  0.00  0.00    +0.023 A 
ATOM      7  C   UNL     1      10.483   0.315  24.900  0.00  0.00    +0.003 A 
ATOM      8  C   UNL     1       9.156  -0.009  24.704  0.00  0.00    +0.020 A 
ATOM      9  C   UNL     1       8.411   0.662  23.725  0.00  0.00    +0.046 A 
ATOM     10 CL   UNL     1       6.749   0.206  23.571  0.00  0.00    -0.083 Cl
ENDBRANCH   1   5
BRANCH   1  11
ATOM     11  C   UNL     1      10.803   4.604  23.555  0.00  0.00    +0.045 A 
ATOM     12  C   UNL     1      11.931   5.441  23.608  0.00  0.00    +0.080 A 
ATOM     13  C   UNL     1      11.999   6.494  24.535  0.00  0.00    +0.017 A 
ATOM     14  C   UNL     1      10.902   6.792  25.343  0.00  0.00    +0.001 A 
ATOM     15  C   UNL     1       9.722   6.077  25.188  0.00  0.00    +0.002 A 
ATOM     16  C   UNL     1       9.670   5.010  24.289  0.00  0.00    +0.024 A 
BRANCH  12  17
ATOM     17  C   UNL     1      13.084   5.276  22.696  0.00  0.00    +0.339 C 
ATOM     18  O   UNL     1      13.004   5.329  21.483  0.00  0.00    -0.245 OA
BRANCH  17  19
ATOM     19  O   UNL     1      14.227   4.986  23.361  0.00  0.00    -0.477 OA
ATOM     20  H   UNL     1      14.829   4.389  22.870  0.00  0.00    +0.295 HD
ENDBRANCH  17  19
ENDBRANCH  12  17
ENDBRANCH   1  11
TORSDOF 4
ENDMDL
MODEL 2
REMARK VINA RESULT:      -6.4      5.156      8.101
REMARK  Name = 
REMARK  5 active torsions:
REMARK  status: ('A' for Active; 'I' for Inactive)
REMARK    1  A    between atoms: C_1  and  C_2
REMARK    2  A    between atoms: C_8  and  N_9
REMARK    3  A    between atoms: N_9  and  C_10
REMARK    4  A    between atoms: C_15  and  C_16
REMARK    5  A    between atoms: C_16  and  O_17
REMARK                            x       y       z     vdW  Elec       q    Type
REMARK                         _______ _______ _______ _____ _____    ______ ____
ROOT
ATOM      1  N   UNL     1       9.616  -2.414  23.626  0.00  0.00    -0.314 N 
ATOM      2  H   UNL     1      10.431  -2.884  23.228  0.00  0.00    +0.152 HD
ENDROOT
BRANCH   1   5
ATOM      3  C   UNL     1       9.389  -0.470  25.797  0.00  0.00    +0.047 C 
ATOM      4  C   UNL     1       9.396  -0.061  24.351  0.00  0.00    -0.011 A 
ATOM      5  C   UNL     1       9.668  -1.011  23.344  0.00  0.00    +0.036 A 
ATOM      6  C   UNL     1       9.947  -0.561  22.040  0.00  0.00    +0.023 A 
ATOM      7  C   UNL     1       9.753   0.771  21.683  0.00  0.00    +0.003 A 
ATOM      8  C   UNL     1       9.282   1.666  22.621  0.00  0.00    +0.020 A 
ATOM      9  C   UNL     1       9.115   1.258  23.951  0.00  0.00    +0.046 A 
ATOM     10 CL   UNL     1       8.493   2.441  25.050  0.00  0.00    -0.083 Cl
ENDBRANCH   1   5
BRANCH   1  11
ATOM     11  C   UNL     1       8.422  -3.192  23.625  0.00  0.00    +0.045 A 
ATOM     12  C   UNL     1       8.260  -4.354  24.398  0.00  0.00    +0.080 A 
ATOM     13  C   UNL     1       7.162  -5.204  24.191  0.00  0.00    +0.017 A 
ATOM     14  C   UNL     1       6.160  -4.852  23.288  0.00  0.00    +0.001 A 
ATOM     15  C   UNL     1       6.225  -3.628  22.635  0.00  0.00    +0.002 A 
ATOM     16  C   UNL     1       7.333  -2.801  22.820  0.00  0.00    +0.024 A 
BRANCH  12  17
ATOM     17  C   UNL     1       9.209  -4.733  25.469  0.00  0.00    +0.339 C 
ATOM     18  O   UNL     1       8.990  -4.581  26.655  0.00  0.00    -0.245 OA
BRANCH  17  19
ATOM     19  O   UNL     1      10.379  -5.202  24.974  0.00  0.00    -0.477 OA
ATOM     20  H   UNL     1      10.828  -4.577  24.366  0.00  0.00    +0.295 HD
ENDBRANCH  17  19
ENDBRANCH  12  17
ENDBRANCH   1  11
TORSDOF 4
ENDMDL
MODEL 3
REMARK VINA RESULT:      -6.4      1.729      2.573
REMARK  Name = 
REMARK  5 active torsions:
REMARK  status: ('A' for Active; 'I' for Inactive)
REMARK    1  A    between atoms: C_1  and  C_2
REMARK    2  A    between atoms: C_8  and  N_9
REMARK    3  A    between atoms: N_9  and  C_10
REMARK    4  A    between atoms: C_15  and  C_16
REMARK    5  A    between atoms: C_16  and  O_17
REMARK                            x       y       z     vdW  Elec       q    Type
REMARK                         _______ _______ _______ _____ _____    ______ ____
ROOT
ATOM      1  N   UNL     1      10.738   2.671  23.426  0.00  0.00    -0.314 N 
ATOM      2  H   UNL     1      11.499   2.444  24.068  0.00  0.00    +0.152 HD
ENDROOT
BRANCH   1   5
ATOM      3  C   UNL     1      10.470   0.351  25.185  0.00  0.00    +0.047 C 
ATOM      4  C   UNL     1      10.132   0.293  23.721  0.00  0.00    -0.011 A 
ATOM      5  C   UNL     1      10.123   1.471  22.945  0.00  0.00    +0.036 A 
ATOM      6  C   UNL     1       9.537   1.439  21.666  0.00  0.00    +0.023 A 
ATOM      7  C   UNL     1       9.164   0.235  21.076  0.00  0.00    +0.003 A 
ATOM      8  C   UNL     1       9.369  -0.948  21.755  0.00  0.00    +0.020 A 
ATOM      9  C   UNL     1       9.839  -0.922  23.075  0.00  0.00    +0.046 A 
ATOM     10 CL   UNL     1      10.093  -2.455  23.836  0.00  0.00    -0.083 Cl
ENDBRANCH   1   5
BRANCH   1  11
ATOM     11  C   UNL     1      10.032   3.867  23.742  0.00  0.00    +0.045 A 
ATOM     12  C   UNL     1      10.656   5.121  23.863  0.00  0.00    +0.080 A 
ATOM     13  C   UNL     1       9.960   6.218  24.397  0.00  0.00    +0.017 A 
ATOM     14  C   UNL     1       8.607   6.107  24.714  0.00  0.00    +0.001 A 
ATOM     15  C   UNL     1       7.936   4.921  24.447  0.00  0.00    +0.002 A 
ATOM     16  C   UNL     1       8.638   3.823  23.948  0.00  0.00    +0.024 A 
BRANCH  12  17
ATOM     17  C   UNL     1      12.050   5.358  23.428  0.00  0.00    +0.339 C 
ATOM     18  O   UNL     1      12.920   5.805  24.150  0.00  0.00    -0.245 OA
BRANCH  17  19
ATOM     19  O   UNL     1      12.229   5.089  22.113  0.00  0.00    -0.477 OA
ATOM     20  H   UNL     1      11.778   5.723  21.516  0.00  0.00    +0.295 HD
ENDBRANCH  17  19
ENDBRANCH  12  17
ENDBRANCH   1  11
TORSDOF 4
ENDMDL
MODEL 4
REMARK VINA RESULT:      -6.1      5.317      8.197
REMARK  Name = 
REMARK  5 active torsions:
REMARK  status: ('A' for Active; 'I' for Inactive)
REMARK    1  A    between atoms: C_1  and  C_2
REMARK    2  A    between atoms: C_8  and  N_9
REMARK    3  A    between atoms: N_9  and  C_10
REMARK    4  A    between atoms: C_15  and  C_16
REMARK    5  A    between atoms: C_16  and  O_17
REMARK                            x       y       z     vdW  Elec       q    Type
REMARK                         _______ _______ _______ _____ _____    ______ ____
ROOT
ATOM      1  N   UNL     1       9.398  -2.270  24.002  0.00  0.00    -0.314 N 
ATOM      2  H   UNL     1      10.334  -2.377  23.609  0.00  0.00    +0.152 HD
ENDROOT
BRANCH   1   5
ATOM      3  C   UNL     1      10.097  -0.347  21.914  0.00  0.00    +0.047 C 
ATOM      4  C   UNL     1       9.563   0.080  23.253  0.00  0.00    -0.011 A 
ATOM      5  C   UNL     1       9.089  -0.882  24.170  0.00  0.00    +0.036 A 
ATOM      6  C   UNL     1       8.343  -0.452  25.283  0.00  0.00    +0.023 A 
ATOM      7  C   UNL     1       8.247   0.899  25.606  0.00  0.00    +0.003 A 
ATOM      8  C   UNL     1       8.892   1.833  24.823  0.00  0.00    +0.020 A 
ATOM      9  C   UNL     1       9.537   1.431  23.645  0.00  0.00    +0.046 A 
ATOM     10 CL   UNL     1      10.341   2.669  22.743  0.00  0.00    -0.083 Cl
ENDBRANCH   1   5
BRANCH   1  11
ATOM     11  C   UNL     1       8.461  -3.258  23.582  0.00  0.00    +0.045 A 
ATOM     12  C   UNL     1       8.402  -4.547  24.138  0.00  0.00    +0.080 A 
ATOM     13  C   UNL     1       7.621  -5.549  23.539  0.00  0.00    +0.017 A 
ATOM     14  C   UNL     1       6.809  -5.251  22.445  0.00  0.00    +0.001 A 
ATOM     15  C   UNL     1       6.734  -3.943  21.986  0.00  0.00    +0.002 A 
ATOM     16  C   UNL     1       7.535  -2.956  22.563  0.00  0.00    +0.024 A 
BRANCH  12  17
ATOM     17  C   UNL     1       9.129  -4.913  25.373  0.00  0.00    +0.339 C 
ATOM     18  O   UNL     1       9.072  -4.276  26.409  0.00  0.00    -0.245 OA
BRANCH  17  19
ATOM     19  O   UNL     1       9.923  -5.995  25.200  0.00  0.00    -0.477 OA
ATOM     20  H   UNL     1       9.459  -6.849  25.330  0.00  0.00    +0.295 HD
ENDBRANCH  17  19
ENDBRANCH  12  17
ENDBRANCH   1  11
TORSDOF 4
ENDMDL
MODEL 5
REMARK VINA RESULT:      -6.0      6.172      8.925
REMARK  Name = 
REMARK  5 active torsions:
REMARK  status: ('A' for Active; 'I' for Inactive)
REMARK    1  A    between atoms: C_1  and  C_2
REMARK    2  A    between atoms: C_8  and  N_9
REMARK    3  A    between atoms: N_9  and  C_10
REMARK    4  A    between atoms: C_15  and  C_16
REMARK    5  A    between atoms: C_16  and  O_17
REMARK                            x       y       z     vdW  Elec       q    Type
REMARK                         _______ _______ _______ _____ _____    ______ ____
ROOT
ATOM      1  N   UNL     1       7.721  -3.198  22.424  0.00  0.00    -0.314 N 
ATOM      2  H   UNL     1       6.944  -3.318  21.773  0.00  0.00    +0.152 HD
ENDROOT
BRANCH   1   5
ATOM      3  C   UNL     1       6.200  -1.171  23.881  0.00  0.00    +0.047 C 
ATOM      4  C   UNL     1       7.353  -0.818  22.983  0.00  0.00    -0.011 A 
ATOM      5  C   UNL     1       8.158  -1.835  22.426  0.00  0.00    +0.036 A 
ATOM      6  C   UNL     1       9.383  -1.483  21.830  0.00  0.00    +0.023 A 
ATOM      7  C   UNL     1       9.710  -0.150  21.591  0.00  0.00    +0.003 A 
ATOM      8  C   UNL     1       8.821   0.843  21.948  0.00  0.00    +0.020 A 
ATOM      9  C   UNL     1       7.654   0.515  22.650  0.00  0.00    +0.046 A 
ATOM     10 CL   UNL     1       6.586   1.823  23.029  0.00  0.00    -0.083 Cl
ENDBRANCH   1   5
BRANCH   1  11
ATOM     11  C   UNL     1       7.659  -4.025  23.582  0.00  0.00    +0.045 A 
ATOM     12  C   UNL     1       6.547  -4.827  23.897  0.00  0.00    +0.080 A 
ATOM     13  C   UNL     1       6.441  -5.441  25.155  0.00  0.00    +0.017 A 
ATOM     14  C   UNL     1       7.488  -5.352  26.073  0.00  0.00    +0.001 A 
ATOM     15  C   UNL     1       8.660  -4.700  25.714  0.00  0.00    +0.002 A 
ATOM     16  C   UNL     1       8.749  -4.063  24.475  0.00  0.00    +0.024 A 
BRANCH  12  17
ATOM     17  C   UNL     1       5.454  -5.080  22.933  0.00  0.00    +0.339 C 
ATOM     18  O   UNL     1       4.762  -4.206  22.446  0.00  0.00    -0.245 OA
BRANCH  17  19
ATOM     19  O   UNL     1       5.265  -6.401  22.708  0.00  0.00    -0.477 OA
ATOM     20  H   UNL     1       5.989  -6.823  22.200  0.00  0.00    +0.295 HD
ENDBRANCH  17  19
ENDBRANCH  12  17
ENDBRANCH   1  11
TORSDOF 4
ENDMDL
MODEL 6
REMARK VINA RESULT:      -5.9      5.389      8.344
REMARK  Name = 
REMARK  5 active torsions:
REMARK  status: ('A' for Active; 'I' for Inactive)
REMARK    1  A    between atoms: C_1  and  C_2
REMARK    2  A    between atoms: C_8  and  N_9
REMARK    3  A    between atoms: N_9  and  C_10
REMARK    4  A    between atoms: C_15  and  C_16
REMARK    5  A    between atoms: C_16  and  O_17
REMARK                            x       y       z     vdW  Elec       q    Type
REMARK                         _______ _______ _______ _____ _____    ______ ____
ROOT
ATOM      1  N   UNL     1       9.487  -2.881  24.167  0.00  0.00    -0.314 N 
ATOM      2  H   UNL     1       9.866  -3.154  23.260  0.00  0.00    +0.152 HD
ENDROOT
BRANCH   1   5
ATOM      3  C   UNL     1       9.739  -1.295  21.724  0.00  0.00    +0.047 C 
ATOM      4  C   UNL     1       9.524  -0.665  23.072  0.00  0.00    -0.011 A 
ATOM      5  C   UNL     1       9.249  -1.469  24.198  0.00  0.00    +0.036 A 
ATOM      6  C   UNL     1       8.778  -0.856  25.374  0.00  0.00    +0.023 A 
ATOM      7  C   UNL     1       8.781   0.529  25.514  0.00  0.00    +0.003 A 
ATOM      8  C   UNL     1       9.253   1.316  24.484  0.00  0.00    +0.020 A 
ATOM      9  C   UNL     1       9.611   0.726  23.264  0.00  0.00    +0.046 A 
ATOM     10 CL   UNL     1      10.218   1.789  22.041  0.00  0.00    -0.083 Cl
ENDBRANCH   1   5
BRANCH   1  11
ATOM     11  C   UNL     1       8.640  -3.853  24.774  0.00  0.00    +0.045 A 
ATOM     12  C   UNL     1       7.521  -4.409  24.130  0.00  0.00    +0.080 A 
ATOM     13  C   UNL     1       6.595  -5.184  24.846  0.00  0.00    +0.017 A 
ATOM     14  C   UNL     1       6.829  -5.504  26.183  0.00  0.00    +0.001 A 
ATOM     15  C   UNL     1       8.011  -5.098  26.788  0.00  0.00    +0.002 A 
ATOM     16  C   UNL     1       8.913  -4.300  26.083  0.00  0.00    +0.024 A 
BRANCH  12  17
ATOM     17  C   UNL     1       7.268  -4.228  22.684  0.00  0.00    +0.339 C 
ATOM     18  O   UNL     1       6.912  -3.178  22.182  0.00  0.00    -0.245 OA
BRANCH  17  19
ATOM     19  O   UNL     1       7.406  -5.382  21.990  0.00  0.00    -0.477 OA
ATOM     20  H   UNL     1       8.332  -5.701  21.936  0.00  0.00    +0.295 HD
ENDBRANCH  17  19
ENDBRANCH  12  17
ENDBRANCH   1  11
TORSDOF 4
ENDMDL
MODEL 7
REMARK VINA RESULT:      -5.8      2.147      2.775
REMARK  Name = 
REMARK  5 active torsions:
REMARK  status: ('A' for Active; 'I' for Inactive)
REMARK    1  A    between atoms: C_1  and  C_2
REMARK    2  A    between atoms: C_8  and  N_9
REMARK    3  A    between atoms: N_9  and  C_10
REMARK    4  A    between atoms: C_15  and  C_16
REMARK    5  A    between atoms: C_16  and  O_17
REMARK                            x       y       z     vdW  Elec       q    Type
REMARK                         _______ _______ _______ _____ _____    ______ ____
ROOT
ATOM      1  N   UNL     1      10.520   2.968  22.593  0.00  0.00    -0.314 N 
ATOM      2  H   UNL     1      11.119   2.826  21.778  0.00  0.00    +0.152 HD
ENDROOT
BRANCH   1   5
ATOM      3  C   UNL     1       8.397   1.399  21.337  0.00  0.00    +0.047 C 
ATOM      4  C   UNL     1       9.006   1.015  22.657  0.00  0.00    -0.011 A 
ATOM      5  C   UNL     1      10.134   1.707  23.149  0.00  0.00    +0.036 A 
ATOM      6  C   UNL     1      10.850   1.159  24.229  0.00  0.00    +0.023 A 
ATOM      7  C   UNL     1      10.351   0.076  24.948  0.00  0.00    +0.003 A 
ATOM      8  C   UNL     1       9.136  -0.472  24.596  0.00  0.00    +0.020 A 
ATOM      9  C   UNL     1       8.470  -0.016  23.450  0.00  0.00    +0.046 A 
ATOM     10 CL   UNL     1       6.939  -0.743  23.104  0.00  0.00    -0.083 Cl
ENDBRANCH   1   5
BRANCH   1  11
ATOM     11  C   UNL     1      10.831   4.126  23.363  0.00  0.00    +0.045 A 
ATOM     12  C   UNL     1       9.876   4.824  24.123  0.00  0.00    +0.080 A 
ATOM     13  C   UNL     1      10.179   6.079  24.675  0.00  0.00    +0.017 A 
ATOM     14  C   UNL     1      11.467   6.603  24.569  0.00  0.00    +0.001 A 
ATOM     15  C   UNL     1      12.464   5.851  23.961  0.00  0.00    +0.002 A 
ATOM     16  C   UNL     1      12.151   4.619  23.385  0.00  0.00    +0.024 A 
BRANCH  12  17
ATOM     17  C   UNL     1       8.527   4.279  24.395  0.00  0.00    +0.339 C 
ATOM     18  O   UNL     1       8.202   3.767  25.449  0.00  0.00    -0.245 OA
BRANCH  17  19
ATOM     19  O   UNL     1       7.718   4.350  23.312  0.00  0.00    -0.477 OA
ATOM     20  H   UNL     1       6.820   3.987  23.467  0.00  0.00    +0.295 HD
ENDBRANCH  17  19
ENDBRANCH  12  17
ENDBRANCH   1  11
TORSDOF 4
ENDMDL
MODEL 8
REMARK VINA RESULT:      -5.8      4.394      5.995
REMARK  Name = 
REMARK  5 active torsions:
REMARK  status: ('A' for Active; 'I' for Inactive)
REMARK    1  A    between atoms: C_1  and  C_2
REMARK    2  A    between atoms: C_8  and  N_9
REMARK    3  A    between atoms: N_9  and  C_10
REMARK    4  A    between atoms: C_15  and  C_16
REMARK    5  A    between atoms: C_16  and  O_17
REMARK                            x       y       z     vdW  Elec       q    Type
REMARK                         _______ _______ _______ _____ _____    ______ ____
ROOT
ATOM      1  N   UNL     1       7.172  -0.599  22.811  0.00  0.00    -0.314 N 
ATOM      2  H   UNL     1       7.261  -1.005  21.878  0.00  0.00    +0.152 HD
ENDROOT
BRANCH   1   5
ATOM      3  C   UNL     1       6.542  -3.321  21.951  0.00  0.00    +0.047 C 
ATOM      4  C   UNL     1       5.939  -2.709  23.185  0.00  0.00    -0.011 A 
ATOM      5  C   UNL     1       6.391  -1.456  23.651  0.00  0.00    +0.036 A 
ATOM      6  C   UNL     1       6.023  -1.037  24.943  0.00  0.00    +0.023 A 
ATOM      7  C   UNL     1       5.062  -1.728  25.677  0.00  0.00    +0.003 A 
ATOM      8  C   UNL     1       4.461  -2.844  25.130  0.00  0.00    +0.020 A 
ATOM      9  C   UNL     1       4.904  -3.341  23.897  0.00  0.00    +0.046 A 
ATOM     10 CL   UNL     1       4.071  -4.725  23.278  0.00  0.00    -0.083 Cl
ENDBRANCH   1   5
BRANCH   1  11
ATOM     11  C   UNL     1       8.311   0.137  23.249  0.00  0.00    +0.045 A 
ATOM     12  C   UNL     1       9.589  -0.431  23.385  0.00  0.00    +0.080 A 
ATOM     13  C   UNL     1      10.619   0.270  24.033  0.00  0.00    +0.017 A 
ATOM     14  C   UNL     1      10.419   1.584  24.456  0.00  0.00    +0.001 A 
ATOM     15  C   UNL     1       9.212   2.215  24.182  0.00  0.00    +0.002 A 
ATOM     16  C   UNL     1       8.181   1.504  23.567  0.00  0.00    +0.024 A 
BRANCH  12  17
ATOM     17  C   UNL     1       9.923  -1.769  22.849  0.00  0.00    +0.339 C 
ATOM     18  O   UNL     1      10.238  -2.719  23.540  0.00  0.00    -0.245 OA
BRANCH  17  19
ATOM     19  O   UNL     1       9.909  -1.796  21.495  0.00  0.00    -0.477 OA
ATOM     20  H   UNL     1      10.748  -1.497  21.086  0.00  0.00    +0.295 HD
ENDBRANCH  17  19
ENDBRANCH  12  17
ENDBRANCH   1  11
TORSDOF 4
ENDMDL
MODEL 9
REMARK VINA RESULT:      -5.8      4.631      6.367
REMARK  Name = 
REMARK  5 active torsions:
REMARK  status: ('A' for Active; 'I' for Inactive)
REMARK    1  A    between atoms: C_1  and  C_2
REMARK    2  A    between atoms: C_8  and  N_9
REMARK    3  A    between atoms: N_9  and  C_10
REMARK    4  A    between atoms: C_15  and  C_16
REMARK    5  A    between atoms: C_16  and  O_17
REMARK                            x       y       z     vdW  Elec       q    Type
REMARK                         _______ _______ _______ _____ _____    ______ ____
ROOT
ATOM      1  N   UNL     1       9.497  -2.736  24.340  0.00  0.00    -0.314 N 
ATOM      2  H   UNL     1      10.485  -2.950  24.484  0.00  0.00    +0.152 HD
ENDROOT
BRANCH   1   5
ATOM      3  C   UNL     1       7.471  -3.979  22.639  0.00  0.00    +0.047 C 
ATOM      4  C   UNL     1       7.594  -4.296  24.103  0.00  0.00    -0.011 A 
ATOM      5  C   UNL     1       8.682  -3.797  24.850  0.00  0.00    +0.036 A 
ATOM      6  C   UNL     1       8.930  -4.328  26.129  0.00  0.00    +0.023 A 
ATOM      7  C   UNL     1       8.010  -5.171  26.749  0.00  0.00    +0.003 A 
ATOM      8  C   UNL     1       6.837  -5.493  26.099  0.00  0.00    +0.020 A 
ATOM      9  C   UNL     1       6.633  -5.069  24.778  0.00  0.00    +0.046 A 
ATOM     10 CL   UNL     1       5.120  -5.497  24.055  0.00  0.00    -0.083 Cl
ENDBRANCH   1   5
BRANCH   1  11
ATOM     11  C   UNL     1       9.169  -1.352  24.435  0.00  0.00    +0.045 A 
ATOM     12  C   UNL     1       9.424  -0.429  23.407  0.00  0.00    +0.080 A 
ATOM     13  C   UNL     1       9.293   0.951  23.636  0.00  0.00    +0.017 A 
ATOM     14  C   UNL     1       8.806   1.419  24.855  0.00  0.00    +0.001 A 
ATOM     15  C   UNL     1       8.396   0.512  25.823  0.00  0.00    +0.002 A 
ATOM     16  C   UNL     1       8.558  -0.857  25.605  0.00  0.00    +0.024 A 
BRANCH  12  17
ATOM     17  C   UNL     1       9.819  -0.848  22.044  0.00  0.00    +0.339 C 
ATOM     18  O   UNL     1       9.275  -0.457  21.029  0.00  0.00    -0.245 OA
BRANCH  17  19
ATOM     19  O   UNL     1      10.807  -1.773  22.059  0.00  0.00    -0.477 OA
ATOM     20  H   UNL     1      11.518  -1.601  21.406  0.00  0.00    +0.295 HD
ENDBRANCH  17  19
ENDBRANCH  12  17
ENDBRANCH   1  11
TORSDOF 4
ENDMDL
