MODEL 1
REMARK VINA RESULT:      -6.8      0.000      0.000
REMARK  Name = 
REMARK  10 active torsions:
REMARK  status: ('A' for Active; 'I' for Inactive)
REMARK    1  A    between atoms: CB_5  and  CG1_6
REMARK    2  A    between atoms: CA_8  and  C_30
REMARK    3  A    between atoms: CA_12  and  N_14
REMARK    4  A    between atoms: C_15  and  C_17
REMARK    5  A    between atoms: C_17  and  C_24
REMARK    6  A    between atoms: N_18  and  O_19
REMARK    7  A    between atoms: O_19  and  C_20
REMARK    8  A    between atoms: C_20  and  C_21
REMARK    9  A    between atoms: C_21  and  O_22
REMARK   10  A    between atoms: C_30  and  O_31
REMARK                            x       y       z     vdW  Elec       q    Type
REMARK                         _______ _______ _______ _____ _____    ______ ____
ROOT
ATOM      1  N   UNK A   1       8.567   0.623  24.753  0.00  0.00    -0.296 N 
ATOM      2  H   UNK A   1       7.698   1.076  24.478  0.00  0.00    +0.150 HD
ATOM      3  C   UNK A   0       9.732   1.238  24.351  0.00  0.00    +0.268 C 
ATOM      4  O   UNK A   0      10.837   0.903  24.755  0.00  0.00    -0.268 OA
ENDROOT
BRANCH   1   6
ATOM      5  C   UNK A   1       7.241  -1.131  26.222  0.00  0.00    +0.169 C 
ATOM      6  C   UNK A   1       8.585  -0.414  25.842  0.00  0.00    +0.191 C 
ATOM      7  C   UNK A   1       8.996  -1.836  25.345  0.00  0.00    +0.244 C 
ATOM      8  O   UNK A   1       9.961  -2.347  24.821  0.00  0.00    -0.273 OA
ATOM      9  N   UNK A   2       7.732  -2.277  25.478  0.00  0.00    -0.249 N 
ATOM     10  C   UNK A   2       6.988  -3.376  25.138  0.00  0.00    +0.126 C 
ATOM     11  C   UNK A   2       5.625  -3.280  25.085  0.00  0.00    -0.010 C 
ATOM     12  C   UNK A   2       4.851  -2.015  25.439  0.00  0.00    +0.108 C 
ATOM     13  S   UNK A   2       5.769  -0.475  25.432  0.00  0.00    -0.131 S 
BRANCH  10  14
ATOM     14  C   UNK A   2       7.694  -4.685  24.828  0.00  0.00    +0.352 C 
ATOM     15  O   UNK A   2       7.764  -5.614  25.620  0.00  0.00    -0.244 OA
BRANCH  14  16
ATOM     16  O   UNK A   2       8.303  -4.796  23.633  0.00  0.00    -0.476 OA
ATOM     17  H   UNK A   2       8.008  -5.500  23.016  0.00  0.00    +0.295 HD
ENDBRANCH  14  16
ENDBRANCH  10  14
BRANCH  11  18
ATOM     18  C   UNK A   2       4.741  -4.363  24.604  0.00  0.00    -0.001 C 
ATOM     19  C   UNK A   2       4.233  -4.520  23.370  0.00  0.00    +0.009 C 
ENDBRANCH  11  18
ENDBRANCH   1   6
BRANCH   3  20
ATOM     20  C   UNK A   0       9.614   2.343  23.295  0.00  0.00    +0.190 C 
ATOM     21  N   UNK A   0       8.986   2.243  22.152  0.00  0.00    -0.077 NA
BRANCH  20  22
ATOM     22  C   UNK A   0      10.239   3.639  23.532  0.00  0.00    +0.107 A 
ATOM     23  N   UNK A   0      11.600   3.829  23.273  0.00  0.00    -0.223 NA
ATOM     24  C   UNK A   0      11.948   5.062  23.540  0.00  0.00    +0.156 A 
ATOM     25  N   UNK A   0      13.190   5.532  23.358  0.00  0.00    -0.338 N 
ATOM     26  H   UNK A   0      13.789   4.991  22.744  0.00  0.00    +0.144 HD
ATOM     27  H   UNK A   0      13.318   6.534  23.290  0.00  0.00    +0.144 HD
ATOM     28  S   UNK A   0      10.693   6.068  24.137  0.00  0.00    -0.060 S 
ATOM     29  C   UNK A   0       9.595   4.763  24.015  0.00  0.00    +0.078 A 
ENDBRANCH  20  22
BRANCH  21  30
ATOM     30  O   UNK A   0       8.309   1.045  21.923  0.00  0.00    -0.382 OA
BRANCH  30  31
ATOM     31  C   UNK A   0       9.160   0.177  21.167  0.00  0.00    +0.382 C 
BRANCH  31  32
ATOM     32  C   UNK A   0       9.283  -1.256  21.684  0.00  0.00    +0.345 C 
ATOM     33  O   UNK A   0       8.323  -1.986  21.889  0.00  0.00    -0.247 OA
BRANCH  32  34
ATOM     34  O   UNK A   0      10.551  -1.636  21.967  0.00  0.00    -0.478 OA
ATOM     35  H   UNK A   0      10.596  -2.047  22.866  0.00  0.00    +0.295 HD
ENDBRANCH  32  34
ENDBRANCH  31  32
ENDBRANCH  30  31
ENDBRANCH  21  30
ENDBRANCH   3  20
TORSDOF 10
ENDMDL
MODEL 2
REMARK VINA RESULT:      -6.7      2.734      4.435
REMARK  Name = 
REMARK  10 active torsions:
REMARK  status: ('A' for Active; 'I' for Inactive)
REMARK    1  A    between atoms: CB_5  and  CG1_6
REMARK    2  A    between atoms: CA_8  and  C_30
REMARK    3  A    between atoms: CA_12  and  N_14
REMARK    4  A    between atoms: C_15  and  C_17
REMARK    5  A    between atoms: C_17  and  C_24
REMARK    6  A    between atoms: N_18  and  O_19
REMARK    7  A    between atoms: O_19  and  C_20
REMARK    8  A    between atoms: C_20  and  C_21
REMARK    9  A    between atoms: C_21  and  O_22
REMARK   10  A    between atoms: C_30  and  O_31
REMARK                            x       y       z     vdW  Elec       q    Type
REMARK                         _______ _______ _______ _____ _____    ______ ____
ROOT
ATOM      1  N   UNK A   1       9.523   0.859  23.872  0.00  0.00    -0.296 N 
ATOM      2  H   UNK A   1       9.230   1.160  24.799  0.00  0.00    +0.150 HD
ATOM      3  C   UNK A   0       9.740   1.854  22.946  0.00  0.00    +0.268 C 
ATOM      4  O   UNK A   0      10.258   1.649  21.857  0.00  0.00    -0.268 OA
ENDROOT
BRANCH   1   6
ATOM      5  C   UNK A   1       9.654  -1.665  24.653  0.00  0.00    +0.169 C 
ATOM      6  C   UNK A   1      10.056  -0.529  23.646  0.00  0.00    +0.191 C 
ATOM      7  C   UNK A   1       9.209  -1.367  22.638  0.00  0.00    +0.244 C 
ATOM      8  O   UNK A   1       8.880  -1.287  21.475  0.00  0.00    -0.273 OA
ATOM      9  N   UNK A   2       8.730  -2.132  23.636  0.00  0.00    -0.249 N 
ATOM     10  C   UNK A   2       7.759  -3.081  23.826  0.00  0.00    +0.126 C 
ATOM     11  C   UNK A   2       7.298  -3.333  25.089  0.00  0.00    -0.010 C 
ATOM     12  C   UNK A   2       7.841  -2.651  26.341  0.00  0.00    +0.108 C 
ATOM     13  S   UNK A   2       8.744  -1.121  26.102  0.00  0.00    -0.131 S 
BRANCH  10  14
ATOM     14  C   UNK A   2       7.215  -3.838  22.628  0.00  0.00    +0.352 C 
ATOM     15  O   UNK A   2       7.525  -4.992  22.366  0.00  0.00    -0.244 OA
BRANCH  14  16
ATOM     16  O   UNK A   2       6.383  -3.179  21.800  0.00  0.00    -0.476 OA
ATOM     17  H   UNK A   2       6.619  -2.270  21.518  0.00  0.00    +0.295 HD
ENDBRANCH  14  16
ENDBRANCH  10  14
BRANCH  11  18
ATOM     18  C   UNK A   2       6.168  -4.237  25.388  0.00  0.00    -0.001 C 
ATOM     19  C   UNK A   2       6.202  -5.399  26.061  0.00  0.00    +0.009 C 
ENDBRANCH  11  18
ENDBRANCH   1   6
BRANCH   3  20
ATOM     20  C   UNK A   0       9.236   3.260  23.293  0.00  0.00    +0.190 C 
ATOM     21  N   UNK A   0       9.984   4.272  23.648  0.00  0.00    -0.077 NA
BRANCH  20  22
ATOM     22  C   UNK A   0       7.807   3.548  23.240  0.00  0.00    +0.107 A 
ATOM     23  N   UNK A   0       6.873   2.576  23.610  0.00  0.00    -0.223 NA
ATOM     24  C   UNK A   0       5.657   3.047  23.503  0.00  0.00    +0.156 A 
ATOM     25  N   UNK A   0       4.563   2.341  23.820  0.00  0.00    -0.338 N 
ATOM     26  H   UNK A   0       4.709   1.529  24.410  0.00  0.00    +0.144 HD
ATOM     27  H   UNK A   0       3.704   2.844  24.005  0.00  0.00    +0.144 HD
ATOM     28  S   UNK A   0       5.541   4.662  22.936  0.00  0.00    -0.060 S 
ATOM     29  C   UNK A   0       7.246   4.746  22.840  0.00  0.00    +0.078 A 
ENDBRANCH  20  22
BRANCH  21  30
ATOM     30  O   UNK A   0      11.361   4.057  23.633  0.00  0.00    -0.382 OA
BRANCH  30  31
ATOM     31  C   UNK A   0      12.021   5.324  23.544  0.00  0.00    +0.382 C 
BRANCH  31  32
ATOM     32  C   UNK A   0      13.264   5.371  22.657  0.00  0.00    +0.345 C 
ATOM     33  O   UNK A   0      13.236   5.658  21.468  0.00  0.00    -0.247 OA
BRANCH  32  34
ATOM     34  O   UNK A   0      14.406   4.999  23.281  0.00  0.00    -0.478 OA
ATOM     35  H   UNK A   0      14.720   5.719  23.884  0.00  0.00    +0.295 HD
ENDBRANCH  32  34
ENDBRANCH  31  32
ENDBRANCH  30  31
ENDBRANCH  21  30
ENDBRANCH   3  20
TORSDOF 10
ENDMDL
MODEL 3
REMARK VINA RESULT:      -6.7      3.583      8.495
REMARK  Name = 
REMARK  10 active torsions:
REMARK  status: ('A' for Active; 'I' for Inactive)
REMARK    1  A    between atoms: CB_5  and  CG1_6
REMARK    2  A    between atoms: CA_8  and  C_30
REMARK    3  A    between atoms: CA_12  and  N_14
REMARK    4  A    between atoms: C_15  and  C_17
REMARK    5  A    between atoms: C_17  and  C_24
REMARK    6  A    between atoms: N_18  and  O_19
REMARK    7  A    between atoms: O_19  and  C_20
REMARK    8  A    between atoms: C_20  and  C_21
REMARK    9  A    between atoms: C_21  and  O_22
REMARK   10  A    between atoms: C_30  and  O_31
REMARK                            x       y       z     vdW  Elec       q    Type
REMARK                         _______ _______ _______ _____ _____    ______ ____
ROOT
ATOM      1  N   UNK A   1       7.262  -3.413  25.832  0.00  0.00    -0.296 N 
ATOM      2  H   UNK A   1       6.582  -2.956  25.229  0.00  0.00    +0.150 HD
ATOM      3  C   UNK A   0       6.862  -4.589  26.425  0.00  0.00    +0.268 C 
ATOM      4  O   UNK A   0       7.629  -5.327  27.028  0.00  0.00    -0.268 OA
ENDROOT
BRANCH   1   6
ATOM      5  C   UNK A   1       9.350  -2.701  24.372  0.00  0.00    +0.169 C 
ATOM      6  C   UNK A   1       8.719  -3.044  25.768  0.00  0.00    +0.191 C 
ATOM      7  C   UNK A   1       8.995  -1.537  26.064  0.00  0.00    +0.244 C 
ATOM      8  O   UNK A   1       8.824  -0.768  26.985  0.00  0.00    -0.273 OA
ATOM      9  N   UNK A   2       9.279  -1.307  24.769  0.00  0.00    -0.249 N 
ATOM     10  C   UNK A   2       9.491  -0.238  23.939  0.00  0.00    +0.126 C 
ATOM     11  C   UNK A   2       9.347  -0.391  22.587  0.00  0.00    -0.010 C 
ATOM     12  C   UNK A   2       9.008  -1.718  21.918  0.00  0.00    +0.108 C 
ATOM     13  S   UNK A   2       8.284  -2.988  22.956  0.00  0.00    -0.131 S 
BRANCH  10  14
ATOM     14  C   UNK A   2       9.887   1.101  24.538  0.00  0.00    +0.352 C 
ATOM     15  O   UNK A   2      11.015   1.567  24.455  0.00  0.00    -0.244 OA
BRANCH  14  16
ATOM     16  O   UNK A   2       8.948   1.777  25.226  0.00  0.00    -0.476 OA
ATOM     17  H   UNK A   2       8.713   1.474  26.128  0.00  0.00    +0.295 HD
ENDBRANCH  14  16
ENDBRANCH  10  14
BRANCH  11  18
ATOM     18  C   UNK A   2       9.423   0.723  21.619  0.00  0.00    -0.001 C 
ATOM     19  C   UNK A   2       8.462   1.611  21.314  0.00  0.00    +0.009 C 
ENDBRANCH  11  18
ENDBRANCH   1   6
BRANCH   3  20
ATOM     20  C   UNK A   0       5.367  -4.929  26.372  0.00  0.00    +0.190 C 
ATOM     21  N   UNK A   0       4.539  -4.883  27.383  0.00  0.00    -0.077 NA
BRANCH  20  22
ATOM     22  C   UNK A   0       4.765  -5.348  25.111  0.00  0.00    +0.107 A 
ATOM     23  N   UNK A   0       5.559  -5.548  23.978  0.00  0.00    -0.223 NA
ATOM     24  C   UNK A   0       4.823  -5.934  22.967  0.00  0.00    +0.156 A 
ATOM     25  N   UNK A   0       5.325  -6.226  21.760  0.00  0.00    -0.338 N 
ATOM     26  H   UNK A   0       6.322  -6.412  21.721  0.00  0.00    +0.144 HD
ATOM     27  H   UNK A   0       4.769  -6.794  21.133  0.00  0.00    +0.144 HD
ATOM     28  S   UNK A   0       3.142  -6.060  23.287  0.00  0.00    -0.060 S 
ATOM     29  C   UNK A   0       3.419  -5.579  24.904  0.00  0.00    +0.078 A 
ENDBRANCH  20  22
BRANCH  21  30
ATOM     30  O   UNK A   0       5.060  -4.412  28.587  0.00  0.00    -0.382 OA
BRANCH  30  31
ATOM     31  C   UNK A   0       4.789  -5.375  29.610  0.00  0.00    +0.382 C 
BRANCH  31  32
ATOM     32  C   UNK A   0       5.685  -6.613  29.619  0.00  0.00    +0.345 C 
ATOM     33  O   UNK A   0       6.591  -6.786  30.423  0.00  0.00    -0.247 OA
BRANCH  32  34
ATOM     34  O   UNK A   0       5.438  -7.483  28.612  0.00  0.00    -0.478 OA
ATOM     35  H   UNK A   0       5.834  -7.155  27.767  0.00  0.00    +0.295 HD
ENDBRANCH  32  34
ENDBRANCH  31  32
ENDBRANCH  30  31
ENDBRANCH  21  30
ENDBRANCH   3  20
TORSDOF 10
ENDMDL
MODEL 4
REMARK VINA RESULT:      -6.6      3.190      7.914
REMARK  Name = 
REMARK  10 active torsions:
REMARK  status: ('A' for Active; 'I' for Inactive)
REMARK    1  A    between atoms: CB_5  and  CG1_6
REMARK    2  A    between atoms: CA_8  and  C_30
REMARK    3  A    between atoms: CA_12  and  N_14
REMARK    4  A    between atoms: C_15  and  C_17
REMARK    5  A    between atoms: C_17  and  C_24
REMARK    6  A    between atoms: N_18  and  O_19
REMARK    7  A    between atoms: O_19  and  C_20
REMARK    8  A    between atoms: C_20  and  C_21
REMARK    9  A    between atoms: C_21  and  O_22
REMARK   10  A    between atoms: C_30  and  O_31
REMARK                            x       y       z     vdW  Elec       q    Type
REMARK                         _______ _______ _______ _____ _____    ______ ____
ROOT
ATOM      1  N   UNK A   1       8.383  -2.903  24.538  0.00  0.00    -0.296 N 
ATOM      2  H   UNK A   1       7.992  -3.075  23.615  0.00  0.00    +0.150 HD
ATOM      3  C   UNK A   0       8.134  -3.860  25.496  0.00  0.00    +0.268 C 
ATOM      4  O   UNK A   0       8.683  -3.869  26.589  0.00  0.00    -0.268 OA
ENDROOT
BRANCH   1   6
ATOM      5  C   UNK A   1       9.788  -0.881  23.572  0.00  0.00    +0.169 C 
ATOM      6  C   UNK A   1       9.473  -1.887  24.736  0.00  0.00    +0.191 C 
ATOM      7  C   UNK A   1       9.000  -0.599  25.481  0.00  0.00    +0.244 C 
ATOM      8  O   UNK A   1       8.525  -0.324  26.561  0.00  0.00    -0.273 OA
ATOM      9  N   UNK A   2       9.071   0.117  24.345  0.00  0.00    -0.249 N 
ATOM     10  C   UNK A   2       8.696   1.352  23.885  0.00  0.00    +0.126 C 
ATOM     11  C   UNK A   2       8.576   1.566  22.539  0.00  0.00    -0.010 C 
ATOM     12  C   UNK A   2       8.889   0.510  21.484  0.00  0.00    +0.108 C 
ATOM     13  S   UNK A   2       8.925  -1.197  22.030  0.00  0.00    -0.131 S 
BRANCH  10  14
ATOM     14  C   UNK A   2       8.424   2.465  24.882  0.00  0.00    +0.352 C 
ATOM     15  O   UNK A   2       9.092   3.488  24.945  0.00  0.00    -0.244 OA
BRANCH  14  16
ATOM     16  O   UNK A   2       7.420   2.283  25.760  0.00  0.00    -0.476 OA
ATOM     17  H   UNK A   2       7.573   1.711  26.541  0.00  0.00    +0.295 HD
ENDBRANCH  14  16
ENDBRANCH  10  14
BRANCH  11  18
ATOM     18  C   UNK A   2       8.054   2.815  21.947  0.00  0.00    -0.001 C 
ATOM     19  C   UNK A   2       6.789   3.266  21.968  0.00  0.00    +0.009 C 
ENDBRANCH  11  18
ENDBRANCH   1   6
BRANCH   3  20
ATOM     20  C   UNK A   0       7.062  -4.910  25.178  0.00  0.00    +0.190 C 
ATOM     21  N   UNK A   0       6.932  -5.549  24.045  0.00  0.00    -0.077 NA
BRANCH  20  22
ATOM     22  C   UNK A   0       6.074  -5.264  26.192  0.00  0.00    +0.107 A 
ATOM     23  N   UNK A   0       6.242  -6.409  26.977  0.00  0.00    -0.223 NA
ATOM     24  C   UNK A   0       5.254  -6.528  27.827  0.00  0.00    +0.156 A 
ATOM     25  N   UNK A   0       5.171  -7.520  28.724  0.00  0.00    -0.338 N 
ATOM     26  H   UNK A   0       6.030  -8.021  28.920  0.00  0.00    +0.144 HD
ATOM     27  H   UNK A   0       4.570  -7.390  29.529  0.00  0.00    +0.144 HD
ATOM     28  S   UNK A   0       4.053  -5.306  27.736  0.00  0.00    -0.060 S 
ATOM     29  C   UNK A   0       4.925  -4.549  26.474  0.00  0.00    +0.078 A 
ENDBRANCH  20  22
BRANCH  21  30
ATOM     30  O   UNK A   0       7.905  -5.295  23.078  0.00  0.00    -0.382 OA
BRANCH  30  31
ATOM     31  C   UNK A   0       7.368  -5.621  21.793  0.00  0.00    +0.382 C 
BRANCH  31  32
ATOM     32  C   UNK A   0       5.936  -5.157  21.527  0.00  0.00    +0.345 C 
ATOM     33  O   UNK A   0       5.655  -4.047  21.097  0.00  0.00    -0.247 OA
BRANCH  32  34
ATOM     34  O   UNK A   0       4.988  -6.057  21.875  0.00  0.00    -0.478 OA
ATOM     35  H   UNK A   0       4.122  -5.826  21.455  0.00  0.00    +0.295 HD
ENDBRANCH  32  34
ENDBRANCH  31  32
ENDBRANCH  30  31
ENDBRANCH  21  30
ENDBRANCH   3  20
TORSDOF 10
ENDMDL
MODEL 5
REMARK VINA RESULT:      -6.5      3.621      8.458
REMARK  Name = 
REMARK  10 active torsions:
REMARK  status: ('A' for Active; 'I' for Inactive)
REMARK    1  A    between atoms: CB_5  and  CG1_6
REMARK    2  A    between atoms: CA_8  and  C_30
REMARK    3  A    between atoms: CA_12  and  N_14
REMARK    4  A    between atoms: C_15  and  C_17
REMARK    5  A    between atoms: C_17  and  C_24
REMARK    6  A    between atoms: N_18  and  O_19
REMARK    7  A    between atoms: O_19  and  C_20
REMARK    8  A    between atoms: C_20  and  C_21
REMARK    9  A    between atoms: C_21  and  O_22
REMARK   10  A    between atoms: C_30  and  O_31
REMARK                            x       y       z     vdW  Elec       q    Type
REMARK                         _______ _______ _______ _____ _____    ______ ____
ROOT
ATOM      1  N   UNK A   1       7.081  -3.426  26.086  0.00  0.00    -0.296 N 
ATOM      2  H   UNK A   1       6.412  -2.722  25.781  0.00  0.00    +0.150 HD
ATOM      3  C   UNK A   0       6.583  -4.692  26.297  0.00  0.00    +0.268 C 
ATOM      4  O   UNK A   0       7.298  -5.665  26.494  0.00  0.00    -0.268 OA
ENDROOT
BRANCH   1   6
ATOM      5  C   UNK A   1       9.142  -2.937  24.502  0.00  0.00    +0.169 C 
ATOM      6  C   UNK A   1       8.560  -3.199  25.937  0.00  0.00    +0.191 C 
ATOM      7  C   UNK A   1       8.995  -1.722  26.189  0.00  0.00    +0.244 C 
ATOM      8  O   UNK A   1       8.949  -0.928  27.104  0.00  0.00    -0.273 OA
ATOM      9  N   UNK A   2       9.226  -1.537  24.877  0.00  0.00    -0.249 N 
ATOM     10  C   UNK A   2       9.493  -0.504  24.017  0.00  0.00    +0.126 C 
ATOM     11  C   UNK A   2       9.259  -0.661  22.678  0.00  0.00    -0.010 C 
ATOM     12  C   UNK A   2       8.759  -1.958  22.052  0.00  0.00    +0.108 C 
ATOM     13  S   UNK A   2       7.978  -3.139  23.152  0.00  0.00    -0.131 S 
BRANCH  10  14
ATOM     14  C   UNK A   2      10.046   0.798  24.569  0.00  0.00    +0.352 C 
ATOM     15  O   UNK A   2      11.227   1.110  24.497  0.00  0.00    -0.244 OA
BRANCH  14  16
ATOM     16  O   UNK A   2       9.189   1.621  25.201  0.00  0.00    -0.476 OA
ATOM     17  H   UNK A   2       9.138   2.558  24.917  0.00  0.00    +0.295 HD
ENDBRANCH  14  16
ENDBRANCH  10  14
BRANCH  11  18
ATOM     18  C   UNK A   2       9.387   0.428  21.687  0.00  0.00    -0.001 C 
ATOM     19  C   UNK A   2       8.487   1.382  21.397  0.00  0.00    +0.009 C 
ENDBRANCH  11  18
ENDBRANCH   1   6
BRANCH   3  20
ATOM     20  C   UNK A   0       5.059  -4.848  26.354  0.00  0.00    +0.190 C 
ATOM     21  N   UNK A   0       4.222  -4.515  25.405  0.00  0.00    -0.077 NA
BRANCH  20  22
ATOM     22  C   UNK A   0       4.434  -5.408  27.547  0.00  0.00    +0.107 A 
ATOM     23  N   UNK A   0       3.601  -6.527  27.452  0.00  0.00    -0.223 NA
ATOM     24  C   UNK A   0       3.162  -6.870  28.636  0.00  0.00    +0.156 A 
ATOM     25  N   UNK A   0       2.365  -7.927  28.848  0.00  0.00    -0.338 N 
ATOM     26  H   UNK A   0       2.336  -8.622  28.110  0.00  0.00    +0.144 HD
ATOM     27  H   UNK A   0       2.314  -8.309  29.784  0.00  0.00    +0.144 HD
ATOM     28  S   UNK A   0       3.686  -5.877  29.933  0.00  0.00    -0.060 S 
ATOM     29  C   UNK A   0       4.583  -4.923  28.832  0.00  0.00    +0.078 A 
ENDBRANCH  20  22
BRANCH  21  30
ATOM     30  O   UNK A   0       4.788  -4.049  24.219  0.00  0.00    -0.382 OA
BRANCH  30  31
ATOM     31  C   UNK A   0       4.424  -4.938  23.158  0.00  0.00    +0.382 C 
BRANCH  31  32
ATOM     32  C   UNK A   0       5.232  -6.232  23.063  0.00  0.00    +0.345 C 
ATOM     33  O   UNK A   0       6.224  -6.360  22.360  0.00  0.00    -0.247 OA
BRANCH  32  34
ATOM     34  O   UNK A   0       4.716  -7.261  23.775  0.00  0.00    -0.478 OA
ATOM     35  H   UNK A   0       5.207  -8.098  23.578  0.00  0.00    +0.295 HD
ENDBRANCH  32  34
ENDBRANCH  31  32
ENDBRANCH  30  31
ENDBRANCH  21  30
ENDBRANCH   3  20
TORSDOF 10
ENDMDL
MODEL 6
REMARK VINA RESULT:      -6.4      2.553      3.754
REMARK  Name = 
REMARK  10 active torsions:
REMARK  status: ('A' for Active; 'I' for Inactive)
REMARK    1  A    between atoms: CB_5  and  CG1_6
REMARK    2  A    between atoms: CA_8  and  C_30
REMARK    3  A    between atoms: CA_12  and  N_14
REMARK    4  A    between atoms: C_15  and  C_17
REMARK    5  A    between atoms: C_17  and  C_24
REMARK    6  A    between atoms: N_18  and  O_19
REMARK    7  A    between atoms: O_19  and  C_20
REMARK    8  A    between atoms: C_20  and  C_21
REMARK    9  A    between atoms: C_21  and  O_22
REMARK   10  A    between atoms: C_30  and  O_31
REMARK                            x       y       z     vdW  Elec       q    Type
REMARK                         _______ _______ _______ _____ _____    ______ ____
ROOT
ATOM      1  N   UNK A   1       8.070  -1.322  24.165  0.00  0.00    -0.296 N 
ATOM      2  H   UNK A   1       7.100  -1.131  24.406  0.00  0.00    +0.150 HD
ATOM      3  C   UNK A   0       9.010  -0.454  24.675  0.00  0.00    +0.268 C 
ATOM      4  O   UNK A   0      10.214  -0.662  24.610  0.00  0.00    -0.268 OA
ENDROOT
BRANCH   1   6
ATOM      5  C   UNK A   1       8.293  -3.932  24.530  0.00  0.00    +0.169 C 
ATOM      6  C   UNK A   1       8.480  -2.664  23.623  0.00  0.00    +0.191 C 
ATOM      7  C   UNK A   1       7.383  -3.346  22.748  0.00  0.00    +0.244 C 
ATOM      8  O   UNK A   1       6.784  -3.098  21.724  0.00  0.00    -0.273 OA
ATOM      9  N   UNK A   2       7.132  -4.246  23.716  0.00  0.00    -0.249 N 
ATOM     10  C   UNK A   2       6.203  -5.210  24.005  0.00  0.00    +0.126 C 
ATOM     11  C   UNK A   2       6.054  -5.641  25.295  0.00  0.00    -0.010 C 
ATOM     12  C   UNK A   2       6.909  -5.148  26.457  0.00  0.00    +0.108 C 
ATOM     13  S   UNK A   2       7.784  -3.601  26.219  0.00  0.00    -0.131 S 
BRANCH  10  14
ATOM     14  C   UNK A   2       5.355  -5.786  22.884  0.00  0.00    +0.352 C 
ATOM     15  O   UNK A   2       4.240  -5.368  22.603  0.00  0.00    -0.244 OA
BRANCH  14  16
ATOM     16  O   UNK A   2       5.854  -6.833  22.201  0.00  0.00    -0.476 OA
ATOM     17  H   UNK A   2       5.800  -6.827  21.222  0.00  0.00    +0.295 HD
ENDBRANCH  14  16
ENDBRANCH  10  14
BRANCH  11  18
ATOM     18  C   UNK A   2       4.997  -6.576  25.734  0.00  0.00    -0.001 C 
ATOM     19  C   UNK A   2       4.580  -6.812  26.989  0.00  0.00    +0.009 C 
ENDBRANCH  11  18
ENDBRANCH   1   6
BRANCH   3  20
ATOM     20  C   UNK A   0       8.499   0.857  25.284  0.00  0.00    +0.190 C 
ATOM     21  N   UNK A   0       7.725   0.960  26.333  0.00  0.00    -0.077 NA
BRANCH  20  22
ATOM     22  C   UNK A   0       8.875   2.129  24.679  0.00  0.00    +0.107 A 
ATOM     23  N   UNK A   0      10.132   2.289  24.087  0.00  0.00    -0.223 NA
ATOM     24  C   UNK A   0      10.255   3.496  23.595  0.00  0.00    +0.156 A 
ATOM     25  N   UNK A   0      11.348   3.918  22.945  0.00  0.00    -0.338 N 
ATOM     26  H   UNK A   0      11.969   3.196  22.596  0.00  0.00    +0.144 HD
ATOM     27  H   UNK A   0      11.265   4.727  22.342  0.00  0.00    +0.144 HD
ATOM     28  S   UNK A   0       8.901   4.525  23.823  0.00  0.00    -0.060 S 
ATOM     29  C   UNK A   0       8.079   3.258  24.626  0.00  0.00    +0.078 A 
ENDBRANCH  20  22
BRANCH  21  30
ATOM     30  O   UNK A   0       7.408  -0.230  26.986  0.00  0.00    -0.382 OA
BRANCH  30  31
ATOM     31  C   UNK A   0       5.984  -0.327  27.094  0.00  0.00    +0.382 C 
BRANCH  31  32
ATOM     32  C   UNK A   0       5.212  -0.342  25.775  0.00  0.00    +0.345 C 
ATOM     33  O   UNK A   0       5.089  -1.337  25.075  0.00  0.00    -0.247 OA
BRANCH  32  34
ATOM     34  O   UNK A   0       4.725   0.865  25.404  0.00  0.00    -0.478 OA
ATOM     35  H   UNK A   0       4.900   1.028  24.444  0.00  0.00    +0.295 HD
ENDBRANCH  32  34
ENDBRANCH  31  32
ENDBRANCH  30  31
ENDBRANCH  21  30
ENDBRANCH   3  20
TORSDOF 10
ENDMDL
MODEL 7
REMARK VINA RESULT:      -6.4      3.850      9.394
REMARK  Name = 
REMARK  10 active torsions:
REMARK  status: ('A' for Active; 'I' for Inactive)
REMARK    1  A    between atoms: CB_5  and  CG1_6
REMARK    2  A    between atoms: CA_8  and  C_30
REMARK    3  A    between atoms: CA_12  and  N_14
REMARK    4  A    between atoms: C_15  and  C_17
REMARK    5  A    between atoms: C_17  and  C_24
REMARK    6  A    between atoms: N_18  and  O_19
REMARK    7  A    between atoms: O_19  and  C_20
REMARK    8  A    between atoms: C_20  and  C_21
REMARK    9  A    between atoms: C_21  and  O_22
REMARK   10  A    between atoms: C_30  and  O_31
REMARK                            x       y       z     vdW  Elec       q    Type
REMARK                         _______ _______ _______ _____ _____    ______ ____
ROOT
ATOM      1  N   UNK A   1       5.320  -4.257  24.442  0.00  0.00    -0.296 N 
ATOM      2  H   UNK A   1       5.152  -3.924  25.389  0.00  0.00    +0.150 HD
ATOM      3  C   UNK A   0       4.941  -5.553  24.174  0.00  0.00    +0.268 C 
ATOM      4  O   UNK A   0       4.923  -6.022  23.044  0.00  0.00    -0.268 OA
ENDROOT
BRANCH   1   6
ATOM      5  C   UNK A   1       6.001  -1.817  23.682  0.00  0.00    +0.169 C 
ATOM      6  C   UNK A   1       5.595  -3.291  23.323  0.00  0.00    +0.191 C 
ATOM      7  C   UNK A   1       7.053  -3.370  22.772  0.00  0.00    +0.244 C 
ATOM      8  O   UNK A   1       7.758  -4.204  22.247  0.00  0.00    -0.273 OA
ATOM      9  N   UNK A   2       7.362  -2.194  23.346  0.00  0.00    -0.249 N 
ATOM     10  C   UNK A   2       8.476  -1.436  23.597  0.00  0.00    +0.126 C 
ATOM     11  C   UNK A   2       8.438  -0.480  24.574  0.00  0.00    -0.010 C 
ATOM     12  C   UNK A   2       7.192  -0.153  25.391  0.00  0.00    +0.108 C 
ATOM     13  S   UNK A   2       5.896  -1.393  25.422  0.00  0.00    -0.131 S 
BRANCH  10  14
ATOM     14  C   UNK A   2       9.735  -1.672  22.780  0.00  0.00    +0.352 C 
ATOM     15  O   UNK A   2      10.045  -0.991  21.813  0.00  0.00    -0.244 OA
BRANCH  14  16
ATOM     16  O   UNK A   2      10.517  -2.710  23.128  0.00  0.00    -0.476 OA
ATOM     17  H   UNK A   2      10.466  -3.537  22.604  0.00  0.00    +0.295 HD
ENDBRANCH  14  16
ENDBRANCH  10  14
BRANCH  11  18
ATOM     18  C   UNK A   2       9.616   0.298  25.013  0.00  0.00    -0.001 C 
ATOM     19  C   UNK A   2      10.082   1.444  24.491  0.00  0.00    +0.009 C 
ENDBRANCH  11  18
ENDBRANCH   1   6
BRANCH   3  20
ATOM     20  C   UNK A   0       4.598  -6.448  25.371  0.00  0.00    +0.190 C 
ATOM     21  N   UNK A   0       5.391  -6.713  26.376  0.00  0.00    -0.077 NA
BRANCH  20  22
ATOM     22  C   UNK A   0       3.288  -7.084  25.446  0.00  0.00    +0.107 A 
ATOM     23  N   UNK A   0       3.074  -8.337  24.863  0.00  0.00    -0.223 NA
ATOM     24  C   UNK A   0       1.840  -8.727  25.060  0.00  0.00    +0.156 A 
ATOM     25  N   UNK A   0       1.363  -9.905  24.634  0.00  0.00    -0.338 N 
ATOM     26  H   UNK A   0       2.054 -10.610  24.399  0.00  0.00    +0.144 HD
ATOM     27  H   UNK A   0       0.525 -10.269  25.069  0.00  0.00    +0.144 HD
ATOM     28  S   UNK A   0       0.850  -7.626  25.926  0.00  0.00    -0.060 S 
ATOM     29  C   UNK A   0       2.173  -6.552  26.064  0.00  0.00    +0.078 A 
ENDBRANCH  20  22
BRANCH  21  30
ATOM     30  O   UNK A   0       6.624  -6.060  26.379  0.00  0.00    -0.382 OA
BRANCH  30  31
ATOM     31  C   UNK A   0       6.805  -5.433  27.653  0.00  0.00    +0.382 C 
BRANCH  31  32
ATOM     32  C   UNK A   0       6.114  -6.108  28.837  0.00  0.00    +0.345 C 
ATOM     33  O   UNK A   0       5.402  -5.513  29.633  0.00  0.00    -0.247 OA
BRANCH  32  34
ATOM     34  O   UNK A   0       6.411  -7.421  28.977  0.00  0.00    -0.478 OA
ATOM     35  H   UNK A   0       7.368  -7.537  29.201  0.00  0.00    +0.295 HD
ENDBRANCH  32  34
ENDBRANCH  31  32
ENDBRANCH  30  31
ENDBRANCH  21  30
ENDBRANCH   3  20
TORSDOF 10
ENDMDL
MODEL 8
REMARK VINA RESULT:      -6.4      2.301      2.829
REMARK  Name = 
REMARK  10 active torsions:
REMARK  status: ('A' for Active; 'I' for Inactive)
REMARK    1  A    between atoms: CB_5  and  CG1_6
REMARK    2  A    between atoms: CA_8  and  C_30
REMARK    3  A    between atoms: CA_12  and  N_14
REMARK    4  A    between atoms: C_15  and  C_17
REMARK    5  A    between atoms: C_17  and  C_24
REMARK    6  A    between atoms: N_18  and  O_19
REMARK    7  A    between atoms: O_19  and  C_20
REMARK    8  A    between atoms: C_20  and  C_21
REMARK    9  A    between atoms: C_21  and  O_22
REMARK   10  A    between atoms: C_30  and  O_31
REMARK                            x       y       z     vdW  Elec       q    Type
REMARK                         _______ _______ _______ _____ _____    ______ ____
ROOT
ATOM      1  N   UNK A   1       7.725   0.383  24.385  0.00  0.00    -0.296 N 
ATOM      2  H   UNK A   1       8.646   0.209  23.988  0.00  0.00    +0.150 HD
ATOM      3  C   UNK A   0       6.992   1.395  23.806  0.00  0.00    +0.268 C 
ATOM      4  O   UNK A   0       5.813   1.595  24.064  0.00  0.00    -0.268 OA
ENDROOT
BRANCH   1   6
ATOM      5  C   UNK A   1       6.359  -1.871  24.600  0.00  0.00    +0.169 C 
ATOM      6  C   UNK A   1       7.061  -0.636  25.269  0.00  0.00    +0.191 C 
ATOM      7  C   UNK A   1       8.041  -1.717  25.822  0.00  0.00    +0.244 C 
ATOM      8  O   UNK A   1       9.035  -1.741  26.514  0.00  0.00    -0.273 OA
ATOM      9  N   UNK A   2       7.515  -2.650  25.008  0.00  0.00    -0.249 N 
ATOM     10  C   UNK A   2       7.791  -3.927  24.598  0.00  0.00    +0.126 C 
ATOM     11  C   UNK A   2       7.243  -4.399  23.437  0.00  0.00    -0.010 C 
ATOM     12  C   UNK A   2       6.277  -3.598  22.570  0.00  0.00    +0.108 C 
ATOM     13  S   UNK A   2       6.258  -1.821  22.809  0.00  0.00    -0.131 S 
BRANCH  10  14
ATOM     14  C   UNK A   2       8.702  -4.799  25.445  0.00  0.00    +0.352 C 
ATOM     15  O   UNK A   2       8.355  -5.302  26.504  0.00  0.00    -0.244 OA
BRANCH  14  16
ATOM     16  O   UNK A   2       9.963  -4.985  25.013  0.00  0.00    -0.476 OA
ATOM     17  H   UNK A   2      10.112  -5.212  24.071  0.00  0.00    +0.295 HD
ENDBRANCH  14  16
ENDBRANCH  10  14
BRANCH  11  18
ATOM     18  C   UNK A   2       7.578  -5.709  22.839  0.00  0.00    -0.001 C 
ATOM     19  C   UNK A   2       6.928  -6.351  21.855  0.00  0.00    +0.009 C 
ENDBRANCH  11  18
ENDBRANCH   1   6
BRANCH   3  20
ATOM     20  C   UNK A   0       7.730   2.341  22.852  0.00  0.00    +0.190 C 
ATOM     21  N   UNK A   0       8.510   1.976  21.868  0.00  0.00    -0.077 NA
BRANCH  20  22
ATOM     22  C   UNK A   0       7.587   3.784  23.012  0.00  0.00    +0.107 A 
ATOM     23  N   UNK A   0       7.292   4.594  21.911  0.00  0.00    -0.223 NA
ATOM     24  C   UNK A   0       7.194   5.846  22.279  0.00  0.00    +0.156 A 
ATOM     25  N   UNK A   0       6.890   6.840  21.433  0.00  0.00    -0.338 N 
ATOM     26  H   UNK A   0       6.463   6.567  20.555  0.00  0.00    +0.144 HD
ATOM     27  H   UNK A   0       6.537   7.707  21.819  0.00  0.00    +0.144 HD
ATOM     28  S   UNK A   0       7.468   6.147  23.945  0.00  0.00    -0.060 S 
ATOM     29  C   UNK A   0       7.722   4.475  24.201  0.00  0.00    +0.078 A 
ENDBRANCH  20  22
BRANCH  21  30
ATOM     30  O   UNK A   0       8.609   0.605  21.635  0.00  0.00    -0.382 OA
BRANCH  30  31
ATOM     31  C   UNK A   0       9.981   0.217  21.765  0.00  0.00    +0.382 C 
BRANCH  31  32
ATOM     32  C   UNK A   0      10.273  -0.876  22.791  0.00  0.00    +0.345 C 
ATOM     33  O   UNK A   0      10.239  -2.072  22.533  0.00  0.00    -0.247 OA
BRANCH  32  34
ATOM     34  O   UNK A   0      10.509  -0.415  24.041  0.00  0.00    -0.478 OA
ATOM     35  H   UNK A   0       9.663  -0.136  24.472  0.00  0.00    +0.295 HD
ENDBRANCH  32  34
ENDBRANCH  31  32
ENDBRANCH  30  31
ENDBRANCH  21  30
ENDBRANCH   3  20
TORSDOF 10
ENDMDL
MODEL 9
REMARK VINA RESULT:      -6.3      2.130      3.064
REMARK  Name = 
REMARK  10 active torsions:
REMARK  status: ('A' for Active; 'I' for Inactive)
REMARK    1  A    between atoms: CB_5  and  CG1_6
REMARK    2  A    between atoms: CA_8  and  C_30
REMARK    3  A    between atoms: CA_12  and  N_14
REMARK    4  A    between atoms: C_15  and  C_17
REMARK    5  A    between atoms: C_17  and  C_24
REMARK    6  A    between atoms: N_18  and  O_19
REMARK    7  A    between atoms: O_19  and  C_20
REMARK    8  A    between atoms: C_20  and  C_21
REMARK    9  A    between atoms: C_21  and  O_22
REMARK   10  A    between atoms: C_30  and  O_31
REMARK                            x       y       z     vdW  Elec       q    Type
REMARK                         _______ _______ _______ _____ _____    ______ ____
ROOT
ATOM      1  N   UNK A   1       9.320   0.127  24.099  0.00  0.00    -0.296 N 
ATOM      2  H   UNK A   1       8.966   0.362  25.024  0.00  0.00    +0.150 HD
ATOM      3  C   UNK A   0       9.619   1.186  23.271  0.00  0.00    +0.268 C 
ATOM      4  O   UNK A   0      10.210   1.056  22.209  0.00  0.00    -0.268 OA
ENDROOT
BRANCH   1   6
ATOM      5  C   UNK A   1       9.379  -2.447  24.704  0.00  0.00    +0.169 C 
ATOM      6  C   UNK A   1       9.847  -1.249  23.803  0.00  0.00    +0.191 C 
ATOM      7  C   UNK A   1       9.044  -2.001  22.695  0.00  0.00    +0.244 C 
ATOM      8  O   UNK A   1       8.777  -1.834  21.526  0.00  0.00    -0.273 OA
ATOM      9  N   UNK A   2       8.504  -2.826  23.610  0.00  0.00    -0.249 N 
ATOM     10  C   UNK A   2       7.513  -3.770  23.682  0.00  0.00    +0.126 C 
ATOM     11  C   UNK A   2       6.983  -4.104  24.899  0.00  0.00    -0.010 C 
ATOM     12  C   UNK A   2       7.468  -3.520  26.222  0.00  0.00    +0.108 C 
ATOM     13  S   UNK A   2       8.402  -1.992  26.139  0.00  0.00    -0.131 S 
BRANCH  10  14
ATOM     14  C   UNK A   2       7.023  -4.433  22.407  0.00  0.00    +0.352 C 
ATOM     15  O   UNK A   2       7.374  -5.549  22.052  0.00  0.00    -0.244 OA
BRANCH  14  16
ATOM     16  O   UNK A   2       6.192  -3.726  21.618  0.00  0.00    -0.476 OA
ATOM     17  H   UNK A   2       5.290  -3.523  21.944  0.00  0.00    +0.295 HD
ENDBRANCH  14  16
ENDBRANCH  10  14
BRANCH  11  18
ATOM     18  C   UNK A   2       5.827  -5.008  25.075  0.00  0.00    -0.001 C 
ATOM     19  C   UNK A   2       5.684  -5.988  25.982  0.00  0.00    +0.009 C 
ENDBRANCH  11  18
ENDBRANCH   1   6
BRANCH   3  20
ATOM     20  C   UNK A   0       9.112   2.572  23.692  0.00  0.00    +0.190 C 
ATOM     21  N   UNK A   0       7.889   2.859  24.054  0.00  0.00    -0.077 NA
BRANCH  20  22
ATOM     22  C   UNK A   0      10.031   3.704  23.705  0.00  0.00    +0.107 A 
ATOM     23  N   UNK A   0      11.383   3.524  23.394  0.00  0.00    -0.223 NA
ATOM     24  C   UNK A   0      12.020   4.666  23.451  0.00  0.00    +0.156 A 
ATOM     25  N   UNK A   0      13.324   4.795  23.172  0.00  0.00    -0.338 N 
ATOM     26  H   UNK A   0      13.747   4.040  22.643  0.00  0.00    +0.144 HD
ATOM     27  H   UNK A   0      13.676   5.716  22.941  0.00  0.00    +0.144 HD
ATOM     28  S   UNK A   0      11.066   6.019  23.900  0.00  0.00    -0.060 S 
ATOM     29  C   UNK A   0       9.692   5.008  24.012  0.00  0.00    +0.078 A 
ENDBRANCH  20  22
BRANCH  21  30
ATOM     30  O   UNK A   0       7.000   1.787  24.129  0.00  0.00    -0.382 OA
BRANCH  30  31
ATOM     31  C   UNK A   0       5.976   1.972  23.146  0.00  0.00    +0.382 C 
BRANCH  31  32
ATOM     32  C   UNK A   0       5.654   3.420  22.779  0.00  0.00    +0.345 C 
ATOM     33  O   UNK A   0       4.757   4.066  23.302  0.00  0.00    -0.247 OA
BRANCH  32  34
ATOM     34  O   UNK A   0       6.406   3.917  21.769  0.00  0.00    -0.478 OA
ATOM     35  H   UNK A   0       6.003   3.689  20.895  0.00  0.00    +0.295 HD
ENDBRANCH  32  34
ENDBRANCH  31  32
ENDBRANCH  30  31
ENDBRANCH  21  30
ENDBRANCH   3  20
TORSDOF 10
ENDMDL
