MODEL 1
REMARK VINA RESULT:      -5.4      0.000      0.000
REMARK  Name = 
REMARK  13 active torsions:
REMARK  status: ('A' for Active; 'I' for Inactive)
REMARK    1  A    between atoms: N_1  and  C_2
REMARK    2  A    between atoms: C_2  and  C_4
REMARK    3  A    between atoms: C_2  and  C_20
REMARK    4  A    between atoms: C_4  and  C_5
REMARK    5  A    between atoms: C_5  and  C_6
REMARK    6  A    between atoms: C_6  and  N_7
REMARK    7  A    between atoms: N_10  and  C_11
REMARK    8  A    between atoms: C_11  and  C_13
REMARK    9  A    between atoms: C_11  and  C_17
REMARK   10  A    between atoms: C_13  and  C_14
REMARK   11  A    between atoms: C_14  and  O_15
REMARK   12  A    between atoms: C_17  and  O_18
REMARK   13  A    between atoms: C_20  and  O_21
REMARK                            x       y       z     vdW  Elec       q    Type
REMARK                         _______ _______ _______ _____ _____    ______ ____
ROOT
ATOM      1  N   UNK     1       9.747  -1.324  22.523  0.00  0.00    -0.276 N 
ATOM      2  H   UNK     1      10.351  -0.841  23.179  0.00  0.00    +0.258 HD
ATOM      3  C   UNK     1       8.971  -2.289  23.077  0.00  0.00    +0.379 C 
ATOM      4  N   UNK     1       9.334  -2.489  24.367  0.00  0.00    -0.262 N 
ATOM      5  H   UNK     1      10.341  -2.664  24.456  0.00  0.00    +0.259 HD
ATOM      6  N   UNK     1       7.963  -2.865  22.537  0.00  0.00    -0.130 NA
ATOM      7  H   UNK     1       7.858  -2.548  21.569  0.00  0.00    +0.306 HD
ENDROOT
BRANCH   1   8
ATOM      8  C   UNK     1       9.457  -0.551  21.325  0.00  0.00    +0.196 C 
BRANCH   8   9
ATOM      9  C   UNK     1       8.967   0.865  21.632  0.00  0.00    +0.039 C 
BRANCH   9  10
ATOM     10  C   UNK     1      10.097   1.879  21.863  0.00  0.00    +0.033 C 
BRANCH  10  11
ATOM     11  C   UNK     1       9.966   2.674  23.171  0.00  0.00    +0.161 C 
BRANCH  11  12
ATOM     12  N   UNK     1      11.051   3.682  23.355  0.00  0.00    -0.318 NA
ATOM     13  H   UNK     1      10.654   4.588  23.622  0.00  0.00    +0.119 HD
ATOM     14  H   UNK     1      11.594   3.420  24.185  0.00  0.00    +0.119 HD
ENDBRANCH  11  12
BRANCH  11  15
ATOM     15  C   UNK     1       9.937   1.739  24.393  0.00  0.00    +0.322 C 
ATOM     16  O   UNK     1      10.741   0.847  24.614  0.00  0.00    -0.249 OA
BRANCH  15  17
ATOM     17  O   UNK     1       8.903   2.039  25.220  0.00  0.00    -0.480 OA
ATOM     18  H   UNK     1       9.285   2.036  26.135  0.00  0.00    +0.295 HD
ENDBRANCH  15  17
ENDBRANCH  11  15
ENDBRANCH  10  11
ENDBRANCH   9  10
ENDBRANCH   8   9
ENDBRANCH   1   8
BRANCH   4  19
ATOM     19  C   UNK     1       8.585  -3.327  25.329  0.00  0.00    +0.263 C 
BRANCH  19  20
ATOM     20  C   UNK     1       9.366  -4.587  25.734  0.00  0.00    +0.343 C 
ATOM     21  O   UNK     1      10.136  -5.203  25.011  0.00  0.00    -0.247 OA
BRANCH  20  22
ATOM     22  O   UNK     1       9.219  -4.871  27.061  0.00  0.00    -0.478 OA
ATOM     23  H   UNK     1       8.552  -4.241  27.411  0.00  0.00    +0.295 HD
ENDBRANCH  20  22
ENDBRANCH  19  20
BRANCH  19  24
ATOM     24  C   UNK     1       8.052  -2.585  26.552  0.00  0.00    +0.172 C 
BRANCH  24  25
ATOM     25  C   UNK     1       8.139  -1.104  26.366  0.00  0.00    +0.309 C 
ATOM     26  O   UNK     1       7.321  -0.427  25.746  0.00  0.00    -0.251 OA
BRANCH  25  27
ATOM     27  O   UNK     1       9.237  -0.545  26.937  0.00  0.00    -0.481 OA
ATOM     28  H   UNK     1       9.875  -0.183  26.291  0.00  0.00    +0.295 HD
ENDBRANCH  25  27
ENDBRANCH  24  25
ENDBRANCH  19  24
ENDBRANCH   4  19
TORSDOF 13
ENDMDL
MODEL 2
REMARK VINA RESULT:      -5.2      1.976      5.768
REMARK  Name = 
REMARK  13 active torsions:
REMARK  status: ('A' for Active; 'I' for Inactive)
REMARK    1  A    between atoms: N_1  and  C_2
REMARK    2  A    between atoms: C_2  and  C_4
REMARK    3  A    between atoms: C_2  and  C_20
REMARK    4  A    between atoms: C_4  and  C_5
REMARK    5  A    between atoms: C_5  and  C_6
REMARK    6  A    between atoms: C_6  and  N_7
REMARK    7  A    between atoms: N_10  and  C_11
REMARK    8  A    between atoms: C_11  and  C_13
REMARK    9  A    between atoms: C_11  and  C_17
REMARK   10  A    between atoms: C_13  and  C_14
REMARK   11  A    between atoms: C_14  and  O_15
REMARK   12  A    between atoms: C_17  and  O_18
REMARK   13  A    between atoms: C_20  and  O_21
REMARK                            x       y       z     vdW  Elec       q    Type
REMARK                         _______ _______ _______ _____ _____    ______ ____
ROOT
ATOM      1  N   UNK     1       7.389  -2.394  22.484  0.00  0.00    -0.276 N 
ATOM      2  H   UNK     1       6.735  -2.064  23.185  0.00  0.00    +0.258 HD
ATOM      3  C   UNK     1       8.505  -1.635  22.350  0.00  0.00    +0.379 C 
ATOM      4  N   UNK     1       8.381  -0.500  23.082  0.00  0.00    -0.262 N 
ATOM      5  H   UNK     1       7.511  -0.002  22.866  0.00  0.00    +0.259 HD
ATOM      6  N   UNK     1       9.581  -1.954  21.734  0.00  0.00    -0.130 NA
ATOM      7  H   UNK     1       9.460  -2.859  21.271  0.00  0.00    +0.306 HD
ENDROOT
BRANCH   1   8
ATOM      8  C   UNK     1       7.260  -3.814  22.195  0.00  0.00    +0.196 C 
BRANCH   8   9
ATOM      9  C   UNK     1       6.592  -4.596  23.327  0.00  0.00    +0.039 C 
BRANCH   9  10
ATOM     10  C   UNK     1       7.147  -4.270  24.721  0.00  0.00    +0.033 C 
BRANCH  10  11
ATOM     11  C   UNK     1       8.223  -5.250  25.211  0.00  0.00    +0.161 C 
BRANCH  11  12
ATOM     12  N   UNK     1       8.082  -5.602  26.654  0.00  0.00    -0.318 NA
ATOM     13  H   UNK     1       8.939  -5.368  27.164  0.00  0.00    +0.119 HD
ATOM     14  H   UNK     1       7.391  -4.970  27.073  0.00  0.00    +0.119 HD
ENDBRANCH  11  12
BRANCH  11  15
ATOM     15  C   UNK     1       9.638  -4.694  24.967  0.00  0.00    +0.322 C 
ATOM     16  O   UNK     1       9.892  -3.649  24.389  0.00  0.00    -0.249 OA
BRANCH  15  17
ATOM     17  O   UNK     1      10.587  -5.509  25.495  0.00  0.00    -0.480 OA
ATOM     18  H   UNK     1      10.812  -5.118  26.378  0.00  0.00    +0.295 HD
ENDBRANCH  15  17
ENDBRANCH  11  15
ENDBRANCH  10  11
ENDBRANCH   9  10
ENDBRANCH   8   9
ENDBRANCH   1   8
BRANCH   4  19
ATOM     19  C   UNK     1       9.475   0.466  23.324  0.00  0.00    +0.263 C 
BRANCH  19  20
ATOM     20  C   UNK     1       9.192   1.836  22.688  0.00  0.00    +0.343 C 
ATOM     21  O   UNK     1       8.692   2.792  23.264  0.00  0.00    -0.247 OA
BRANCH  20  22
ATOM     22  O   UNK     1       9.700   1.923  21.424  0.00  0.00    -0.478 OA
ATOM     23  H   UNK     1       8.992   1.620  20.814  0.00  0.00    +0.295 HD
ENDBRANCH  20  22
ENDBRANCH  19  20
BRANCH  19  24
ATOM     24  C   UNK     1       9.901   0.606  24.783  0.00  0.00    +0.172 C 
BRANCH  24  25
ATOM     25  C   UNK     1       8.872   0.034  25.703  0.00  0.00    +0.309 C 
ATOM     26  O   UNK     1       7.917   0.659  26.162  0.00  0.00    -0.251 OA
BRANCH  25  27
ATOM     27  O   UNK     1       9.086  -1.269  26.021  0.00  0.00    -0.481 OA
ATOM     28  H   UNK     1       8.906  -1.888  25.287  0.00  0.00    +0.295 HD
ENDBRANCH  25  27
ENDBRANCH  24  25
ENDBRANCH  19  24
ENDBRANCH   4  19
TORSDOF 13
ENDMDL
MODEL 3
REMARK VINA RESULT:      -5.0      2.951      6.526
REMARK  Name = 
REMARK  13 active torsions:
REMARK  status: ('A' for Active; 'I' for Inactive)
REMARK    1  A    between atoms: N_1  and  C_2
REMARK    2  A    between atoms: C_2  and  C_4
REMARK    3  A    between atoms: C_2  and  C_20
REMARK    4  A    between atoms: C_4  and  C_5
REMARK    5  A    between atoms: C_5  and  C_6
REMARK    6  A    between atoms: C_6  and  N_7
REMARK    7  A    between atoms: N_10  and  C_11
REMARK    8  A    between atoms: C_11  and  C_13
REMARK    9  A    between atoms: C_11  and  C_17
REMARK   10  A    between atoms: C_13  and  C_14
REMARK   11  A    between atoms: C_14  and  O_15
REMARK   12  A    between atoms: C_17  and  O_18
REMARK   13  A    between atoms: C_20  and  O_21
REMARK                            x       y       z     vdW  Elec       q    Type
REMARK                         _______ _______ _______ _____ _____    ______ ____
ROOT
ATOM      1  N   UNK     1       6.972  -4.152  23.411  0.00  0.00    -0.276 N 
ATOM      2  H   UNK     1       6.336  -3.416  23.124  0.00  0.00    +0.258 HD
ATOM      3  C   UNK     1       8.178  -3.715  23.850  0.00  0.00    +0.379 C 
ATOM      4  N   UNK     1       8.298  -2.384  23.623  0.00  0.00    -0.262 N 
ATOM      5  H   UNK     1       8.100  -2.146  22.645  0.00  0.00    +0.259 HD
ATOM      6  N   UNK     1       9.053  -4.396  24.491  0.00  0.00    -0.130 NA
ATOM      7  H   UNK     1       8.748  -5.369  24.568  0.00  0.00    +0.306 HD
ENDROOT
BRANCH   1   8
ATOM      8  C   UNK     1       6.298  -5.384  23.792  0.00  0.00    +0.196 C 
BRANCH   8   9
ATOM      9  C   UNK     1       5.409  -5.221  25.027  0.00  0.00    +0.039 C 
BRANCH   9  10
ATOM     10  C   UNK     1       5.737  -6.199  26.164  0.00  0.00    +0.033 C 
BRANCH  10  11
ATOM     11  C   UNK     1       6.447  -5.551  27.362  0.00  0.00    +0.161 C 
BRANCH  11  12
ATOM     12  N   UNK     1       7.931  -5.508  27.211  0.00  0.00    -0.318 NA
ATOM     13  H   UNK     1       8.282  -6.416  26.889  0.00  0.00    +0.119 HD
ATOM     14  H   UNK     1       8.155  -4.888  26.425  0.00  0.00    +0.119 HD
ENDBRANCH  11  12
BRANCH  11  15
ATOM     15  C   UNK     1       6.097  -6.273  28.676  0.00  0.00    +0.322 C 
ATOM     16  O   UNK     1       6.282  -5.821  29.795  0.00  0.00    -0.249 OA
BRANCH  15  17
ATOM     17  O   UNK     1       5.535  -7.485  28.439  0.00  0.00    -0.480 OA
ATOM     18  H   UNK     1       4.974  -7.678  29.234  0.00  0.00    +0.295 HD
ENDBRANCH  15  17
ENDBRANCH  11  15
ENDBRANCH  10  11
ENDBRANCH   9  10
ENDBRANCH   8   9
ENDBRANCH   1   8
BRANCH   4  19
ATOM     19  C   UNK     1       9.396  -1.539  24.141  0.00  0.00    +0.263 C 
BRANCH  19  20
ATOM     20  C   UNK     1      10.179  -0.848  23.013  0.00  0.00    +0.343 C 
ATOM     21  O   UNK     1      10.655   0.277  23.071  0.00  0.00    -0.247 OA
BRANCH  20  22
ATOM     22  O   UNK     1      10.419  -1.696  21.970  0.00  0.00    -0.478 OA
ATOM     23  H   UNK     1      11.190  -2.247  22.227  0.00  0.00    +0.295 HD
ENDBRANCH  20  22
ENDBRANCH  19  20
BRANCH  19  24
ATOM     24  C   UNK     1       8.990  -0.547  25.227  0.00  0.00    +0.172 C 
BRANCH  24  25
ATOM     25  C   UNK     1       8.798  -1.232  26.541  0.00  0.00    +0.309 C 
ATOM     26  O   UNK     1       8.279  -2.337  26.687  0.00  0.00    -0.251 OA
BRANCH  25  27
ATOM     27  O   UNK     1       9.239  -0.510  27.604  0.00  0.00    -0.481 OA
ATOM     28  H   UNK     1       8.742  -0.679  28.429  0.00  0.00    +0.295 HD
ENDBRANCH  25  27
ENDBRANCH  24  25
ENDBRANCH  19  24
ENDBRANCH   4  19
TORSDOF 13
ENDMDL
MODEL 4
REMARK VINA RESULT:      -5.0      2.372      5.965
REMARK  Name = 
REMARK  13 active torsions:
REMARK  status: ('A' for Active; 'I' for Inactive)
REMARK    1  A    between atoms: N_1  and  C_2
REMARK    2  A    between atoms: C_2  and  C_4
REMARK    3  A    between atoms: C_2  and  C_20
REMARK    4  A    between atoms: C_4  and  C_5
REMARK    5  A    between atoms: C_5  and  C_6
REMARK    6  A    between atoms: C_6  and  N_7
REMARK    7  A    between atoms: N_10  and  C_11
REMARK    8  A    between atoms: C_11  and  C_13
REMARK    9  A    between atoms: C_11  and  C_17
REMARK   10  A    between atoms: C_13  and  C_14
REMARK   11  A    between atoms: C_14  and  O_15
REMARK   12  A    between atoms: C_17  and  O_18
REMARK   13  A    between atoms: C_20  and  O_21
REMARK                            x       y       z     vdW  Elec       q    Type
REMARK                         _______ _______ _______ _____ _____    ______ ____
ROOT
ATOM      1  N   UNK     1       5.614  -2.451  22.979  0.00  0.00    -0.276 N 
ATOM      2  H   UNK     1       4.927  -1.777  23.300  0.00  0.00    +0.258 HD
ATOM      3  C   UNK     1       6.852  -1.937  22.769  0.00  0.00    +0.379 C 
ATOM      4  N   UNK     1       6.815  -0.587  22.873  0.00  0.00    -0.262 N 
ATOM      5  H   UNK     1       6.088  -0.179  22.275  0.00  0.00    +0.259 HD
ATOM      6  N   UNK     1       7.938  -2.596  22.609  0.00  0.00    -0.130 NA
ATOM      7  H   UNK     1       7.735  -3.599  22.583  0.00  0.00    +0.306 HD
ENDROOT
BRANCH   1   8
ATOM      8  C   UNK     1       5.287  -3.824  23.331  0.00  0.00    +0.196 C 
BRANCH   8   9
ATOM      9  C   UNK     1       5.597  -4.156  24.791  0.00  0.00    +0.039 C 
BRANCH   9  10
ATOM     10  C   UNK     1       6.810  -5.079  24.977  0.00  0.00    +0.033 C 
BRANCH  10  11
ATOM     11  C   UNK     1       7.952  -4.456  25.793  0.00  0.00    +0.161 C 
BRANCH  11  12
ATOM     12  N   UNK     1       7.830  -2.976  25.936  0.00  0.00    -0.318 NA
ATOM     13  H   UNK     1       8.717  -2.574  26.256  0.00  0.00    +0.119 HD
ATOM     14  H   UNK     1       7.722  -2.571  25.000  0.00  0.00    +0.119 HD
ENDBRANCH  11  12
BRANCH  11  15
ATOM     15  C   UNK     1       9.324  -4.789  25.179  0.00  0.00    +0.322 C 
ATOM     16  O   UNK     1       9.960  -4.054  24.441  0.00  0.00    -0.249 OA
BRANCH  15  17
ATOM     17  O   UNK     1       9.758  -6.013  25.576  0.00  0.00    -0.480 OA
ATOM     18  H   UNK     1      10.126  -6.441  24.761  0.00  0.00    +0.295 HD
ENDBRANCH  15  17
ENDBRANCH  11  15
ENDBRANCH  10  11
ENDBRANCH   9  10
ENDBRANCH   8   9
ENDBRANCH   1   8
BRANCH   4  19
ATOM     19  C   UNK     1       8.009   0.287  22.893  0.00  0.00    +0.263 C 
BRANCH  19  20
ATOM     20  C   UNK     1       7.853   1.505  21.969  0.00  0.00    +0.343 C 
ATOM     21  O   UNK     1       7.051   2.414  22.128  0.00  0.00    -0.247 OA
BRANCH  20  22
ATOM     22  O   UNK     1       8.823   1.541  21.009  0.00  0.00    -0.478 OA
ATOM     23  H   UNK     1       9.110   2.477  20.934  0.00  0.00    +0.295 HD
ENDBRANCH  20  22
ENDBRANCH  19  20
BRANCH  19  24
ATOM     24  C   UNK     1       8.484   0.700  24.284  0.00  0.00    +0.172 C 
BRANCH  24  25
ATOM     25  C   UNK     1       9.820   0.108  24.596  0.00  0.00    +0.309 C 
ATOM     26  O   UNK     1      10.829   0.758  24.864  0.00  0.00    -0.251 OA
BRANCH  25  27
ATOM     27  O   UNK     1       9.844  -1.248  24.543  0.00  0.00    -0.481 OA
ATOM     28  H   UNK     1       9.034  -1.642  24.161  0.00  0.00    +0.295 HD
ENDBRANCH  25  27
ENDBRANCH  24  25
ENDBRANCH  19  24
ENDBRANCH   4  19
TORSDOF 13
ENDMDL
MODEL 5
REMARK VINA RESULT:      -5.0      2.508      6.100
REMARK  Name = 
REMARK  13 active torsions:
REMARK  status: ('A' for Active; 'I' for Inactive)
REMARK    1  A    between atoms: N_1  and  C_2
REMARK    2  A    between atoms: C_2  and  C_4
REMARK    3  A    between atoms: C_2  and  C_20
REMARK    4  A    between atoms: C_4  and  C_5
REMARK    5  A    between atoms: C_5  and  C_6
REMARK    6  A    between atoms: C_6  and  N_7
REMARK    7  A    between atoms: N_10  and  C_11
REMARK    8  A    between atoms: C_11  and  C_13
REMARK    9  A    between atoms: C_11  and  C_17
REMARK   10  A    between atoms: C_13  and  C_14
REMARK   11  A    between atoms: C_14  and  O_15
REMARK   12  A    between atoms: C_17  and  O_18
REMARK   13  A    between atoms: C_20  and  O_21
REMARK                            x       y       z     vdW  Elec       q    Type
REMARK                         _______ _______ _______ _____ _____    ______ ____
ROOT
ATOM      1  N   UNK     1       6.862  -0.933  25.091  0.00  0.00    -0.276 N 
ATOM      2  H   UNK     1       7.684  -1.471  25.341  0.00  0.00    +0.258 HD
ATOM      3  C   UNK     1       7.069  -0.001  24.128  0.00  0.00    +0.379 C 
ATOM      4  N   UNK     1       8.393   0.099  23.860  0.00  0.00    -0.262 N 
ATOM      5  H   UNK     1       8.943   0.253  24.712  0.00  0.00    +0.259 HD
ATOM      6  N   UNK     1       6.172   0.627  23.463  0.00  0.00    -0.130 NA
ATOM      7  H   UNK     1       5.243   0.384  23.817  0.00  0.00    +0.306 HD
ENDROOT
BRANCH   1   8
ATOM      8  C   UNK     1       5.611  -1.611  25.394  0.00  0.00    +0.196 C 
BRANCH   8   9
ATOM      9  C   UNK     1       5.811  -3.057  25.851  0.00  0.00    +0.039 C 
BRANCH   9  10
ATOM     10  C   UNK     1       7.209  -3.344  26.419  0.00  0.00    +0.033 C 
BRANCH  10  11
ATOM     11  C   UNK     1       7.919  -4.536  25.762  0.00  0.00    +0.161 C 
BRANCH  11  12
ATOM     12  N   UNK     1       8.233  -5.633  26.723  0.00  0.00    -0.318 NA
ATOM     13  H   UNK     1       9.246  -5.784  26.773  0.00  0.00    +0.119 HD
ATOM     14  H   UNK     1       8.007  -5.306  27.668  0.00  0.00    +0.119 HD
ENDBRANCH  11  12
BRANCH  11  15
ATOM     15  C   UNK     1       9.217  -4.097  25.060  0.00  0.00    +0.322 C 
ATOM     16  O   UNK     1      10.160  -4.829  24.807  0.00  0.00    -0.249 OA
BRANCH  15  17
ATOM     17  O   UNK     1       9.182  -2.779  24.736  0.00  0.00    -0.480 OA
ATOM     18  H   UNK     1       9.437  -2.734  23.779  0.00  0.00    +0.295 HD
ENDBRANCH  15  17
ENDBRANCH  11  15
ENDBRANCH  10  11
ENDBRANCH   9  10
ENDBRANCH   8   9
ENDBRANCH   1   8
BRANCH   4  19
ATOM     19  C   UNK     1       8.967   0.874  22.736  0.00  0.00    +0.263 C 
BRANCH  19  20
ATOM     20  C   UNK     1      10.164   1.732  23.175  0.00  0.00    +0.343 C 
ATOM     21  O   UNK     1      10.864   1.520  24.155  0.00  0.00    -0.247 OA
BRANCH  20  22
ATOM     22  O   UNK     1      10.461   2.695  22.253  0.00  0.00    -0.478 OA
ATOM     23  H   UNK     1       9.681   3.288  22.203  0.00  0.00    +0.295 HD
ENDBRANCH  20  22
ENDBRANCH  19  20
BRANCH  19  24
ATOM     24  C   UNK     1       9.294   0.056  21.490  0.00  0.00    +0.172 C 
BRANCH  24  25
ATOM     25  C   UNK     1       9.416  -1.398  21.814  0.00  0.00    +0.309 C 
ATOM     26  O   UNK     1       8.486  -2.202  21.792  0.00  0.00    -0.251 OA
BRANCH  25  27
ATOM     27  O   UNK     1      10.672  -1.776  22.164  0.00  0.00    -0.481 OA
ATOM     28  H   UNK     1      10.768  -1.994  23.112  0.00  0.00    +0.295 HD
ENDBRANCH  25  27
ENDBRANCH  24  25
ENDBRANCH  19  24
ENDBRANCH   4  19
TORSDOF 13
ENDMDL
MODEL 6
REMARK VINA RESULT:      -5.0      2.278      3.306
REMARK  Name = 
REMARK  13 active torsions:
REMARK  status: ('A' for Active; 'I' for Inactive)
REMARK    1  A    between atoms: N_1  and  C_2
REMARK    2  A    between atoms: C_2  and  C_4
REMARK    3  A    between atoms: C_2  and  C_20
REMARK    4  A    between atoms: C_4  and  C_5
REMARK    5  A    between atoms: C_5  and  C_6
REMARK    6  A    between atoms: C_6  and  N_7
REMARK    7  A    between atoms: N_10  and  C_11
REMARK    8  A    between atoms: C_11  and  C_13
REMARK    9  A    between atoms: C_11  and  C_17
REMARK   10  A    between atoms: C_13  and  C_14
REMARK   11  A    between atoms: C_14  and  O_15
REMARK   12  A    between atoms: C_17  and  O_18
REMARK   13  A    between atoms: C_20  and  O_21
REMARK                            x       y       z     vdW  Elec       q    Type
REMARK                         _______ _______ _______ _____ _____    ______ ____
ROOT
ATOM      1  N   UNK     1      10.166  -1.561  23.408  0.00  0.00    -0.276 N 
ATOM      2  H   UNK     1      10.781  -2.153  23.956  0.00  0.00    +0.258 HD
ATOM      3  C   UNK     1       8.919  -2.061  23.223  0.00  0.00    +0.379 C 
ATOM      4  N   UNK     1       8.861  -3.336  23.677  0.00  0.00    -0.262 N 
ATOM      5  H   UNK     1       9.606  -3.917  23.276  0.00  0.00    +0.259 HD
ATOM      6  N   UNK     1       7.893  -1.423  22.796  0.00  0.00    -0.130 NA
ATOM      7  H   UNK     1       8.161  -0.472  22.530  0.00  0.00    +0.306 HD
ENDROOT
BRANCH   1   8
ATOM      8  C   UNK     1      10.551  -0.158  23.421  0.00  0.00    +0.196 C 
BRANCH   8   9
ATOM      9  C   UNK     1      10.161   0.557  24.716  0.00  0.00    +0.039 C 
BRANCH   9  10
ATOM     10  C   UNK     1       9.420   1.884  24.498  0.00  0.00    +0.033 C 
BRANCH  10  11
ATOM     11  C   UNK     1       9.659   2.514  23.118  0.00  0.00    +0.161 C 
BRANCH  11  12
ATOM     12  N   UNK     1      10.200   3.902  23.193  0.00  0.00    -0.318 NA
ATOM     13  H   UNK     1      10.279   4.202  24.170  0.00  0.00    +0.119 HD
ATOM     14  H   UNK     1      11.178   3.882  22.884  0.00  0.00    +0.119 HD
ENDBRANCH  11  12
BRANCH  11  15
ATOM     15  C   UNK     1       8.369   2.524  22.277  0.00  0.00    +0.322 C 
ATOM     16  O   UNK     1       7.799   1.531  21.854  0.00  0.00    -0.249 OA
BRANCH  15  17
ATOM     17  O   UNK     1       7.922   3.789  22.073  0.00  0.00    -0.480 OA
ATOM     18  H   UNK     1       8.737   4.352  22.015  0.00  0.00    +0.295 HD
ENDBRANCH  15  17
ENDBRANCH  11  15
ENDBRANCH  10  11
ENDBRANCH   9  10
ENDBRANCH   8   9
ENDBRANCH   1   8
BRANCH   4  19
ATOM     19  C   UNK     1       7.615  -4.124  23.810  0.00  0.00    +0.263 C 
BRANCH  19  20
ATOM     20  C   UNK     1       7.237  -4.837  22.502  0.00  0.00    +0.343 C 
ATOM     21  O   UNK     1       7.488  -6.004  22.236  0.00  0.00    -0.247 OA
BRANCH  20  22
ATOM     22  O   UNK     1       6.446  -4.057  21.709  0.00  0.00    -0.478 OA
ATOM     23  H   UNK     1       5.517  -4.316  21.895  0.00  0.00    +0.295 HD
ENDBRANCH  20  22
ENDBRANCH  19  20
BRANCH  19  24
ATOM     24  C   UNK     1       7.582  -5.082  24.997  0.00  0.00    +0.172 C 
BRANCH  24  25
ATOM     25  C   UNK     1       8.899  -5.115  25.702  0.00  0.00    +0.309 C 
ATOM     26  O   UNK     1       9.176  -4.455  26.702  0.00  0.00    -0.251 OA
BRANCH  25  27
ATOM     27  O   UNK     1       9.806  -5.946  25.126  0.00  0.00    -0.481 OA
ATOM     28  H   UNK     1      10.110  -6.666  25.714  0.00  0.00    +0.295 HD
ENDBRANCH  25  27
ENDBRANCH  24  25
ENDBRANCH  19  24
ENDBRANCH   4  19
TORSDOF 13
ENDMDL
MODEL 7
REMARK VINA RESULT:      -5.0      2.463      3.274
REMARK  Name = 
REMARK  13 active torsions:
REMARK  status: ('A' for Active; 'I' for Inactive)
REMARK    1  A    between atoms: N_1  and  C_2
REMARK    2  A    between atoms: C_2  and  C_4
REMARK    3  A    between atoms: C_2  and  C_20
REMARK    4  A    between atoms: C_4  and  C_5
REMARK    5  A    between atoms: C_5  and  C_6
REMARK    6  A    between atoms: C_6  and  N_7
REMARK    7  A    between atoms: N_10  and  C_11
REMARK    8  A    between atoms: C_11  and  C_13
REMARK    9  A    between atoms: C_11  and  C_17
REMARK   10  A    between atoms: C_13  and  C_14
REMARK   11  A    between atoms: C_14  and  O_15
REMARK   12  A    between atoms: C_17  and  O_18
REMARK   13  A    between atoms: C_20  and  O_21
REMARK                            x       y       z     vdW  Elec       q    Type
REMARK                         _______ _______ _______ _____ _____    ______ ____
ROOT
ATOM      1  N   UNK     1       9.798  -0.864  24.769  0.00  0.00    -0.276 N 
ATOM      2  H   UNK     1       9.019  -0.578  25.352  0.00  0.00    +0.258 HD
ATOM      3  C   UNK     1       9.682  -2.109  24.244  0.00  0.00    +0.379 C 
ATOM      4  N   UNK     1       8.612  -2.740  24.784  0.00  0.00    -0.262 N 
ATOM      5  H   UNK     1       8.637  -2.722  25.809  0.00  0.00    +0.259 HD
ATOM      6  N   UNK     1      10.384  -2.609  23.296  0.00  0.00    -0.130 NA
ATOM      7  H   UNK     1      11.121  -1.953  23.026  0.00  0.00    +0.306 HD
ENDROOT
BRANCH   1   8
ATOM      8  C   UNK     1      10.545   0.253  24.212  0.00  0.00    +0.196 C 
BRANCH   8   9
ATOM      9  C   UNK     1       9.863   1.603  24.443  0.00  0.00    +0.039 C 
BRANCH   9  10
ATOM     10  C   UNK     1       9.160   2.167  23.200  0.00  0.00    +0.033 C 
BRANCH  10  11
ATOM     11  C   UNK     1       8.539   1.096  22.291  0.00  0.00    +0.161 C 
BRANCH  11  12
ATOM     12  N   UNK     1       8.421   1.531  20.868  0.00  0.00    -0.318 NA
ATOM     13  H   UNK     1       9.199   2.151  20.619  0.00  0.00    +0.119 HD
ATOM     14  H   UNK     1       8.582   0.715  20.269  0.00  0.00    +0.119 HD
ENDBRANCH  11  12
BRANCH  11  15
ATOM     15  C   UNK     1       7.152   0.665  22.801  0.00  0.00    +0.322 C 
ATOM     16  O   UNK     1       6.931  -0.318  23.489  0.00  0.00    -0.249 OA
BRANCH  15  17
ATOM     17  O   UNK     1       6.188   1.533  22.400  0.00  0.00    -0.480 OA
ATOM     18  H   UNK     1       5.773   1.119  21.600  0.00  0.00    +0.295 HD
ENDBRANCH  15  17
ENDBRANCH  11  15
ENDBRANCH  10  11
ENDBRANCH   9  10
ENDBRANCH   8   9
ENDBRANCH   1   8
BRANCH   4  19
ATOM     19  C   UNK     1       8.072  -4.034  24.309  0.00  0.00    +0.263 C 
BRANCH  19  20
ATOM     20  C   UNK     1       8.548  -5.213  25.172  0.00  0.00    +0.343 C 
ATOM     21  O   UNK     1       7.866  -5.805  25.997  0.00  0.00    -0.247 OA
BRANCH  20  22
ATOM     22  O   UNK     1       9.795  -5.635  24.811  0.00  0.00    -0.478 OA
ATOM     23  H   UNK     1       9.970  -5.265  23.919  0.00  0.00    +0.295 HD
ENDBRANCH  20  22
ENDBRANCH  19  20
BRANCH  19  24
ATOM     24  C   UNK     1       6.560  -4.066  24.105  0.00  0.00    +0.172 C 
BRANCH  24  25
ATOM     25  C   UNK     1       6.187  -3.571  22.745  0.00  0.00    +0.309 C 
ATOM     26  O   UNK     1       5.076  -3.696  22.234  0.00  0.00    -0.251 OA
BRANCH  25  27
ATOM     27  O   UNK     1       7.208  -2.966  22.085  0.00  0.00    -0.481 OA
ATOM     28  H   UNK     1       6.930  -2.200  21.546  0.00  0.00    +0.295 HD
ENDBRANCH  25  27
ENDBRANCH  24  25
ENDBRANCH  19  24
ENDBRANCH   4  19
TORSDOF 13
ENDMDL
MODEL 8
REMARK VINA RESULT:      -4.9      2.732      3.477
REMARK  Name = 
REMARK  13 active torsions:
REMARK  status: ('A' for Active; 'I' for Inactive)
REMARK    1  A    between atoms: N_1  and  C_2
REMARK    2  A    between atoms: C_2  and  C_4
REMARK    3  A    between atoms: C_2  and  C_20
REMARK    4  A    between atoms: C_4  and  C_5
REMARK    5  A    between atoms: C_5  and  C_6
REMARK    6  A    between atoms: C_6  and  N_7
REMARK    7  A    between atoms: N_10  and  C_11
REMARK    8  A    between atoms: C_11  and  C_13
REMARK    9  A    between atoms: C_11  and  C_17
REMARK   10  A    between atoms: C_13  and  C_14
REMARK   11  A    between atoms: C_14  and  O_15
REMARK   12  A    between atoms: C_17  and  O_18
REMARK   13  A    between atoms: C_20  and  O_21
REMARK                            x       y       z     vdW  Elec       q    Type
REMARK                         _______ _______ _______ _____ _____    ______ ____
ROOT
ATOM      1  N   UNK     1       8.607  -1.560  22.031  0.00  0.00    -0.276 N 
ATOM      2  H   UNK     1       7.845  -1.668  21.371  0.00  0.00    +0.258 HD
ATOM      3  C   UNK     1       8.767  -2.601  22.884  0.00  0.00    +0.379 C 
ATOM      4  N   UNK     1       7.733  -3.468  22.753  0.00  0.00    -0.262 N 
ATOM      5  H   UNK     1       6.827  -2.995  22.840  0.00  0.00    +0.259 HD
ATOM      6  N   UNK     1       9.781  -2.831  23.632  0.00  0.00    -0.130 NA
ATOM      7  H   UNK     1      10.449  -2.060  23.559  0.00  0.00    +0.306 HD
ENDROOT
BRANCH   1   8
ATOM      8  C   UNK     1       9.636  -0.634  21.581  0.00  0.00    +0.196 C 
BRANCH   8   9
ATOM      9  C   UNK     1       9.209   0.831  21.689  0.00  0.00    +0.039 C 
BRANCH   9  10
ATOM     10  C   UNK     1       8.483   1.174  22.997  0.00  0.00    +0.033 C 
BRANCH  10  11
ATOM     11  C   UNK     1       9.393   1.773  24.079  0.00  0.00    +0.161 C 
BRANCH  11  12
ATOM     12  N   UNK     1      10.252   2.884  23.574  0.00  0.00    -0.318 NA
ATOM     13  H   UNK     1      10.107   3.018  22.569  0.00  0.00    +0.119 HD
ATOM     14  H   UNK     1       9.905   3.764  23.971  0.00  0.00    +0.119 HD
ENDBRANCH  11  12
BRANCH  11  15
ATOM     15  C   UNK     1      10.290   0.695  24.715  0.00  0.00    +0.322 C 
ATOM     16  O   UNK     1      11.508   0.668  24.650  0.00  0.00    -0.249 OA
BRANCH  15  17
ATOM     17  O   UNK     1       9.553  -0.230  25.382  0.00  0.00    -0.480 OA
ATOM     18  H   UNK     1       8.652  -0.200  24.969  0.00  0.00    +0.295 HD
ENDBRANCH  15  17
ENDBRANCH  11  15
ENDBRANCH  10  11
ENDBRANCH   9  10
ENDBRANCH   8   9
ENDBRANCH   1   8
BRANCH   4  19
ATOM     19  C   UNK     1       7.673  -4.805  23.385  0.00  0.00    +0.263 C 
BRANCH  19  20
ATOM     20  C   UNK     1       7.179  -4.738  24.839  0.00  0.00    +0.343 C 
ATOM     21  O   UNK     1       6.019  -4.883  25.199  0.00  0.00    -0.247 OA
BRANCH  20  22
ATOM     22  O   UNK     1       8.215  -4.642  25.723  0.00  0.00    -0.478 OA
ATOM     23  H   UNK     1       7.850  -4.855  26.609  0.00  0.00    +0.295 HD
ENDBRANCH  20  22
ENDBRANCH  19  20
BRANCH  19  24
ATOM     24  C   UNK     1       6.915  -5.862  22.587  0.00  0.00    +0.172 C 
BRANCH  24  25
ATOM     25  C   UNK     1       5.904  -5.235  21.682  0.00  0.00    +0.309 C 
ATOM     26  O   UNK     1       5.999  -5.177  20.458  0.00  0.00    -0.251 OA
BRANCH  25  27
ATOM     27  O   UNK     1       4.843  -4.697  22.338  0.00  0.00    -0.481 OA
ATOM     28  H   UNK     1       5.085  -4.220  23.156  0.00  0.00    +0.295 HD
ENDBRANCH  25  27
ENDBRANCH  24  25
ENDBRANCH  19  24
ENDBRANCH   4  19
TORSDOF 13
ENDMDL
MODEL 9
REMARK VINA RESULT:      -4.8      2.181      3.466
REMARK  Name = 
REMARK  13 active torsions:
REMARK  status: ('A' for Active; 'I' for Inactive)
REMARK    1  A    between atoms: N_1  and  C_2
REMARK    2  A    between atoms: C_2  and  C_4
REMARK    3  A    between atoms: C_2  and  C_20
REMARK    4  A    between atoms: C_4  and  C_5
REMARK    5  A    between atoms: C_5  and  C_6
REMARK    6  A    between atoms: C_6  and  N_7
REMARK    7  A    between atoms: N_10  and  C_11
REMARK    8  A    between atoms: C_11  and  C_13
REMARK    9  A    between atoms: C_11  and  C_17
REMARK   10  A    between atoms: C_13  and  C_14
REMARK   11  A    between atoms: C_14  and  O_15
REMARK   12  A    between atoms: C_17  and  O_18
REMARK   13  A    between atoms: C_20  and  O_21
REMARK                            x       y       z     vdW  Elec       q    Type
REMARK                         _______ _______ _______ _____ _____    ______ ____
ROOT
ATOM      1  N   UNK     1       9.912  -0.504  24.573  0.00  0.00    -0.276 N 
ATOM      2  H   UNK     1      10.106  -1.208  23.869  0.00  0.00    +0.258 HD
ATOM      3  C   UNK     1       9.233  -0.960  25.655  0.00  0.00    +0.379 C 
ATOM      4  N   UNK     1       8.821  -2.233  25.439  0.00  0.00    -0.262 N 
ATOM      5  H   UNK     1       8.305  -2.321  24.557  0.00  0.00    +0.259 HD
ATOM      6  N   UNK     1       9.082  -0.358  26.775  0.00  0.00    -0.130 NA
ATOM      7  H   UNK     1       9.489   0.580  26.723  0.00  0.00    +0.306 HD
ENDROOT
BRANCH   1   8
ATOM      8  C   UNK     1      10.827   0.627  24.529  0.00  0.00    +0.196 C 
BRANCH   8   9
ATOM      9  C   UNK     1      10.315   1.776  23.659  0.00  0.00    +0.039 C 
BRANCH   9  10
ATOM     10  C   UNK     1       9.920   1.352  22.236  0.00  0.00    +0.033 C 
BRANCH  10  11
ATOM     11  C   UNK     1       8.536   1.851  21.796  0.00  0.00    +0.161 C 
BRANCH  11  12
ATOM     12  N   UNK     1       8.272   3.267  22.188  0.00  0.00    -0.318 NA
ATOM     13  H   UNK     1       7.337   3.553  21.878  0.00  0.00    +0.119 HD
ATOM     14  H   UNK     1       8.193   3.307  23.209  0.00  0.00    +0.119 HD
ENDBRANCH  11  12
BRANCH  11  15
ATOM     15  C   UNK     1       7.415   0.958  22.357  0.00  0.00    +0.322 C 
ATOM     16  O   UNK     1       7.550  -0.206  22.700  0.00  0.00    -0.249 OA
BRANCH  15  17
ATOM     17  O   UNK     1       6.241   1.634  22.442  0.00  0.00    -0.480 OA
ATOM     18  H   UNK     1       5.714   1.164  23.139  0.00  0.00    +0.295 HD
ENDBRANCH  15  17
ENDBRANCH  11  15
ENDBRANCH  10  11
ENDBRANCH   9  10
ENDBRANCH   8   9
ENDBRANCH   1   8
BRANCH   4  19
ATOM     19  C   UNK     1       8.222  -3.108  26.470  0.00  0.00    +0.263 C 
BRANCH  19  20
ATOM     20  C   UNK     1       6.686  -3.050  26.460  0.00  0.00    +0.343 C 
ATOM     21  O   UNK     1       5.945  -3.992  26.214  0.00  0.00    -0.247 OA
BRANCH  20  22
ATOM     22  O   UNK     1       6.221  -1.846  26.905  0.00  0.00    -0.478 OA
ATOM     23  H   UNK     1       5.295  -1.993  27.198  0.00  0.00    +0.295 HD
ENDBRANCH  20  22
ENDBRANCH  19  20
BRANCH  19  24
ATOM     24  C   UNK     1       8.725  -4.549  26.466  0.00  0.00    +0.172 C 
BRANCH  24  25
ATOM     25  C   UNK     1       9.311  -4.913  25.140  0.00  0.00    +0.309 C 
ATOM     26  O   UNK     1       8.723  -4.819  24.065  0.00  0.00    -0.251 OA
BRANCH  25  27
ATOM     27  O   UNK     1      10.581  -5.387  25.216  0.00  0.00    -0.481 OA
ATOM     28  H   UNK     1      10.678  -6.306  24.896  0.00  0.00    +0.295 HD
ENDBRANCH  25  27
ENDBRANCH  24  25
ENDBRANCH  19  24
ENDBRANCH   4  19
TORSDOF 13
ENDMDL
