MODEL 1
REMARK VINA RESULT:      -8.0      0.000      0.000
REMARK  Name = 
REMARK  4 active torsions:
REMARK  status: ('A' for Active; 'I' for Inactive)
REMARK    1  A    between atoms: C_1  and  C_2
REMARK    2  A    between atoms: C_2  and  O_3
REMARK    3  A    between atoms: C_18  and  C_19
REMARK    4  A    between atoms: C_23  and  C_24
REMARK                            x       y       z     vdW  Elec       q    Type
REMARK                         _______ _______ _______ _____ _____    ______ ____
ROOT
ATOM      1  C   UNL     1       8.229   5.142  23.074  0.00  0.00    +0.042 C 
ATOM      2  C   UNL     1       9.013   3.856  23.461  0.00  0.00    +0.069 C 
ATOM      3  C   UNL     1       8.600   2.466  22.711  0.00  0.00    -0.000 C 
ATOM      4  C   UNL     1       7.451   2.797  21.727  0.00  0.00    +0.014 C 
ATOM      5  C   UNL     1       8.258   1.614  23.948  0.00  0.00    +0.001 C 
ATOM      6  C   UNL     1       7.497   0.365  23.569  0.00  0.00    -0.004 C 
ATOM      7  C   UNL     1       8.575  -0.807  23.168  0.00  0.00    -0.001 C 
ATOM      8  C   UNL     1       9.072  -0.135  21.791  0.00  0.00    +0.005 C 
ATOM      9  C   UNL     1       7.936  -2.444  23.443  0.00  0.00    -0.022 C 
ATOM     10  C   UNL     1       7.350  -2.906  22.091  0.00  0.00    +0.012 C 
ATOM     11  C   UNL     1       6.991  -2.098  24.635  0.00  0.00    +0.001 C 
ATOM     12  C   UNL     1       6.599  -2.791  25.926  0.00  0.00    +0.061 C 
ATOM     13  C   UNL     1       7.489  -3.895  26.226  0.00  0.00    +0.066 A 
ATOM     14  C   UNL     1       8.426  -4.404  25.331  0.00  0.00    -0.006 A 
ATOM     15  C   UNL     1       8.715  -5.628  25.933  0.00  0.00    +0.108 A 
ATOM     16  N   UNL     1       8.109  -5.635  27.167  0.00  0.00    -0.284 N 
ATOM     17  H   UNL     1       8.106  -6.356  27.898  0.00  0.00    +0.188 HD
ATOM     18  N   UNL     1       7.344  -4.565  27.374  0.00  0.00    -0.179 NA
ATOM     19  C   UNL     1       5.832  -1.223  24.231  0.00  0.00    +0.005 C 
ATOM     20  C   UNL     1       8.791  -3.775  23.954  0.00  0.00    +0.045 C 
ATOM     21  C   UNL     1       6.378   0.117  24.559  0.00  0.00    +0.004 C 
ATOM     22  C   UNL     1       7.693   2.511  25.007  0.00  0.00    +0.007 C 
ATOM     23  C   UNL     1       9.586   1.464  21.938  0.00  0.00    +0.010 C 
ATOM     24  C   UNL     1       8.682   3.665  24.972  0.00  0.00    +0.035 C 
ENDROOT
BRANCH   2  25
ATOM     25  O   UNL     1      10.401   4.148  23.347  0.00  0.00    -0.388 OA
ATOM     26  H   UNL     1      10.754   3.622  22.600  0.00  0.00    +0.210 HD
ENDBRANCH   2  25
TORSDOF 1
ENDMDL
MODEL 2
REMARK VINA RESULT:      -7.8      3.903      7.251
REMARK  Name = 
REMARK  4 active torsions:
REMARK  status: ('A' for Active; 'I' for Inactive)
REMARK    1  A    between atoms: C_1  and  C_2
REMARK    2  A    between atoms: C_2  and  O_3
REMARK    3  A    between atoms: C_18  and  C_19
REMARK    4  A    between atoms: C_23  and  C_24
REMARK                            x       y       z     vdW  Elec       q    Type
REMARK                         _______ _______ _______ _____ _____    ______ ____
ROOT
ATOM      1  C   UNL     1       7.720  -5.218  24.125  0.00  0.00    +0.042 C 
ATOM      2  C   UNL     1       7.899  -3.854  24.850  0.00  0.00    +0.069 C 
ATOM      3  C   UNL     1       7.266  -2.531  24.133  0.00  0.00    -0.000 C 
ATOM      4  C   UNL     1       6.594  -2.995  22.818  0.00  0.00    +0.014 C 
ATOM      5  C   UNL     1       8.545  -1.680  24.019  0.00  0.00    +0.001 C 
ATOM      6  C   UNL     1       8.358  -0.519  23.070  0.00  0.00    -0.004 C 
ATOM      7  C   UNL     1       7.702   0.737  23.899  0.00  0.00    -0.001 C 
ATOM      8  C   UNL     1       6.248   0.077  24.110  0.00  0.00    +0.005 C 
ATOM      9  C   UNL     1       8.117   2.314  23.188  0.00  0.00    -0.022 C 
ATOM     10  C   UNL     1       6.947   2.681  22.249  0.00  0.00    +0.012 C 
ATOM     11  C   UNL     1       9.505   1.914  22.598  0.00  0.00    +0.001 C 
ATOM     12  C   UNL     1      10.849   2.604  22.464  0.00  0.00    +0.061 C 
ATOM     13  C   UNL     1      10.919   3.793  23.287  0.00  0.00    +0.066 A 
ATOM     14  C   UNL     1       9.820   4.364  23.925  0.00  0.00    -0.006 A 
ATOM     15  C   UNL     1      10.329   5.626  24.230  0.00  0.00    +0.108 A 
ATOM     16  N   UNL     1      11.673   5.610  23.943  0.00  0.00    -0.284 N 
ATOM     17  H   UNL     1      12.380   6.348  24.046  0.00  0.00    +0.188 HD
ATOM     18  N   UNL     1      12.065   4.479  23.360  0.00  0.00    -0.179 NA
ATOM     19  C   UNL     1       9.399   0.923  21.467  0.00  0.00    +0.005 C 
ATOM     20  C   UNL     1       8.399   3.733  24.006  0.00  0.00    +0.045 C 
ATOM     21  C   UNL     1       9.590  -0.350  22.204  0.00  0.00    +0.004 C 
ATOM     22  C   UNL     1       9.714  -2.596  23.817  0.00  0.00    +0.007 C 
ATOM     23  C   UNL     1       6.272  -1.462  24.799  0.00  0.00    +0.010 C 
ATOM     24  C   UNL     1       9.445  -3.653  24.876  0.00  0.00    +0.035 C 
ENDROOT
BRANCH   2  25
ATOM     25  O   UNL     1       7.453  -4.017  26.190  0.00  0.00    -0.388 OA
ATOM     26  H   UNL     1       8.129  -3.621  26.778  0.00  0.00    +0.210 HD
ENDBRANCH   2  25
TORSDOF 1
ENDMDL
MODEL 3
REMARK VINA RESULT:      -7.8      2.849      3.935
REMARK  Name = 
REMARK  4 active torsions:
REMARK  status: ('A' for Active; 'I' for Inactive)
REMARK    1  A    between atoms: C_1  and  C_2
REMARK    2  A    between atoms: C_2  and  O_3
REMARK    3  A    between atoms: C_18  and  C_19
REMARK    4  A    between atoms: C_23  and  C_24
REMARK                            x       y       z     vdW  Elec       q    Type
REMARK                         _______ _______ _______ _____ _____    ______ ____
ROOT
ATOM      1  C   UNL     1       9.459   2.751  24.202  0.00  0.00    +0.042 C 
ATOM      2  C   UNL     1       8.426   1.791  24.858  0.00  0.00    +0.069 C 
ATOM      3  C   UNL     1       8.877   0.237  25.079  0.00  0.00    -0.000 C 
ATOM      4  C   UNL     1      10.323   0.095  24.546  0.00  0.00    +0.014 C 
ATOM      5  C   UNL     1       7.752  -0.457  24.287  0.00  0.00    +0.001 C 
ATOM      6  C   UNL     1       8.083  -1.904  24.004  0.00  0.00    -0.004 C 
ATOM      7  C   UNL     1       7.616  -2.811  25.291  0.00  0.00    -0.001 C 
ATOM      8  C   UNL     1       8.741  -2.273  26.311  0.00  0.00    +0.005 C 
ATOM      9  C   UNL     1       7.233  -4.488  24.839  0.00  0.00    -0.022 C 
ATOM     10  C   UNL     1       8.522  -5.303  25.083  0.00  0.00    +0.012 C 
ATOM     11  C   UNL     1       6.745  -4.202  23.385  0.00  0.00    +0.001 C 
ATOM     12  C   UNL     1       5.640  -4.749  22.500  0.00  0.00    +0.061 C 
ATOM     13  C   UNL     1       4.682  -5.523  23.264  0.00  0.00    +0.066 A 
ATOM     14  C   UNL     1       4.879  -5.917  24.585  0.00  0.00    -0.006 A 
ATOM     15  C   UNL     1       3.906  -6.910  24.703  0.00  0.00    +0.108 A 
ATOM     16  N   UNL     1       3.133  -6.866  23.567  0.00  0.00    -0.284 N 
ATOM     17  H   UNL     1       2.319  -7.432  23.299  0.00  0.00    +0.188 HD
ATOM     18  N   UNL     1       3.593  -6.008  22.659  0.00  0.00    -0.179 NA
ATOM     19  C   UNL     1       7.850  -3.732  22.475  0.00  0.00    +0.005 C 
ATOM     20  C   UNL     1       6.051  -5.453  25.499  0.00  0.00    +0.045 C 
ATOM     21  C   UNL     1       7.685  -2.262  22.587  0.00  0.00    +0.004 C 
ATOM     22  C   UNL     1       7.353   0.428  23.146  0.00  0.00    +0.007 C 
ATOM     23  C   UNL     1       8.813  -0.594  26.450  0.00  0.00    +0.010 C 
ATOM     24  C   UNL     1       7.244   1.775  23.844  0.00  0.00    +0.035 C 
ENDROOT
BRANCH   2  25
ATOM     25  O   UNL     1       7.970   2.404  26.058  0.00  0.00    -0.388 OA
ATOM     26  H   UNL     1       8.229   1.824  26.804  0.00  0.00    +0.210 HD
ENDBRANCH   2  25
TORSDOF 1
ENDMDL
MODEL 4
REMARK VINA RESULT:      -7.8      3.870      7.085
REMARK  Name = 
REMARK  4 active torsions:
REMARK  status: ('A' for Active; 'I' for Inactive)
REMARK    1  A    between atoms: C_1  and  C_2
REMARK    2  A    between atoms: C_2  and  O_3
REMARK    3  A    between atoms: C_18  and  C_19
REMARK    4  A    between atoms: C_23  and  C_24
REMARK                            x       y       z     vdW  Elec       q    Type
REMARK                         _______ _______ _______ _____ _____    ______ ____
ROOT
ATOM      1  C   UNL     1       7.547  -5.461  26.565  0.00  0.00    +0.042 C 
ATOM      2  C   UNL     1       6.849  -4.328  25.761  0.00  0.00    +0.069 C 
ATOM      3  C   UNL     1       7.731  -3.556  24.624  0.00  0.00    -0.000 C 
ATOM      4  C   UNL     1       9.143  -4.190  24.626  0.00  0.00    +0.014 C 
ATOM      5  C   UNL     1       7.595  -2.113  25.149  0.00  0.00    +0.001 C 
ATOM      6  C   UNL     1       8.601  -1.190  24.504  0.00  0.00    -0.004 C 
ATOM      7  C   UNL     1       7.978  -0.639  23.088  0.00  0.00    -0.001 C 
ATOM      8  C   UNL     1       8.063  -2.039  22.295  0.00  0.00    +0.005 C 
ATOM      9  C   UNL     1       8.637   0.946  22.623  0.00  0.00    -0.022 C 
ATOM     10  C   UNL     1       9.818   0.656  21.672  0.00  0.00    +0.012 C 
ATOM     11  C   UNL     1       8.899   1.489  24.063  0.00  0.00    +0.001 C 
ATOM     12  C   UNL     1       8.764   2.841  24.737  0.00  0.00    +0.061 C 
ATOM     13  C   UNL     1       7.986   3.760  23.931  0.00  0.00    +0.066 A 
ATOM     14  C   UNL     1       7.621   3.518  22.609  0.00  0.00    -0.006 A 
ATOM     15  C   UNL     1       7.257   4.802  22.206  0.00  0.00    +0.108 A 
ATOM     16  N   UNL     1       7.246   5.599  23.325  0.00  0.00    -0.284 N 
ATOM     17  H   UNL     1       7.018   6.595  23.425  0.00  0.00    +0.188 HD
ATOM     18  N   UNL     1       7.691   4.972  24.412  0.00  0.00    -0.179 NA
ATOM     19  C   UNL     1       9.991   0.741  24.783  0.00  0.00    +0.005 C 
ATOM     20  C   UNL     1       7.827   2.174  21.850  0.00  0.00    +0.045 C 
ATOM     21  C   UNL     1       9.186  -0.251  25.539  0.00  0.00    +0.004 C 
ATOM     22  C   UNL     1       7.508  -2.154  26.645  0.00  0.00    +0.007 C 
ATOM     23  C   UNL     1       7.332  -3.337  23.086  0.00  0.00    +0.010 C 
ATOM     24  C   UNL     1       6.496  -3.270  26.849  0.00  0.00    +0.035 C 
ENDROOT
BRANCH   2  25
ATOM     25  O   UNL     1       5.632  -4.853  25.246  0.00  0.00    -0.388 OA
ATOM     26  H   UNL     1       4.912  -4.588  25.856  0.00  0.00    +0.210 HD
ENDBRANCH   2  25
TORSDOF 1
ENDMDL
MODEL 5
REMARK VINA RESULT:      -7.7      2.196      3.350
REMARK  Name = 
REMARK  4 active torsions:
REMARK  status: ('A' for Active; 'I' for Inactive)
REMARK    1  A    between atoms: C_1  and  C_2
REMARK    2  A    between atoms: C_2  and  O_3
REMARK    3  A    between atoms: C_18  and  C_19
REMARK    4  A    between atoms: C_23  and  C_24
REMARK                            x       y       z     vdW  Elec       q    Type
REMARK                         _______ _______ _______ _____ _____    ______ ____
ROOT
ATOM      1  C   UNL     1       9.918   4.109  23.754  0.00  0.00    +0.042 C 
ATOM      2  C   UNL     1       8.926   3.143  23.044  0.00  0.00    +0.069 C 
ATOM      3  C   UNL     1       7.981   2.205  23.988  0.00  0.00    -0.000 C 
ATOM      4  C   UNL     1       8.328   2.533  25.461  0.00  0.00    +0.014 C 
ATOM      5  C   UNL     1       8.395   0.822  23.449  0.00  0.00    +0.001 C 
ATOM      6  C   UNL     1       7.949  -0.290  24.368  0.00  0.00    -0.004 C 
ATOM      7  C   UNL     1       6.406  -0.701  23.987  0.00  0.00    -0.001 C 
ATOM      8  C   UNL     1       5.717   0.650  24.531  0.00  0.00    +0.005 C 
ATOM      9  C   UNL     1       6.027  -2.389  24.401  0.00  0.00    -0.022 C 
ATOM     10  C   UNL     1       5.378  -2.350  25.802  0.00  0.00    +0.012 C 
ATOM     11  C   UNL     1       7.462  -2.973  24.213  0.00  0.00    +0.001 C 
ATOM     12  C   UNL     1       8.026  -4.267  23.657  0.00  0.00    +0.061 C 
ATOM     13  C   UNL     1       7.025  -5.006  22.915  0.00  0.00    +0.066 A 
ATOM     14  C   UNL     1       5.667  -4.695  22.918  0.00  0.00    -0.006 A 
ATOM     15  C   UNL     1       5.133  -5.876  22.406  0.00  0.00    +0.108 A 
ATOM     16  N   UNL     1       6.184  -6.653  21.979  0.00  0.00    -0.284 N 
ATOM     17  H   UNL     1       6.184  -7.581  21.538  0.00  0.00    +0.188 HD
ATOM     18  N   UNL     1       7.371  -6.131  22.281  0.00  0.00    -0.179 NA
ATOM     19  C   UNL     1       8.442  -2.466  25.239  0.00  0.00    +0.005 C 
ATOM     20  C   UNL     1       5.037  -3.424  23.559  0.00  0.00    +0.045 C 
ATOM     21  C   UNL     1       9.044  -1.329  24.500  0.00  0.00    +0.004 C 
ATOM     22  C   UNL     1       9.834   0.881  23.032  0.00  0.00    +0.007 C 
ATOM     23  C   UNL     1       6.384   2.072  23.916  0.00  0.00    +0.010 C 
ATOM     24  C   UNL     1       9.858   2.182  22.246  0.00  0.00    +0.035 C 
ENDROOT
BRANCH   2  25
ATOM     25  O   UNL     1       8.177   3.909  22.108  0.00  0.00    -0.388 OA
ATOM     26  H   UNL     1       8.808   4.288  21.462  0.00  0.00    +0.210 HD
ENDBRANCH   2  25
TORSDOF 1
ENDMDL
MODEL 6
REMARK VINA RESULT:      -7.6      4.475      7.488
REMARK  Name = 
REMARK  4 active torsions:
REMARK  status: ('A' for Active; 'I' for Inactive)
REMARK    1  A    between atoms: C_1  and  C_2
REMARK    2  A    between atoms: C_2  and  O_3
REMARK    3  A    between atoms: C_18  and  C_19
REMARK    4  A    between atoms: C_23  and  C_24
REMARK                            x       y       z     vdW  Elec       q    Type
REMARK                         _______ _______ _______ _____ _____    ______ ____
ROOT
ATOM      1  C   UNL     1       2.594  -6.871  25.022  0.00  0.00    +0.042 C 
ATOM      2  C   UNL     1       3.303  -6.076  23.889  0.00  0.00    +0.069 C 
ATOM      3  C   UNL     1       4.897  -5.768  24.068  0.00  0.00    -0.000 C 
ATOM      4  C   UNL     1       5.339  -6.392  25.414  0.00  0.00    +0.014 C 
ATOM      5  C   UNL     1       4.860  -4.231  23.971  0.00  0.00    +0.001 C 
ATOM      6  C   UNL     1       6.152  -3.613  24.453  0.00  0.00    -0.004 C 
ATOM      7  C   UNL     1       7.217  -3.579  23.203  0.00  0.00    -0.001 C 
ATOM      8  C   UNL     1       7.466  -5.169  23.132  0.00  0.00    +0.005 C 
ATOM      9  C   UNL     1       8.411  -2.271  23.361  0.00  0.00    -0.022 C 
ATOM     10  C   UNL     1       9.649  -2.899  24.037  0.00  0.00    +0.012 C 
ATOM     11  C   UNL     1       7.511  -1.265  24.144  0.00  0.00    +0.001 C 
ATOM     12  C   UNL     1       7.322   0.240  24.125  0.00  0.00    +0.061 C 
ATOM     13  C   UNL     1       7.928   0.836  22.952  0.00  0.00    +0.066 A 
ATOM     14  C   UNL     1       8.780   0.155  22.085  0.00  0.00    -0.006 A 
ATOM     15  C   UNL     1       9.359   1.225  21.404  0.00  0.00    +0.108 A 
ATOM     16  N   UNL     1       8.680   2.363  21.768  0.00  0.00    -0.284 N 
ATOM     17  H   UNL     1       8.811   3.337  21.468  0.00  0.00    +0.188 HD
ATOM     18  N   UNL     1       7.782   2.146  22.727  0.00  0.00    -0.179 NA
ATOM     19  C   UNL     1       7.174  -1.737  25.534  0.00  0.00    +0.005 C 
ATOM     20  C   UNL     1       9.074  -1.373  22.129  0.00  0.00    +0.045 C 
ATOM     21  C   UNL     1       5.861  -2.384  25.290  0.00  0.00    +0.004 C 
ATOM     22  C   UNL     1       3.567  -3.744  24.551  0.00  0.00    +0.007 C 
ATOM     23  C   UNL     1       6.060  -6.093  23.012  0.00  0.00    +0.010 C 
ATOM     24  C   UNL     1       2.577  -4.697  23.900  0.00  0.00    +0.035 C 
ENDROOT
BRANCH   2  25
ATOM     25  O   UNL     1       3.005  -6.722  22.658  0.00  0.00    -0.388 OA
ATOM     26  H   UNL     1       2.030  -6.750  22.566  0.00  0.00    +0.210 HD
ENDBRANCH   2  25
TORSDOF 1
ENDMDL
MODEL 7
REMARK VINA RESULT:      -7.5      4.037      7.074
REMARK  Name = 
REMARK  4 active torsions:
REMARK  status: ('A' for Active; 'I' for Inactive)
REMARK    1  A    between atoms: C_1  and  C_2
REMARK    2  A    between atoms: C_2  and  O_3
REMARK    3  A    between atoms: C_18  and  C_19
REMARK    4  A    between atoms: C_23  and  C_24
REMARK                            x       y       z     vdW  Elec       q    Type
REMARK                         _______ _______ _______ _____ _____    ______ ____
ROOT
ATOM      1  C   UNL     1       4.938  -6.400  22.783  0.00  0.00    +0.042 C 
ATOM      2  C   UNL     1       6.211  -5.545  22.526  0.00  0.00    +0.069 C 
ATOM      3  C   UNL     1       6.853  -4.748  23.799  0.00  0.00    -0.000 C 
ATOM      4  C   UNL     1       5.976  -5.067  25.034  0.00  0.00    +0.014 C 
ATOM      5  C   UNL     1       6.803  -3.314  23.239  0.00  0.00    +0.001 C 
ATOM      6  C   UNL     1       7.008  -2.285  24.326  0.00  0.00    -0.004 C 
ATOM      7  C   UNL     1       8.621  -2.053  24.534  0.00  0.00    -0.001 C 
ATOM      8  C   UNL     1       8.928  -3.490  25.196  0.00  0.00    +0.005 C 
ATOM      9  C   UNL     1       9.001  -0.433  25.161  0.00  0.00    -0.022 C 
ATOM     10  C   UNL     1       9.105  -0.582  26.695  0.00  0.00    +0.012 C 
ATOM     11  C   UNL     1       7.795   0.323  24.523  0.00  0.00    +0.001 C 
ATOM     12  C   UNL     1       7.602   1.688  23.890  0.00  0.00    +0.061 C 
ATOM     13  C   UNL     1       8.872   2.319  23.592  0.00  0.00    +0.066 A 
ATOM     14  C   UNL     1      10.100   1.847  24.048  0.00  0.00    -0.006 A 
ATOM     15  C   UNL     1      10.901   2.968  23.831  0.00  0.00    +0.108 A 
ATOM     16  N   UNL     1      10.156   3.875  23.115  0.00  0.00    -0.284 N 
ATOM     17  H   UNL     1      10.408   4.806  22.762  0.00  0.00    +0.188 HD
ATOM     18  N   UNL     1       8.891   3.492  22.950  0.00  0.00    -0.179 NA
ATOM     19  C   UNL     1       6.468  -0.087  25.108  0.00  0.00    +0.005 C 
ATOM     20  C   UNL     1      10.328   0.495  24.785  0.00  0.00    +0.045 C 
ATOM     21  C   UNL     1       6.052  -1.126  24.133  0.00  0.00    +0.004 C 
ATOM     22  C   UNL     1       5.607  -3.190  22.344  0.00  0.00    +0.007 C 
ATOM     23  C   UNL     1       8.377  -4.806  24.296  0.00  0.00    +0.010 C 
ATOM     24  C   UNL     1       5.727  -4.460  21.517  0.00  0.00    +0.035 C 
ENDROOT
BRANCH   2  25
ATOM     25  O   UNL     1       7.159  -6.372  21.864  0.00  0.00    -0.388 OA
ATOM     26  H   UNL     1       7.437  -5.909  21.046  0.00  0.00    +0.210 HD
ENDBRANCH   2  25
TORSDOF 1
ENDMDL
MODEL 8
REMARK VINA RESULT:      -7.5      2.581      4.047
REMARK  Name = 
REMARK  4 active torsions:
REMARK  status: ('A' for Active; 'I' for Inactive)
REMARK    1  A    between atoms: C_1  and  C_2
REMARK    2  A    between atoms: C_2  and  O_3
REMARK    3  A    between atoms: C_18  and  C_19
REMARK    4  A    between atoms: C_23  and  C_24
REMARK                            x       y       z     vdW  Elec       q    Type
REMARK                         _______ _______ _______ _____ _____    ______ ____
ROOT
ATOM      1  C   UNL     1      10.365   1.803  22.264  0.00  0.00    +0.042 C 
ATOM      2  C   UNL     1       8.992   1.108  22.040  0.00  0.00    +0.069 C 
ATOM      3  C   UNL     1       8.120   0.718  23.363  0.00  0.00    -0.000 C 
ATOM      4  C   UNL     1       8.931   1.171  24.601  0.00  0.00    +0.014 C 
ATOM      5  C   UNL     1       7.974  -0.797  23.121  0.00  0.00    +0.001 C 
ATOM      6  C   UNL     1       7.506  -1.516  24.365  0.00  0.00    -0.004 C 
ATOM      7  C   UNL     1       5.866  -1.456  24.422  0.00  0.00    -0.001 C 
ATOM      8  C   UNL     1       5.752   0.120  24.732  0.00  0.00    +0.005 C 
ATOM      9  C   UNL     1       5.166  -2.822  25.320  0.00  0.00    -0.022 C 
ATOM     10  C   UNL     1       4.959  -2.322  26.767  0.00  0.00    +0.012 C 
ATOM     11  C   UNL     1       6.276  -3.870  25.000  0.00  0.00    +0.001 C 
ATOM     12  C   UNL     1       6.289  -5.355  24.689  0.00  0.00    +0.061 C 
ATOM     13  C   UNL     1       4.960  -5.843  24.379  0.00  0.00    +0.066 A 
ATOM     14  C   UNL     1       3.795  -5.107  24.578  0.00  0.00    -0.006 A 
ATOM     15  C   UNL     1       2.838  -6.118  24.503  0.00  0.00    +0.108 A 
ATOM     16  N   UNL     1       3.477  -7.261  24.084  0.00  0.00    -0.284 N 
ATOM     17  H   UNL     1       3.102  -8.199  23.903  0.00  0.00    +0.188 HD
ATOM     18  N   UNL     1       4.797  -7.114  23.996  0.00  0.00    -0.179 NA
ATOM     19  C   UNL     1       7.599  -3.540  25.642  0.00  0.00    +0.005 C 
ATOM     20  C   UNL     1       3.738  -3.606  24.988  0.00  0.00    +0.045 C 
ATOM     21  C   UNL     1       8.266  -2.817  24.531  0.00  0.00    +0.004 C 
ATOM     22  C   UNL     1       9.203  -1.291  22.420  0.00  0.00    +0.007 C 
ATOM     23  C   UNL     1       6.591   1.108  23.653  0.00  0.00    +0.010 C 
ATOM     24  C   UNL     1       9.370  -0.233  21.341  0.00  0.00    +0.035 C 
ENDROOT
BRANCH   2  25
ATOM     25  O   UNL     1       8.257   1.897  21.112  0.00  0.00    -0.388 OA
ATOM     26  H   UNL     1       7.306   1.801  21.329  0.00  0.00    +0.210 HD
ENDBRANCH   2  25
TORSDOF 1
ENDMDL
MODEL 9
REMARK VINA RESULT:      -7.4      2.485      3.803
REMARK  Name = 
REMARK  4 active torsions:
REMARK  status: ('A' for Active; 'I' for Inactive)
REMARK    1  A    between atoms: C_1  and  C_2
REMARK    2  A    between atoms: C_2  and  O_3
REMARK    3  A    between atoms: C_18  and  C_19
REMARK    4  A    between atoms: C_23  and  C_24
REMARK                            x       y       z     vdW  Elec       q    Type
REMARK                         _______ _______ _______ _____ _____    ______ ____
ROOT
ATOM      1  C   UNL     1      10.938   2.844  22.774  0.00  0.00    +0.042 C 
ATOM      2  C   UNL     1       9.485   2.296  22.840  0.00  0.00    +0.069 C 
ATOM      3  C   UNL     1       9.129   1.244  24.037  0.00  0.00    -0.000 C 
ATOM      4  C   UNL     1      10.417   1.042  24.872  0.00  0.00    +0.014 C 
ATOM      5  C   UNL     1       8.638   0.059  23.182  0.00  0.00    +0.001 C 
ATOM      6  C   UNL     1       8.562  -1.215  23.990  0.00  0.00    -0.004 C 
ATOM      7  C   UNL     1       7.106  -1.272  24.747  0.00  0.00    -0.001 C 
ATOM      8  C   UNL     1       7.397  -0.081  25.792  0.00  0.00    +0.005 C 
ATOM      9  C   UNL     1       6.573  -2.936  25.075  0.00  0.00    -0.022 C 
ATOM     10  C   UNL     1       7.025  -3.254  26.517  0.00  0.00    +0.012 C 
ATOM     11  C   UNL     1       7.275  -3.620  23.861  0.00  0.00    +0.001 C 
ATOM     12  C   UNL     1       6.907  -4.736  22.902  0.00  0.00    +0.061 C 
ATOM     13  C   UNL     1       5.497  -5.061  22.982  0.00  0.00    +0.066 A 
ATOM     14  C   UNL     1       4.645  -4.586  23.976  0.00  0.00    -0.006 A 
ATOM     15  C   UNL     1       3.570  -5.463  23.830  0.00  0.00    +0.108 A 
ATOM     16  N   UNL     1       3.790  -6.200  22.691  0.00  0.00    -0.284 N 
ATOM     17  H   UNL     1       3.216  -6.932  22.257  0.00  0.00    +0.188 HD
ATOM     18  N   UNL     1       4.980  -5.965  22.143  0.00  0.00    -0.179 NA
ATOM     19  C   UNL     1       8.778  -3.600  23.963  0.00  0.00    +0.005 C 
ATOM     20  C   UNL     1       5.013  -3.509  25.038  0.00  0.00    +0.045 C 
ATOM     21  C   UNL     1       9.087  -2.380  23.176  0.00  0.00    +0.004 C 
ATOM     22  C   UNL     1       9.400   0.051  21.892  0.00  0.00    +0.007 C 
ATOM     23  C   UNL     1       7.920   1.358  25.085  0.00  0.00    +0.010 C 
ATOM     24  C   UNL     1       9.325   1.518  21.498  0.00  0.00    +0.035 C 
ENDROOT
BRANCH   2  25
ATOM     25  O   UNL     1       8.603   3.411  22.810  0.00  0.00    -0.388 OA
ATOM     26  H   UNL     1       8.936   4.070  23.455  0.00  0.00    +0.210 HD
ENDBRANCH   2  25
TORSDOF 1
ENDMDL
