MODEL 1
REMARK VINA RESULT:      -6.4      0.000      0.000
REMARK  Name = 
REMARK  13 active torsions:
REMARK  status: ('A' for Active; 'I' for Inactive)
REMARK    1  A    between atoms: C_2  and  C_3
REMARK    2  A    between atoms: C_2  and  N_14
REMARK    3  A    between atoms: C_2  and  C_28
REMARK    4  A    between atoms: C_3  and  S_4
REMARK    5  A    between atoms: S_4  and  C_7
REMARK    6  A    between atoms: C_7  and  C_8
REMARK    7  A    between atoms: N_14  and  C_15
REMARK    8  A    between atoms: C_15  and  C_17
REMARK    9  A    between atoms: C_15  and  C_24
REMARK   10  A    between atoms: C_20  and  O_21
REMARK   11  A    between atoms: N_30  and  C_31
REMARK   12  A    between atoms: C_31  and  C_32
REMARK   13  A    between atoms: C_32  and  N_33
REMARK                            x       y       z     vdW  Elec       q    Type
REMARK                         _______ _______ _______ _____ _____    ______ ____
ROOT
ATOM      1  C   UNL     1       5.908  -1.226  25.003  0.00  0.00    +0.162 C 
ENDROOT
BRANCH   1   2
ATOM      2  C   UNL     1       5.838   0.315  24.941  0.00  0.00    +0.232 C 
ATOM      3  N   UNL     1       5.825   0.867  23.678  0.00  0.00    -0.307 N 
ATOM      4  H   UNL     1       6.147   0.316  22.892  0.00  0.00    +0.149 HD
ATOM      5  O   UNL     1       5.800   1.022  25.941  0.00  0.00    -0.274 OA
BRANCH   3   6
ATOM      6  C   UNL     1       5.762   2.310  23.518  0.00  0.00    +0.047 C 
ATOM      7  C   UNL     1       6.599   2.939  22.414  0.00  0.00    +0.029 C 
ATOM      8  C   UNL     1       6.994   3.130  23.844  0.00  0.00    +0.029 C 
BRANCH   6   9
ATOM      9  C   UNL     1       4.397   2.937  23.769  0.00  0.00    +0.103 C 
BRANCH   9  10
ATOM     10  N   UNL     1       4.391   3.593  25.077  0.00  0.00    -0.328 NA
ATOM     11  H   UNL     1       5.291   4.055  25.201  0.00  0.00    +0.118 HD
ATOM     12  H   UNL     1       3.705   4.346  25.043  0.00  0.00    +0.118 HD
ENDBRANCH   9  10
ENDBRANCH   6   9
ENDBRANCH   3   6
ENDBRANCH   1   2
BRANCH   1  13
ATOM     13  N   UNL     1       7.316  -1.598  25.286  0.00  0.00    -0.290 NA
ATOM     14  H   UNL     1       7.313  -2.383  25.956  0.00  0.00    +0.124 HD
BRANCH  13  15
ATOM     15  C   UNL     1       8.124  -2.041  24.103  0.00  0.00    +0.190 C 
BRANCH  15  16
ATOM     16  C   UNL     1       8.810  -0.849  23.445  0.00  0.00    -0.022 A 
ATOM     17  C   UNL     1       8.737  -0.657  22.056  0.00  0.00    +0.009 A 
ATOM     18  C   UNL     1       9.329   0.461  21.464  0.00  0.00    +0.046 A 
ATOM     19  C   UNL     1      10.000   1.387  22.254  0.00  0.00    +0.117 A 
ATOM     20  C   UNL     1      10.109   1.206  23.628  0.00  0.00    +0.046 A 
ATOM     21  C   UNL     1       9.515   0.090  24.220  0.00  0.00    +0.009 A 
BRANCH  19  22
ATOM     22  O   UNL     1      10.538   2.477  21.637  0.00  0.00    -0.507 OA
ATOM     23  H   UNL     1      10.125   2.574  20.763  0.00  0.00    +0.292 HD
ENDBRANCH  19  22
ENDBRANCH  15  16
BRANCH  15  24
ATOM     24  C   UNL     1       9.135  -3.213  24.403  0.00  0.00    +0.409 C 
ATOM     25  F   UNL     1       9.336  -3.432  25.722  0.00  0.00    -0.169 F 
ATOM     26  F   UNL     1      10.346  -2.945  23.855  0.00  0.00    -0.169 F 
ATOM     27  F   UNL     1       8.707  -4.384  23.869  0.00  0.00    -0.169 F 
ENDBRANCH  15  24
ENDBRANCH  13  15
ENDBRANCH   1  13
BRANCH   1  28
ATOM     28  C   UNL     1       4.798  -1.784  25.916  0.00  0.00    +0.194 C 
BRANCH  28  29
ATOM     29  S   UNL     1       4.654  -3.568  25.986  0.00  0.00    -0.025 S 
ATOM     30  O   UNL     1       3.773  -3.951  27.064  0.00  0.00    -0.174 OA
ATOM     31  O   UNL     1       6.009  -4.095  25.881  0.00  0.00    -0.174 OA
BRANCH  29  32
ATOM     32  C   UNL     1       3.783  -3.951  24.469  0.00  0.00    +0.201 C 
BRANCH  32  33
ATOM     33  C   UNL     1       4.786  -4.418  23.441  0.00  0.00    -0.027 A 
ATOM     34  C   UNL     1       5.147  -5.768  23.356  0.00  0.00    +0.005 A 
ATOM     35  C   UNL     1       6.044  -6.199  22.377  0.00  0.00    +0.000 A 
ATOM     36  C   UNL     1       6.583  -5.291  21.468  0.00  0.00    +0.000 A 
ATOM     37  C   UNL     1       6.220  -3.948  21.532  0.00  0.00    +0.000 A 
ATOM     38  C   UNL     1       5.330  -3.513  22.514  0.00  0.00    +0.005 A 
ENDBRANCH  32  33
ENDBRANCH  29  32
ENDBRANCH  28  29
ENDBRANCH   1  28
TORSDOF 13
ENDMDL
MODEL 2
REMARK VINA RESULT:      -6.3      3.543      7.808
REMARK  Name = 
REMARK  13 active torsions:
REMARK  status: ('A' for Active; 'I' for Inactive)
REMARK    1  A    between atoms: C_2  and  C_3
REMARK    2  A    between atoms: C_2  and  N_14
REMARK    3  A    between atoms: C_2  and  C_28
REMARK    4  A    between atoms: C_3  and  S_4
REMARK    5  A    between atoms: S_4  and  C_7
REMARK    6  A    between atoms: C_7  and  C_8
REMARK    7  A    between atoms: N_14  and  C_15
REMARK    8  A    between atoms: C_15  and  C_17
REMARK    9  A    between atoms: C_15  and  C_24
REMARK   10  A    between atoms: C_20  and  O_21
REMARK   11  A    between atoms: N_30  and  C_31
REMARK   12  A    between atoms: C_31  and  C_32
REMARK   13  A    between atoms: C_32  and  N_33
REMARK                            x       y       z     vdW  Elec       q    Type
REMARK                         _______ _______ _______ _____ _____    ______ ____
ROOT
ATOM      1  C   UNL     1       7.484  -4.774  24.922  0.00  0.00    +0.162 C 
ENDROOT
BRANCH   1   2
ATOM      2  C   UNL     1       6.897  -5.245  26.269  0.00  0.00    +0.232 C 
ATOM      3  N   UNL     1       5.587  -4.890  26.513  0.00  0.00    -0.307 N 
ATOM      4  H   UNL     1       5.171  -4.131  25.987  0.00  0.00    +0.149 HD
ATOM      5  O   UNL     1       7.540  -5.890  27.088  0.00  0.00    -0.274 OA
BRANCH   3   6
ATOM      6  C   UNL     1       4.947  -5.287  27.756  0.00  0.00    +0.047 C 
ATOM      7  C   UNL     1       4.055  -4.269  28.451  0.00  0.00    +0.029 C 
ATOM      8  C   UNL     1       5.384  -4.616  29.042  0.00  0.00    +0.029 C 
BRANCH   6   9
ATOM      9  C   UNL     1       4.493  -6.739  27.823  0.00  0.00    +0.103 C 
BRANCH   9  10
ATOM     10  N   UNL     1       5.478  -7.527  28.566  0.00  0.00    -0.328 NA
ATOM     11  H   UNL     1       6.097  -6.879  29.051  0.00  0.00    +0.118 HD
ATOM     12  H   UNL     1       4.982  -8.027  29.303  0.00  0.00    +0.118 HD
ENDBRANCH   9  10
ENDBRANCH   6   9
ENDBRANCH   3   6
ENDBRANCH   1   2
BRANCH   1  13
ATOM     13  N   UNL     1       6.347  -4.523  24.002  0.00  0.00    -0.290 NA
ATOM     14  H   UNL     1       6.629  -3.788  23.335  0.00  0.00    +0.124 HD
BRANCH  13  15
ATOM     15  C   UNL     1       5.896  -5.698  23.187  0.00  0.00    +0.190 C 
BRANCH  15  16
ATOM     16  C   UNL     1       4.434  -6.021  23.476  0.00  0.00    -0.022 A 
ATOM     17  C   UNL     1       4.080  -7.209  24.137  0.00  0.00    +0.009 A 
ATOM     18  C   UNL     1       2.743  -7.479  24.439  0.00  0.00    +0.046 A 
ATOM     19  C   UNL     1       1.756  -6.569  24.078  0.00  0.00    +0.117 A 
ATOM     20  C   UNL     1       2.078  -5.399  23.401  0.00  0.00    +0.046 A 
ATOM     21  C   UNL     1       3.415  -5.127  23.101  0.00  0.00    +0.009 A 
BRANCH  19  22
ATOM     22  O   UNL     1       0.469  -6.861  24.419  0.00  0.00    -0.507 OA
ATOM     23  H   UNL     1       0.455  -7.175  25.338  0.00  0.00    +0.292 HD
ENDBRANCH  19  22
ENDBRANCH  15  16
BRANCH  15  24
ATOM     24  C   UNL     1       6.178  -5.569  21.641  0.00  0.00    +0.409 C 
ATOM     25  F   UNL     1       5.450  -6.419  20.884  0.00  0.00    -0.169 F 
ATOM     26  F   UNL     1       7.485  -5.818  21.376  0.00  0.00    -0.169 F 
ATOM     27  F   UNL     1       5.913  -4.316  21.194  0.00  0.00    -0.169 F 
ENDBRANCH  15  24
ENDBRANCH  13  15
ENDBRANCH   1  13
BRANCH   1  28
ATOM     28  C   UNL     1       8.518  -3.652  25.142  0.00  0.00    +0.194 C 
BRANCH  28  29
ATOM     29  S   UNL     1       8.484  -2.302  23.965  0.00  0.00    -0.025 S 
ATOM     30  O   UNL     1       7.702  -1.208  24.490  0.00  0.00    -0.174 OA
ATOM     31  O   UNL     1       8.196  -2.895  22.666  0.00  0.00    -0.174 OA
BRANCH  29  32
ATOM     32  C   UNL     1      10.185  -1.742  23.961  0.00  0.00    +0.201 C 
BRANCH  32  33
ATOM     33  C   UNL     1      10.218  -0.303  23.503  0.00  0.00    -0.027 A 
ATOM     34  C   UNL     1       9.840   0.041  22.200  0.00  0.00    +0.005 A 
ATOM     35  C   UNL     1       9.835   1.377  21.795  0.00  0.00    +0.000 A 
ATOM     36  C   UNL     1      10.199   2.383  22.687  0.00  0.00    +0.000 A 
ATOM     37  C   UNL     1      10.563   2.056  23.991  0.00  0.00    +0.000 A 
ATOM     38  C   UNL     1      10.575   0.721  24.396  0.00  0.00    +0.005 A 
ENDBRANCH  32  33
ENDBRANCH  29  32
ENDBRANCH  28  29
ENDBRANCH   1  28
TORSDOF 13
ENDMDL
MODEL 3
REMARK VINA RESULT:      -6.1      2.812      6.048
REMARK  Name = 
REMARK  13 active torsions:
REMARK  status: ('A' for Active; 'I' for Inactive)
REMARK    1  A    between atoms: C_2  and  C_3
REMARK    2  A    between atoms: C_2  and  N_14
REMARK    3  A    between atoms: C_2  and  C_28
REMARK    4  A    between atoms: C_3  and  S_4
REMARK    5  A    between atoms: S_4  and  C_7
REMARK    6  A    between atoms: C_7  and  C_8
REMARK    7  A    between atoms: N_14  and  C_15
REMARK    8  A    between atoms: C_15  and  C_17
REMARK    9  A    between atoms: C_15  and  C_24
REMARK   10  A    between atoms: C_20  and  O_21
REMARK   11  A    between atoms: N_30  and  C_31
REMARK   12  A    between atoms: C_31  and  C_32
REMARK   13  A    between atoms: C_32  and  N_33
REMARK                            x       y       z     vdW  Elec       q    Type
REMARK                         _______ _______ _______ _____ _____    ______ ____
ROOT
ATOM      1  C   UNL     1       6.241  -1.249  24.010  0.00  0.00    +0.162 C 
ENDROOT
BRANCH   1   2
ATOM      2  C   UNL     1       5.276  -2.364  24.467  0.00  0.00    +0.232 C 
ATOM      3  N   UNL     1       5.467  -3.601  23.889  0.00  0.00    -0.307 N 
ATOM      4  H   UNL     1       5.988  -3.669  23.024  0.00  0.00    +0.149 HD
ATOM      5  O   UNL     1       4.387  -2.180  25.290  0.00  0.00    -0.274 OA
BRANCH   3   6
ATOM      6  C   UNL     1       4.607  -4.713  24.255  0.00  0.00    +0.047 C 
ATOM      7  C   UNL     1       4.100  -5.616  23.140  0.00  0.00    +0.029 C 
ATOM      8  C   UNL     1       3.154  -4.680  23.822  0.00  0.00    +0.029 C 
BRANCH   6   9
ATOM      9  C   UNL     1       4.945  -5.395  25.573  0.00  0.00    +0.103 C 
BRANCH   9  10
ATOM     10  N   UNL     1       6.397  -5.529  25.698  0.00  0.00    -0.328 NA
ATOM     11  H   UNL     1       6.593  -6.432  26.130  0.00  0.00    +0.118 HD
ATOM     12  H   UNL     1       6.785  -5.593  24.757  0.00  0.00    +0.118 HD
ENDBRANCH   9  10
ENDBRANCH   6   9
ENDBRANCH   3   6
ENDBRANCH   1   2
BRANCH   1  13
ATOM     13  N   UNL     1       5.632   0.050  24.385  0.00  0.00    -0.290 NA
ATOM     14  H   UNL     1       4.872  -0.133  25.058  0.00  0.00    +0.124 HD
BRANCH  13  15
ATOM     15  C   UNL     1       6.554   1.040  25.031  0.00  0.00    +0.190 C 
BRANCH  15  16
ATOM     16  C   UNL     1       6.755   2.253  24.130  0.00  0.00    -0.022 A 
ATOM     17  C   UNL     1       7.376   3.415  24.619  0.00  0.00    +0.009 A 
ATOM     18  C   UNL     1       7.599   4.506  23.776  0.00  0.00    +0.046 A 
ATOM     19  C   UNL     1       7.200   4.445  22.446  0.00  0.00    +0.117 A 
ATOM     20  C   UNL     1       6.561   3.317  21.945  0.00  0.00    +0.046 A 
ATOM     21  C   UNL     1       6.340   2.225  22.786  0.00  0.00    +0.009 A 
BRANCH  19  22
ATOM     22  O   UNL     1       7.464   5.522  21.654  0.00  0.00    -0.507 OA
ATOM     23  H   UNL     1       8.421   5.690  21.666  0.00  0.00    +0.292 HD
ENDBRANCH  19  22
ENDBRANCH  15  16
BRANCH  15  24
ATOM     24  C   UNL     1       6.145   1.455  26.497  0.00  0.00    +0.409 C 
ATOM     25  F   UNL     1       7.182   1.888  27.247  0.00  0.00    -0.169 F 
ATOM     26  F   UNL     1       5.592   0.403  27.150  0.00  0.00    -0.169 F 
ATOM     27  F   UNL     1       5.222   2.449  26.489  0.00  0.00    -0.169 F 
ENDBRANCH  15  24
ENDBRANCH  13  15
ENDBRANCH   1  13
BRANCH   1  28
ATOM     28  C   UNL     1       7.680  -1.553  24.471  0.00  0.00    +0.194 C 
BRANCH  28  29
ATOM     29  S   UNL     1       8.557  -2.813  23.550  0.00  0.00    -0.025 S 
ATOM     30  O   UNL     1       8.096  -2.837  22.181  0.00  0.00    -0.174 OA
ATOM     31  O   UNL     1       8.551  -4.010  24.380  0.00  0.00    -0.174 OA
BRANCH  29  32
ATOM     32  C   UNL     1      10.229  -2.172  23.501  0.00  0.00    +0.201 C 
BRANCH  32  33
ATOM     33  C   UNL     1      10.169  -0.684  23.250  0.00  0.00    -0.027 A 
ATOM     34  C   UNL     1      10.538   0.225  24.249  0.00  0.00    +0.005 A 
ATOM     35  C   UNL     1      10.519   1.598  23.998  0.00  0.00    +0.000 A 
ATOM     36  C   UNL     1      10.139   2.078  22.747  0.00  0.00    +0.000 A 
ATOM     37  C   UNL     1       9.784   1.184  21.740  0.00  0.00    +0.000 A 
ATOM     38  C   UNL     1       9.796  -0.188  21.990  0.00  0.00    +0.005 A 
ENDBRANCH  32  33
ENDBRANCH  29  32
ENDBRANCH  28  29
ENDBRANCH   1  28
TORSDOF 13
ENDMDL
MODEL 4
REMARK VINA RESULT:      -6.1      2.728      6.300
REMARK  Name = 
REMARK  13 active torsions:
REMARK  status: ('A' for Active; 'I' for Inactive)
REMARK    1  A    between atoms: C_2  and  C_3
REMARK    2  A    between atoms: C_2  and  N_14
REMARK    3  A    between atoms: C_2  and  C_28
REMARK    4  A    between atoms: C_3  and  S_4
REMARK    5  A    between atoms: S_4  and  C_7
REMARK    6  A    between atoms: C_7  and  C_8
REMARK    7  A    between atoms: N_14  and  C_15
REMARK    8  A    between atoms: C_15  and  C_17
REMARK    9  A    between atoms: C_15  and  C_24
REMARK   10  A    between atoms: C_20  and  O_21
REMARK   11  A    between atoms: N_30  and  C_31
REMARK   12  A    between atoms: C_31  and  C_32
REMARK   13  A    between atoms: C_32  and  N_33
REMARK                            x       y       z     vdW  Elec       q    Type
REMARK                         _______ _______ _______ _____ _____    ______ ____
ROOT
ATOM      1  C   UNL     1       7.238  -1.918  23.318  0.00  0.00    +0.162 C 
ENDROOT
BRANCH   1   2
ATOM      2  C   UNL     1       6.402  -1.075  24.305  0.00  0.00    +0.232 C 
ATOM      3  N   UNL     1       6.995   0.083  24.761  0.00  0.00    -0.307 N 
ATOM      4  H   UNL     1       8.000   0.189  24.687  0.00  0.00    +0.149 HD
ATOM      5  O   UNL     1       5.281  -1.400  24.677  0.00  0.00    -0.274 OA
BRANCH   3   6
ATOM      6  C   UNL     1       6.287   0.942  25.694  0.00  0.00    +0.047 C 
ATOM      7  C   UNL     1       7.101   1.638  26.775  0.00  0.00    +0.029 C 
ATOM      8  C   UNL     1       6.190   0.511  27.145  0.00  0.00    +0.029 C 
BRANCH   6   9
ATOM      9  C   UNL     1       5.130   1.736  25.104  0.00  0.00    +0.103 C 
BRANCH   9  10
ATOM     10  N   UNL     1       3.873   1.298  25.712  0.00  0.00    -0.328 NA
ATOM     11  H   UNL     1       3.567   2.024  26.359  0.00  0.00    +0.118 HD
ATOM     12  H   UNL     1       3.165   1.278  24.978  0.00  0.00    +0.118 HD
ENDBRANCH   9  10
ENDBRANCH   6   9
ENDBRANCH   3   6
ENDBRANCH   1   2
BRANCH   1  13
ATOM     13  N   UNL     1       6.339  -2.942  22.733  0.00  0.00    -0.290 NA
ATOM     14  H   UNL     1       6.173  -2.697  21.744  0.00  0.00    +0.124 HD
BRANCH  13  15
ATOM     15  C   UNL     1       6.854  -4.350  22.750  0.00  0.00    +0.190 C 
BRANCH  15  16
ATOM     16  C   UNL     1       7.011  -4.846  24.183  0.00  0.00    -0.022 A 
ATOM     17  C   UNL     1       8.282  -4.951  24.771  0.00  0.00    +0.009 A 
ATOM     18  C   UNL     1       8.417  -5.362  26.099  0.00  0.00    +0.046 A 
ATOM     19  C   UNL     1       7.285  -5.676  26.843  0.00  0.00    +0.117 A 
ATOM     20  C   UNL     1       6.018  -5.605  26.277  0.00  0.00    +0.046 A 
ATOM     21  C   UNL     1       5.883  -5.190  24.950  0.00  0.00    +0.009 A 
BRANCH  19  22
ATOM     22  O   UNL     1       7.463  -6.045  28.143  0.00  0.00    -0.507 OA
ATOM     23  H   UNL     1       6.874  -6.793  28.336  0.00  0.00    +0.292 HD
ENDBRANCH  19  22
ENDBRANCH  15  16
BRANCH  15  24
ATOM     24  C   UNL     1       6.030  -5.360  21.863  0.00  0.00    +0.409 C 
ATOM     25  F   UNL     1       4.717  -5.412  22.177  0.00  0.00    -0.169 F 
ATOM     26  F   UNL     1       6.522  -6.617  21.996  0.00  0.00    -0.169 F 
ATOM     27  F   UNL     1       6.108  -5.038  20.547  0.00  0.00    -0.169 F 
ENDBRANCH  15  24
ENDBRANCH  13  15
ENDBRANCH   1  13
BRANCH   1  28
ATOM     28  C   UNL     1       8.038  -1.006  22.367  0.00  0.00    +0.194 C 
BRANCH  28  29
ATOM     29  S   UNL     1       9.760  -0.746  22.783  0.00  0.00    -0.025 S 
ATOM     30  O   UNL     1      10.581  -1.748  22.145  0.00  0.00    -0.174 OA
ATOM     31  O   UNL     1       9.807  -0.522  24.222  0.00  0.00    -0.174 OA
BRANCH  29  32
ATOM     32  C   UNL     1      10.134   0.801  21.962  0.00  0.00    +0.201 C 
BRANCH  32  33
ATOM     33  C   UNL     1       9.306   1.895  22.593  0.00  0.00    -0.027 A 
ATOM     34  C   UNL     1       9.739   2.537  23.760  0.00  0.00    +0.005 A 
ATOM     35  C   UNL     1       8.990   3.575  24.316  0.00  0.00    +0.000 A 
ATOM     36  C   UNL     1       7.805   3.989  23.710  0.00  0.00    +0.000 A 
ATOM     37  C   UNL     1       7.370   3.369  22.541  0.00  0.00    +0.000 A 
ATOM     38  C   UNL     1       8.114   2.327  21.987  0.00  0.00    +0.005 A 
ENDBRANCH  32  33
ENDBRANCH  29  32
ENDBRANCH  28  29
ENDBRANCH   1  28
TORSDOF 13
ENDMDL
MODEL 5
REMARK VINA RESULT:      -6.1      2.485      6.279
REMARK  Name = 
REMARK  13 active torsions:
REMARK  status: ('A' for Active; 'I' for Inactive)
REMARK    1  A    between atoms: C_2  and  C_3
REMARK    2  A    between atoms: C_2  and  N_14
REMARK    3  A    between atoms: C_2  and  C_28
REMARK    4  A    between atoms: C_3  and  S_4
REMARK    5  A    between atoms: S_4  and  C_7
REMARK    6  A    between atoms: C_7  and  C_8
REMARK    7  A    between atoms: N_14  and  C_15
REMARK    8  A    between atoms: C_15  and  C_17
REMARK    9  A    between atoms: C_15  and  C_24
REMARK   10  A    between atoms: C_20  and  O_21
REMARK   11  A    between atoms: N_30  and  C_31
REMARK   12  A    between atoms: C_31  and  C_32
REMARK   13  A    between atoms: C_32  and  N_33
REMARK                            x       y       z     vdW  Elec       q    Type
REMARK                         _______ _______ _______ _____ _____    ______ ____
ROOT
ATOM      1  C   UNL     1       8.537  -1.592  25.328  0.00  0.00    +0.162 C 
ENDROOT
BRANCH   1   2
ATOM      2  C   UNL     1       7.522  -0.635  25.988  0.00  0.00    +0.232 C 
ATOM      3  N   UNL     1       7.561   0.674  25.559  0.00  0.00    -0.307 N 
ATOM      4  H   UNL     1       8.388   1.018  25.087  0.00  0.00    +0.149 HD
ATOM      5  O   UNL     1       6.725  -0.996  26.846  0.00  0.00    -0.274 OA
BRANCH   3   6
ATOM      6  C   UNL     1       6.644   1.650  26.123  0.00  0.00    +0.047 C 
ATOM      7  C   UNL     1       7.227   2.962  26.628  0.00  0.00    +0.029 C 
ATOM      8  C   UNL     1       6.727   1.949  27.607  0.00  0.00    +0.029 C 
BRANCH   6   9
ATOM      9  C   UNL     1       5.280   1.732  25.451  0.00  0.00    +0.103 C 
BRANCH   9  10
ATOM     10  N   UNL     1       5.371   1.205  24.089  0.00  0.00    -0.328 NA
ATOM     11  H   UNL     1       5.205   1.975  23.442  0.00  0.00    +0.118 HD
ATOM     12  H   UNL     1       6.338   0.925  23.929  0.00  0.00    +0.118 HD
ENDBRANCH   9  10
ENDBRANCH   6   9
ENDBRANCH   3   6
ENDBRANCH   1   2
BRANCH   1  13
ATOM     13  N   UNL     1       7.779  -2.749  24.794  0.00  0.00    -0.290 NA
ATOM     14  H   UNL     1       8.147  -2.968  23.854  0.00  0.00    +0.124 HD
BRANCH  13  15
ATOM     15  C   UNL     1       7.862  -4.011  25.598  0.00  0.00    +0.190 C 
BRANCH  15  16
ATOM     16  C   UNL     1       6.740  -4.968  25.210  0.00  0.00    -0.022 A 
ATOM     17  C   UNL     1       6.396  -5.161  23.862  0.00  0.00    +0.009 A 
ATOM     18  C   UNL     1       5.398  -6.073  23.510  0.00  0.00    +0.046 A 
ATOM     19  C   UNL     1       4.738  -6.791  24.500  0.00  0.00    +0.117 A 
ATOM     20  C   UNL     1       5.042  -6.599  25.842  0.00  0.00    +0.046 A 
ATOM     21  C   UNL     1       6.041  -5.690  26.195  0.00  0.00    +0.009 A 
BRANCH  19  22
ATOM     22  O   UNL     1       3.792  -7.690  24.108  0.00  0.00    -0.507 OA
ATOM     23  H   UNL     1       4.238  -8.459  23.714  0.00  0.00    +0.292 HD
ENDBRANCH  19  22
ENDBRANCH  15  16
BRANCH  15  24
ATOM     24  C   UNL     1       9.274  -4.714  25.569  0.00  0.00    +0.409 C 
ATOM     25  F   UNL     1      10.149  -4.138  24.716  0.00  0.00    -0.169 F 
ATOM     26  F   UNL     1       9.149  -6.012  25.196  0.00  0.00    -0.169 F 
ATOM     27  F   UNL     1       9.854  -4.705  26.795  0.00  0.00    -0.169 F 
ENDBRANCH  15  24
ENDBRANCH  13  15
ENDBRANCH   1  13
BRANCH   1  28
ATOM     28  C   UNL     1       9.474  -0.819  24.378  0.00  0.00    +0.194 C 
BRANCH  28  29
ATOM     29  S   UNL     1       9.005  -0.796  22.650  0.00  0.00    -0.025 S 
ATOM     30  O   UNL     1       7.628  -0.383  22.516  0.00  0.00    -0.174 OA
ATOM     31  O   UNL     1       9.489  -2.045  22.075  0.00  0.00    -0.174 OA
BRANCH  29  32
ATOM     32  C   UNL     1       9.994   0.544  21.993  0.00  0.00    +0.201 C 
BRANCH  32  33
ATOM     33  C   UNL     1       9.387   1.854  22.436  0.00  0.00    -0.027 A 
ATOM     34  C   UNL     1       8.196   2.320  21.867  0.00  0.00    +0.005 A 
ATOM     35  C   UNL     1       7.619   3.511  22.309  0.00  0.00    +0.000 A 
ATOM     36  C   UNL     1       8.220   4.247  23.329  0.00  0.00    +0.000 A 
ATOM     37  C   UNL     1       9.397   3.788  23.914  0.00  0.00    +0.000 A 
ATOM     38  C   UNL     1       9.980   2.601  23.469  0.00  0.00    +0.005 A 
ENDBRANCH  32  33
ENDBRANCH  29  32
ENDBRANCH  28  29
ENDBRANCH   1  28
TORSDOF 13
ENDMDL
MODEL 6
REMARK VINA RESULT:      -6.1      2.589      3.291
REMARK  Name = 
REMARK  13 active torsions:
REMARK  status: ('A' for Active; 'I' for Inactive)
REMARK    1  A    between atoms: C_2  and  C_3
REMARK    2  A    between atoms: C_2  and  N_14
REMARK    3  A    between atoms: C_2  and  C_28
REMARK    4  A    between atoms: C_3  and  S_4
REMARK    5  A    between atoms: S_4  and  C_7
REMARK    6  A    between atoms: C_7  and  C_8
REMARK    7  A    between atoms: N_14  and  C_15
REMARK    8  A    between atoms: C_15  and  C_17
REMARK    9  A    between atoms: C_15  and  C_24
REMARK   10  A    between atoms: C_20  and  O_21
REMARK   11  A    between atoms: N_30  and  C_31
REMARK   12  A    between atoms: C_31  and  C_32
REMARK   13  A    between atoms: C_32  and  N_33
REMARK                            x       y       z     vdW  Elec       q    Type
REMARK                         _______ _______ _______ _____ _____    ______ ____
ROOT
ATOM      1  C   UNL     1       8.242  -1.589  25.529  0.00  0.00    +0.162 C 
ENDROOT
BRANCH   1   2
ATOM      2  C   UNL     1       7.767  -0.434  26.436  0.00  0.00    +0.232 C 
ATOM      3  N   UNL     1       6.750   0.348  25.933  0.00  0.00    -0.307 N 
ATOM      4  H   UNL     1       6.563   0.341  24.938  0.00  0.00    +0.149 HD
ATOM      5  O   UNL     1       8.255  -0.207  27.537  0.00  0.00    -0.274 OA
BRANCH   3   6
ATOM      6  C   UNL     1       6.236   1.461  26.714  0.00  0.00    +0.047 C 
ATOM      7  C   UNL     1       5.861   2.735  25.972  0.00  0.00    +0.029 C 
ATOM      8  C   UNL     1       7.082   2.713  26.835  0.00  0.00    +0.029 C 
BRANCH   6   9
ATOM      9  C   UNL     1       5.349   1.080  27.891  0.00  0.00    +0.103 C 
BRANCH   9  10
ATOM     10  N   UNL     1       6.099   1.223  29.139  0.00  0.00    -0.328 NA
ATOM     11  H   UNL     1       5.461   1.582  29.849  0.00  0.00    +0.118 HD
ATOM     12  H   UNL     1       6.355   0.289  29.456  0.00  0.00    +0.118 HD
ENDBRANCH   9  10
ENDBRANCH   6   9
ENDBRANCH   3   6
ENDBRANCH   1   2
BRANCH   1  13
ATOM     13  N   UNL     1       9.263  -1.040  24.604  0.00  0.00    -0.290 NA
ATOM     14  H   UNL     1       9.947  -1.786  24.401  0.00  0.00    +0.124 HD
BRANCH  13  15
ATOM     15  C   UNL     1       8.751  -0.551  23.283  0.00  0.00    +0.190 C 
BRANCH  15  16
ATOM     16  C   UNL     1       8.706   0.973  23.257  0.00  0.00    -0.022 A 
ATOM     17  C   UNL     1       9.713   1.731  23.876  0.00  0.00    +0.009 A 
ATOM     18  C   UNL     1       9.690   3.126  23.810  0.00  0.00    +0.046 A 
ATOM     19  C   UNL     1       8.661   3.769  23.132  0.00  0.00    +0.117 A 
ATOM     20  C   UNL     1       7.639   3.043  22.534  0.00  0.00    +0.046 A 
ATOM     21  C   UNL     1       7.663   1.648  22.597  0.00  0.00    +0.009 A 
BRANCH  19  22
ATOM     22  O   UNL     1       8.696   5.130  23.069  0.00  0.00    -0.507 OA
ATOM     23  H   UNL     1       8.380   5.488  23.916  0.00  0.00    +0.292 HD
ENDBRANCH  19  22
ENDBRANCH  15  16
BRANCH  15  24
ATOM     24  C   UNL     1       9.505  -1.141  22.029  0.00  0.00    +0.409 C 
ATOM     25  F   UNL     1      10.761  -1.558  22.299  0.00  0.00    -0.169 F 
ATOM     26  F   UNL     1       9.596  -0.207  21.050  0.00  0.00    -0.169 F 
ATOM     27  F   UNL     1       8.840  -2.201  21.508  0.00  0.00    -0.169 F 
ENDBRANCH  15  24
ENDBRANCH  13  15
ENDBRANCH   1  13
BRANCH   1  28
ATOM     28  C   UNL     1       8.598  -2.831  26.371  0.00  0.00    +0.194 C 
BRANCH  28  29
ATOM     29  S   UNL     1       9.044  -4.305  25.457  0.00  0.00    -0.025 S 
ATOM     30  O   UNL     1       9.811  -5.195  26.297  0.00  0.00    -0.174 OA
ATOM     31  O   UNL     1       9.542  -3.854  24.164  0.00  0.00    -0.174 OA
BRANCH  29  32
ATOM     32  C   UNL     1       7.461  -5.102  25.202  0.00  0.00    +0.201 C 
BRANCH  32  33
ATOM     33  C   UNL     1       7.013  -4.844  23.783  0.00  0.00    -0.027 A 
ATOM     34  C   UNL     1       7.323  -5.748  22.760  0.00  0.00    +0.005 A 
ATOM     35  C   UNL     1       6.871  -5.525  21.458  0.00  0.00    +0.000 A 
ATOM     36  C   UNL     1       6.100  -4.402  21.165  0.00  0.00    +0.000 A 
ATOM     37  C   UNL     1       5.772  -3.503  22.176  0.00  0.00    +0.000 A 
ATOM     38  C   UNL     1       6.227  -3.720  23.477  0.00  0.00    +0.005 A 
ENDBRANCH  32  33
ENDBRANCH  29  32
ENDBRANCH  28  29
ENDBRANCH   1  28
TORSDOF 13
ENDMDL
MODEL 7
REMARK VINA RESULT:      -6.0      2.501      6.446
REMARK  Name = 
REMARK  13 active torsions:
REMARK  status: ('A' for Active; 'I' for Inactive)
REMARK    1  A    between atoms: C_2  and  C_3
REMARK    2  A    between atoms: C_2  and  N_14
REMARK    3  A    between atoms: C_2  and  C_28
REMARK    4  A    between atoms: C_3  and  S_4
REMARK    5  A    between atoms: S_4  and  C_7
REMARK    6  A    between atoms: C_7  and  C_8
REMARK    7  A    between atoms: N_14  and  C_15
REMARK    8  A    between atoms: C_15  and  C_17
REMARK    9  A    between atoms: C_15  and  C_24
REMARK   10  A    between atoms: C_20  and  O_21
REMARK   11  A    between atoms: N_30  and  C_31
REMARK   12  A    between atoms: C_31  and  C_32
REMARK   13  A    between atoms: C_32  and  N_33
REMARK                            x       y       z     vdW  Elec       q    Type
REMARK                         _______ _______ _______ _____ _____    ______ ____
ROOT
ATOM      1  C   UNL     1       7.300  -1.809  24.290  0.00  0.00    +0.162 C 
ENDROOT
BRANCH   1   2
ATOM      2  C   UNL     1       6.421  -0.659  24.827  0.00  0.00    +0.232 C 
ATOM      3  N   UNL     1       7.059   0.547  25.022  0.00  0.00    -0.307 N 
ATOM      4  H   UNL     1       8.069   0.569  25.097  0.00  0.00    +0.149 HD
ATOM      5  O   UNL     1       5.228  -0.791  25.074  0.00  0.00    -0.274 OA
BRANCH   3   6
ATOM      6  C   UNL     1       6.314   1.689  25.525  0.00  0.00    +0.047 C 
ATOM      7  C   UNL     1       7.068   2.716  26.358  0.00  0.00    +0.029 C 
ATOM      8  C   UNL     1       6.086   1.803  27.019  0.00  0.00    +0.029 C 
BRANCH   6   9
ATOM      9  C   UNL     1       5.241   2.233  24.593  0.00  0.00    +0.103 C 
BRANCH   9  10
ATOM     10  N   UNL     1       3.917   1.936  25.140  0.00  0.00    -0.328 NA
ATOM     11  H   UNL     1       3.312   1.661  24.367  0.00  0.00    +0.118 HD
ATOM     12  H   UNL     1       4.002   1.103  25.722  0.00  0.00    +0.118 HD
ENDBRANCH   9  10
ENDBRANCH   6   9
ENDBRANCH   3   6
ENDBRANCH   1   2
BRANCH   1  13
ATOM     13  N   UNL     1       6.474  -3.041  24.291  0.00  0.00    -0.290 NA
ATOM     14  H   UNL     1       6.537  -3.470  23.354  0.00  0.00    +0.124 HD
BRANCH  13  15
ATOM     15  C   UNL     1       6.875  -4.094  25.279  0.00  0.00    +0.190 C 
BRANCH  15  16
ATOM     16  C   UNL     1       5.841  -5.215  25.316  0.00  0.00    -0.022 A 
ATOM     17  C   UNL     1       5.340  -5.767  24.125  0.00  0.00    +0.009 A 
ATOM     18  C   UNL     1       4.427  -6.824  24.165  0.00  0.00    +0.046 A 
ATOM     19  C   UNL     1       4.008  -7.329  25.391  0.00  0.00    +0.117 A 
ATOM     20  C   UNL     1       4.469  -6.783  26.582  0.00  0.00    +0.046 A 
ATOM     21  C   UNL     1       5.384  -5.728  26.543  0.00  0.00    +0.009 A 
BRANCH  19  22
ATOM     22  O   UNL     1       3.139  -8.379  25.380  0.00  0.00    -0.507 OA
ATOM     23  H   UNL     1       3.612  -9.177  25.672  0.00  0.00    +0.292 HD
ENDBRANCH  19  22
ENDBRANCH  15  16
BRANCH  15  24
ATOM     24  C   UNL     1       8.339  -4.648  25.089  0.00  0.00    +0.409 C 
ATOM     25  F   UNL     1       8.657  -4.909  23.802  0.00  0.00    -0.169 F 
ATOM     26  F   UNL     1       8.503  -5.802  25.782  0.00  0.00    -0.169 F 
ATOM     27  F   UNL     1       9.263  -3.770  25.553  0.00  0.00    -0.169 F 
ENDBRANCH  15  24
ENDBRANCH  13  15
ENDBRANCH   1  13
BRANCH   1  28
ATOM     28  C   UNL     1       8.004  -1.391  22.984  0.00  0.00    +0.194 C 
BRANCH  28  29
ATOM     29  S   UNL     1       9.765  -1.086  23.097  0.00  0.00    -0.025 S 
ATOM     30  O   UNL     1      10.498  -2.254  22.670  0.00  0.00    -0.174 OA
ATOM     31  O   UNL     1       9.995  -0.472  24.399  0.00  0.00    -0.174 OA
BRANCH  29  32
ATOM     32  C   UNL     1      10.030   0.157  21.836  0.00  0.00    +0.201 C 
BRANCH  32  33
ATOM     33  C   UNL     1       9.414   1.456  22.300  0.00  0.00    -0.027 A 
ATOM     34  C   UNL     1      10.078   2.271  23.226  0.00  0.00    +0.005 A 
ATOM     35  C   UNL     1       9.522   3.490  23.620  0.00  0.00    +0.000 A 
ATOM     36  C   UNL     1       8.304   3.911  23.091  0.00  0.00    +0.000 A 
ATOM     37  C   UNL     1       7.641   3.116  22.159  0.00  0.00    +0.000 A 
ATOM     38  C   UNL     1       8.190   1.895  21.768  0.00  0.00    +0.005 A 
ENDBRANCH  32  33
ENDBRANCH  29  32
ENDBRANCH  28  29
ENDBRANCH   1  28
TORSDOF 13
ENDMDL
MODEL 8
REMARK VINA RESULT:      -5.8      2.452      6.678
REMARK  Name = 
REMARK  13 active torsions:
REMARK  status: ('A' for Active; 'I' for Inactive)
REMARK    1  A    between atoms: C_2  and  C_3
REMARK    2  A    between atoms: C_2  and  N_14
REMARK    3  A    between atoms: C_2  and  C_28
REMARK    4  A    between atoms: C_3  and  S_4
REMARK    5  A    between atoms: S_4  and  C_7
REMARK    6  A    between atoms: C_7  and  C_8
REMARK    7  A    between atoms: N_14  and  C_15
REMARK    8  A    between atoms: C_15  and  C_17
REMARK    9  A    between atoms: C_15  and  C_24
REMARK   10  A    between atoms: C_20  and  O_21
REMARK   11  A    between atoms: N_30  and  C_31
REMARK   12  A    between atoms: C_31  and  C_32
REMARK   13  A    between atoms: C_32  and  N_33
REMARK                            x       y       z     vdW  Elec       q    Type
REMARK                         _______ _______ _______ _____ _____    ______ ____
ROOT
ATOM      1  C   UNL     1       7.817  -1.527  24.848  0.00  0.00    +0.162 C 
ENDROOT
BRANCH   1   2
ATOM      2  C   UNL     1       6.369  -1.304  25.333  0.00  0.00    +0.232 C 
ATOM      3  N   UNL     1       6.130  -1.578  26.662  0.00  0.00    -0.307 N 
ATOM      4  H   UNL     1       6.779  -2.165  27.173  0.00  0.00    +0.149 HD
ATOM      5  O   UNL     1       5.472  -0.911  24.597  0.00  0.00    -0.274 OA
BRANCH   3   6
ATOM      6  C   UNL     1       4.797  -1.400  27.212  0.00  0.00    +0.047 C 
ATOM      7  C   UNL     1       4.266  -2.475  28.149  0.00  0.00    +0.029 C 
ATOM      8  C   UNL     1       3.699  -2.348  26.772  0.00  0.00    +0.029 C 
BRANCH   6   9
ATOM      9  C   UNL     1       4.413   0.035  27.545  0.00  0.00    +0.103 C 
BRANCH   9  10
ATOM     10  N   UNL     1       3.563   0.576  26.484  0.00  0.00    -0.328 NA
ATOM     11  H   UNL     1       4.087   1.306  26.003  0.00  0.00    +0.118 HD
ATOM     12  H   UNL     1       3.428  -0.159  25.790  0.00  0.00    +0.118 HD
ENDBRANCH   9  10
ENDBRANCH   6   9
ENDBRANCH   3   6
ENDBRANCH   1   2
BRANCH   1  13
ATOM     13  N   UNL     1       7.890  -2.892  24.272  0.00  0.00    -0.290 NA
ATOM     14  H   UNL     1       8.774  -2.971  23.744  0.00  0.00    +0.124 HD
BRANCH  13  15
ATOM     15  C   UNL     1       7.874  -4.018  25.261  0.00  0.00    +0.190 C 
BRANCH  15  16
ATOM     16  C   UNL     1       6.773  -5.016  24.918  0.00  0.00    -0.022 A 
ATOM     17  C   UNL     1       6.049  -5.662  25.934  0.00  0.00    +0.009 A 
ATOM     18  C   UNL     1       5.012  -6.541  25.614  0.00  0.00    +0.046 A 
ATOM     19  C   UNL     1       4.697  -6.783  24.282  0.00  0.00    +0.117 A 
ATOM     20  C   UNL     1       5.416  -6.177  23.259  0.00  0.00    +0.046 A 
ATOM     21  C   UNL     1       6.451  -5.296  23.578  0.00  0.00    +0.009 A 
BRANCH  19  22
ATOM     22  O   UNL     1       3.659  -7.626  24.018  0.00  0.00    -0.507 OA
ATOM     23  H   UNL     1       2.826  -7.158  24.197  0.00  0.00    +0.292 HD
ENDBRANCH  19  22
ENDBRANCH  15  16
BRANCH  15  24
ATOM     24  C   UNL     1       9.268  -4.725  25.471  0.00  0.00    +0.409 C 
ATOM     25  F   UNL     1      10.274  -4.161  24.768  0.00  0.00    -0.169 F 
ATOM     26  F   UNL     1       9.200  -6.027  25.095  0.00  0.00    -0.169 F 
ATOM     27  F   UNL     1       9.639  -4.707  26.776  0.00  0.00    -0.169 F 
ENDBRANCH  15  24
ENDBRANCH  13  15
ENDBRANCH   1  13
BRANCH   1  28
ATOM     28  C   UNL     1       8.293  -0.336  23.991  0.00  0.00    +0.194 C 
BRANCH  28  29
ATOM     29  S   UNL     1       9.984  -0.407  23.407  0.00  0.00    -0.025 S 
ATOM     30  O   UNL     1      10.268  -1.718  22.870  0.00  0.00    -0.174 OA
ATOM     31  O   UNL     1      10.807   0.185  24.453  0.00  0.00    -0.174 OA
BRANCH  29  32
ATOM     32  C   UNL     1       9.964   0.710  22.008  0.00  0.00    +0.201 C 
BRANCH  32  33
ATOM     33  C   UNL     1       9.208   1.958  22.398  0.00  0.00    -0.027 A 
ATOM     34  C   UNL     1       9.757   2.872  23.305  0.00  0.00    +0.005 A 
ATOM     35  C   UNL     1       9.071   4.044  23.630  0.00  0.00    +0.000 A 
ATOM     36  C   UNL     1       7.836   4.320  23.048  0.00  0.00    +0.000 A 
ATOM     37  C   UNL     1       7.286   3.426  22.133  0.00  0.00    +0.000 A 
ATOM     38  C   UNL     1       7.965   2.251  21.811  0.00  0.00    +0.005 A 
ENDBRANCH  32  33
ENDBRANCH  29  32
ENDBRANCH  28  29
ENDBRANCH   1  28
TORSDOF 13
ENDMDL
MODEL 9
REMARK VINA RESULT:      -5.7      2.704      5.826
REMARK  Name = 
REMARK  13 active torsions:
REMARK  status: ('A' for Active; 'I' for Inactive)
REMARK    1  A    between atoms: C_2  and  C_3
REMARK    2  A    between atoms: C_2  and  N_14
REMARK    3  A    between atoms: C_2  and  C_28
REMARK    4  A    between atoms: C_3  and  S_4
REMARK    5  A    between atoms: S_4  and  C_7
REMARK    6  A    between atoms: C_7  and  C_8
REMARK    7  A    between atoms: N_14  and  C_15
REMARK    8  A    between atoms: C_15  and  C_17
REMARK    9  A    between atoms: C_15  and  C_24
REMARK   10  A    between atoms: C_20  and  O_21
REMARK   11  A    between atoms: N_30  and  C_31
REMARK   12  A    between atoms: C_31  and  C_32
REMARK   13  A    between atoms: C_32  and  N_33
REMARK                            x       y       z     vdW  Elec       q    Type
REMARK                         _______ _______ _______ _____ _____    ______ ____
ROOT
ATOM      1  C   UNL     1       8.480  -1.651  25.233  0.00  0.00    +0.162 C 
ENDROOT
BRANCH   1   2
ATOM      2  C   UNL     1       7.442  -0.911  26.103  0.00  0.00    +0.232 C 
ATOM      3  N   UNL     1       6.398  -0.319  25.424  0.00  0.00    -0.307 N 
ATOM      4  H   UNL     1       6.492  -0.133  24.433  0.00  0.00    +0.149 HD
ATOM      5  O   UNL     1       7.525  -0.838  27.324  0.00  0.00    -0.274 OA
BRANCH   3   6
ATOM      6  C   UNL     1       5.372   0.403  26.157  0.00  0.00    +0.047 C 
ATOM      7  C   UNL     1       4.897   1.733  25.590  0.00  0.00    +0.029 C 
ATOM      8  C   UNL     1       5.743   1.713  26.824  0.00  0.00    +0.029 C 
BRANCH   6   9
ATOM      9  C   UNL     1       4.311  -0.464  26.822  0.00  0.00    +0.103 C 
BRANCH   9  10
ATOM     10  N   UNL     1       4.031  -1.629  25.981  0.00  0.00    -0.328 NA
ATOM     11  H   UNL     1       3.019  -1.723  25.903  0.00  0.00    +0.118 HD
ATOM     12  H   UNL     1       4.353  -1.415  25.038  0.00  0.00    +0.118 HD
ENDBRANCH   9  10
ENDBRANCH   6   9
ENDBRANCH   3   6
ENDBRANCH   1   2
BRANCH   1  13
ATOM     13  N   UNL     1       8.495  -3.069  25.666  0.00  0.00    -0.290 NA
ATOM     14  H   UNL     1       8.868  -3.108  26.628  0.00  0.00    +0.124 HD
BRANCH  13  15
ATOM     15  C   UNL     1       7.165  -3.759  25.689  0.00  0.00    +0.190 C 
BRANCH  15  16
ATOM     16  C   UNL     1       6.826  -4.317  24.311  0.00  0.00    -0.022 A 
ATOM     17  C   UNL     1       5.599  -4.015  23.697  0.00  0.00    +0.009 A 
ATOM     18  C   UNL     1       5.313  -4.492  22.415  0.00  0.00    +0.046 A 
ATOM     19  C   UNL     1       6.246  -5.274  21.745  0.00  0.00    +0.117 A 
ATOM     20  C   UNL     1       7.456  -5.608  22.341  0.00  0.00    +0.046 A 
ATOM     21  C   UNL     1       7.744  -5.130  23.621  0.00  0.00    +0.009 A 
BRANCH  19  22
ATOM     22  O   UNL     1       5.935  -5.693  20.486  0.00  0.00    -0.507 OA
ATOM     23  H   UNL     1       5.780  -4.912  19.928  0.00  0.00    +0.292 HD
ENDBRANCH  19  22
ENDBRANCH  15  16
BRANCH  15  24
ATOM     24  C   UNL     1       7.010  -4.847  26.820  0.00  0.00    +0.409 C 
ATOM     25  F   UNL     1       6.425  -4.380  27.945  0.00  0.00    -0.169 F 
ATOM     26  F   UNL     1       8.224  -5.336  27.176  0.00  0.00    -0.169 F 
ATOM     27  F   UNL     1       6.266  -5.898  26.396  0.00  0.00    -0.169 F 
ENDBRANCH  15  24
ENDBRANCH  13  15
ENDBRANCH   1  13
BRANCH   1  28
ATOM     28  C   UNL     1       8.261  -1.335  23.740  0.00  0.00    +0.194 C 
BRANCH  28  29
ATOM     29  S   UNL     1       9.709  -1.432  22.691  0.00  0.00    -0.025 S 
ATOM     30  O   UNL     1       9.328  -1.283  21.306  0.00  0.00    -0.174 OA
ATOM     31  O   UNL     1      10.478  -2.580  23.154  0.00  0.00    -0.174 OA
BRANCH  29  32
ATOM     32  C   UNL     1      10.607   0.055  23.123  0.00  0.00    +0.201 C 
BRANCH  32  33
ATOM     33  C   UNL     1       9.624   1.195  23.244  0.00  0.00    -0.027 A 
ATOM     34  C   UNL     1       9.390   1.810  24.480  0.00  0.00    +0.005 A 
ATOM     35  C   UNL     1       8.511   2.890  24.578  0.00  0.00    +0.000 A 
ATOM     36  C   UNL     1       7.862   3.372  23.443  0.00  0.00    +0.000 A 
ATOM     37  C   UNL     1       8.096   2.779  22.205  0.00  0.00    +0.000 A 
ATOM     38  C   UNL     1       8.970   1.696  22.105  0.00  0.00    +0.005 A 
ENDBRANCH  32  33
ENDBRANCH  29  32
ENDBRANCH  28  29
ENDBRANCH   1  28
TORSDOF 13
ENDMDL
