MODEL 1
REMARK VINA RESULT:      -7.7      0.000      0.000
REMARK  Name = 
REMARK  5 active torsions:
REMARK  status: ('A' for Active; 'I' for Inactive)
REMARK    1  A    between atoms: N_1  and  C_2
REMARK    2  A    between atoms: C_2  and  C_3
REMARK    3  A    between atoms: C_3  and  C_4
REMARK    4  A    between atoms: C_4  and  C_5
REMARK    5  A    between atoms: N_14  and  C_17
REMARK                            x       y       z     vdW  Elec       q    Type
REMARK                         _______ _______ _______ _____ _____    ______ ____
ROOT
ATOM      1  C   UNL     1       9.145  -0.592  23.799  0.00  0.00    -0.010 C 
ATOM      2  C   UNL     1       8.673   0.471  22.771  0.00  0.00    +0.027 C 
ATOM      3  C   UNL     1       9.792   1.366  22.223  0.00  0.00    +0.107 C 
ATOM      4  N   UNL     1      10.608   1.926  23.296  0.00  0.00    -0.315 N 
ATOM      5  C   UNL     1      11.096   1.012  24.324  0.00  0.00    +0.107 C 
ATOM      6  C   UNL     1       9.960   0.158  24.891  0.00  0.00    +0.027 C 
ENDROOT
BRANCH   4   7
ATOM      7  C   UNL     1      10.553   3.283  23.595  0.00  0.00    +0.134 A 
ATOM      8  N   UNL     1      11.612   4.078  23.261  0.00  0.00    -0.220 NA
ATOM      9  C   UNL     1      11.561   5.401  23.513  0.00  0.00    +0.225 A 
ATOM     10  N   UNL     1      10.563   6.105  24.068  0.00  0.00    -0.218 NA
ATOM     11  C   UNL     1       9.525   5.309  24.358  0.00  0.00    +0.143 A 
ATOM     12  N   UNL     1       8.351   5.755  24.903  0.00  0.00    -0.346 N 
ATOM     13  H   UNL     1       8.174   6.721  25.139  0.00  0.00    +0.167 HD
ATOM     14  C   UNL     1       7.473   4.710  25.035  0.00  0.00    +0.085 A 
ATOM     15  C   UNL     1       8.108   3.577  24.573  0.00  0.00    +0.032 A 
ATOM     16  C   UNL     1       9.430   3.938  24.162  0.00  0.00    +0.059 A 
ENDBRANCH   4   7
BRANCH   1  17
ATOM     17  C   UNL     1      10.068  -1.664  23.138  0.00  0.00    +0.085 C 
BRANCH  17  18
ATOM     18  N   UNL     1      10.034  -1.677  21.677  0.00  0.00    -0.329 NA
ATOM     19  H   UNL     1      10.960  -1.875  21.301  0.00  0.00    +0.118 HD
ATOM     20  H   UNL     1       9.435  -2.441  21.360  0.00  0.00    +0.118 HD
ENDBRANCH  17  18
ENDBRANCH   1  17
BRANCH   1  21
ATOM     21  C   UNL     1       7.924  -1.349  24.442  0.00  0.00    +0.043 C 
BRANCH  21  22
ATOM     22  C   UNL     1       7.362  -2.511  23.650  0.00  0.00    -0.047 A 
ATOM     23  C   UNL     1       6.392  -2.299  22.659  0.00  0.00    +0.005 A 
ATOM     24  C   UNL     1       5.996  -3.343  21.822  0.00  0.00    +0.020 A 
ATOM     25  C   UNL     1       6.545  -4.611  21.992  0.00  0.00    +0.041 A 
ATOM     26 CL   UNL     1       6.114  -5.880  20.913  0.00  0.00    -0.084 Cl
ATOM     27  C   UNL     1       7.454  -4.855  23.018  0.00  0.00    +0.020 A 
ATOM     28  C   UNL     1       7.854  -3.809  23.851  0.00  0.00    +0.005 A 
ENDBRANCH  21  22
ENDBRANCH   1  21
TORSDOF 5
ENDMDL
MODEL 2
REMARK VINA RESULT:      -7.6      0.793      1.883
REMARK  Name = 
REMARK  5 active torsions:
REMARK  status: ('A' for Active; 'I' for Inactive)
REMARK    1  A    between atoms: N_1  and  C_2
REMARK    2  A    between atoms: C_2  and  C_3
REMARK    3  A    between atoms: C_3  and  C_4
REMARK    4  A    between atoms: C_4  and  C_5
REMARK    5  A    between atoms: N_14  and  C_17
REMARK                            x       y       z     vdW  Elec       q    Type
REMARK                         _______ _______ _______ _____ _____    ______ ____
ROOT
ATOM      1  C   UNL     1       9.190  -0.909  23.829  0.00  0.00    -0.010 C 
ATOM      2  C   UNL     1       8.392   0.122  22.986  0.00  0.00    +0.027 C 
ATOM      3  C   UNL     1       9.244   1.252  22.393  0.00  0.00    +0.107 C 
ATOM      4  N   UNL     1      10.095   1.872  23.404  0.00  0.00    -0.315 N 
ATOM      5  C   UNL     1      10.882   0.989  24.260  0.00  0.00    +0.107 C 
ATOM      6  C   UNL     1      10.010  -0.105  24.878  0.00  0.00    +0.027 C 
ENDROOT
BRANCH   4   7
ATOM      7  C   UNL     1       9.846   3.166  23.845  0.00  0.00    +0.134 A 
ATOM      8  N   UNL     1       8.671   3.432  24.487  0.00  0.00    -0.220 NA
ATOM      9  C   UNL     1       8.428   4.674  24.952  0.00  0.00    +0.225 A 
ATOM     10  N   UNL     1       9.217   5.756  24.886  0.00  0.00    -0.218 NA
ATOM     11  C   UNL     1      10.376   5.462  24.281  0.00  0.00    +0.143 A 
ATOM     12  N   UNL     1      11.392   6.363  24.100  0.00  0.00    -0.346 N 
ATOM     13  H   UNL     1      11.348   7.325  24.402  0.00  0.00    +0.167 HD
ATOM     14  C   UNL     1      12.456   5.747  23.495  0.00  0.00    +0.085 A 
ATOM     15  C   UNL     1      12.105   4.431  23.279  0.00  0.00    +0.032 A 
ATOM     16  C   UNL     1      10.767   4.241  23.751  0.00  0.00    +0.059 A 
ENDBRANCH   4   7
BRANCH   1  17
ATOM     17  C   UNL     1      10.182  -1.733  22.948  0.00  0.00    +0.085 C 
BRANCH  17  18
ATOM     18  N   UNL     1       9.965  -1.604  21.508  0.00  0.00    -0.329 NA
ATOM     19  H   UNL     1      10.341  -2.414  21.018  0.00  0.00    +0.118 HD
ATOM     20  H   UNL     1       8.962  -1.603  21.317  0.00  0.00    +0.118 HD
ENDBRANCH  17  18
ENDBRANCH   1  17
BRANCH   1  21
ATOM     21  C   UNL     1       8.229  -1.931  24.543  0.00  0.00    +0.043 C 
BRANCH  21  22
ATOM     22  C   UNL     1       7.578  -2.972  23.657  0.00  0.00    -0.047 A 
ATOM     23  C   UNL     1       6.610  -2.603  22.711  0.00  0.00    +0.005 A 
ATOM     24  C   UNL     1       6.132  -3.533  21.787  0.00  0.00    +0.020 A 
ATOM     25  C   UNL     1       6.596  -4.845  21.825  0.00  0.00    +0.041 A 
ATOM     26 CL   UNL     1       6.063  -5.973  20.640  0.00  0.00    -0.084 Cl
ATOM     27  C   UNL     1       7.501  -5.245  22.804  0.00  0.00    +0.020 A 
ATOM     28  C   UNL     1       7.984  -4.313  23.724  0.00  0.00    +0.005 A 
ENDBRANCH  21  22
ENDBRANCH   1  21
TORSDOF 5
ENDMDL
MODEL 3
REMARK VINA RESULT:      -7.6      4.311      8.576
REMARK  Name = 
REMARK  5 active torsions:
REMARK  status: ('A' for Active; 'I' for Inactive)
REMARK    1  A    between atoms: N_1  and  C_2
REMARK    2  A    between atoms: C_2  and  C_3
REMARK    3  A    between atoms: C_3  and  C_4
REMARK    4  A    between atoms: C_4  and  C_5
REMARK    5  A    between atoms: N_14  and  C_17
REMARK                            x       y       z     vdW  Elec       q    Type
REMARK                         _______ _______ _______ _____ _____    ______ ____
ROOT
ATOM      1  C   UNL     1       8.964  -1.603  24.093  0.00  0.00    -0.010 C 
ATOM      2  C   UNL     1       9.477  -3.059  24.251  0.00  0.00    +0.027 C 
ATOM      3  C   UNL     1       8.469  -4.137  23.831  0.00  0.00    +0.107 C 
ATOM      4  N   UNL     1       7.162  -3.919  24.444  0.00  0.00    -0.315 N 
ATOM      5  C   UNL     1       6.591  -2.578  24.362  0.00  0.00    +0.107 C 
ATOM      6  C   UNL     1       7.594  -1.519  24.825  0.00  0.00    +0.027 C 
ENDROOT
BRANCH   4   7
ATOM      7  C   UNL     1       6.688  -4.776  25.431  0.00  0.00    +0.134 A 
ATOM      8  N   UNL     1       7.179  -4.662  26.700  0.00  0.00    -0.220 NA
ATOM      9  C   UNL     1       6.705  -5.461  27.675  0.00  0.00    +0.225 A 
ATOM     10  N   UNL     1       5.759  -6.408  27.589  0.00  0.00    -0.218 NA
ATOM     11  C   UNL     1       5.271  -6.480  26.344  0.00  0.00    +0.143 A 
ATOM     12  N   UNL     1       4.269  -7.333  25.964  0.00  0.00    -0.346 N 
ATOM     13  H   UNL     1       3.821  -7.985  26.592  0.00  0.00    +0.167 HD
ATOM     14  C   UNL     1       3.964  -7.133  24.643  0.00  0.00    +0.085 A 
ATOM     15  C   UNL     1       4.796  -6.140  24.172  0.00  0.00    +0.032 A 
ATOM     16  C   UNL     1       5.656  -5.731  25.241  0.00  0.00    +0.059 A 
ENDBRANCH   4   7
BRANCH   1  17
ATOM     17  C   UNL     1       8.750  -1.225  22.593  0.00  0.00    +0.085 C 
BRANCH  17  18
ATOM     18  N   UNL     1       9.859  -1.587  21.712  0.00  0.00    -0.329 NA
ATOM     19  H   UNL     1      10.204  -2.518  21.939  0.00  0.00    +0.118 HD
ATOM     20  H   UNL     1       9.522  -1.642  20.750  0.00  0.00    +0.118 HD
ENDBRANCH  17  18
ENDBRANCH   1  17
BRANCH   1  21
ATOM     21  C   UNL     1       9.981  -0.568  24.702  0.00  0.00    +0.043 C 
BRANCH  21  22
ATOM     22  C   UNL     1       9.712   0.892  24.404  0.00  0.00    -0.047 A 
ATOM     23  C   UNL     1       8.632   1.558  25.002  0.00  0.00    +0.005 A 
ATOM     24  C   UNL     1       8.482   2.938  24.856  0.00  0.00    +0.020 A 
ATOM     25  C   UNL     1       9.394   3.654  24.085  0.00  0.00    +0.041 A 
ATOM     26 CL   UNL     1       9.253   5.364  23.965  0.00  0.00    -0.084 Cl
ATOM     27  C   UNL     1      10.429   2.997  23.424  0.00  0.00    +0.020 A 
ATOM     28  C   UNL     1      10.582   1.618  23.576  0.00  0.00    +0.005 A 
ENDBRANCH  21  22
ENDBRANCH   1  21
TORSDOF 5
ENDMDL
MODEL 4
REMARK VINA RESULT:      -7.5      4.186      8.509
REMARK  Name = 
REMARK  5 active torsions:
REMARK  status: ('A' for Active; 'I' for Inactive)
REMARK    1  A    between atoms: N_1  and  C_2
REMARK    2  A    between atoms: C_2  and  C_3
REMARK    3  A    between atoms: C_3  and  C_4
REMARK    4  A    between atoms: C_4  and  C_5
REMARK    5  A    between atoms: N_14  and  C_17
REMARK                            x       y       z     vdW  Elec       q    Type
REMARK                         _______ _______ _______ _____ _____    ______ ____
ROOT
ATOM      1  C   UNL     1       8.551  -1.887  23.848  0.00  0.00    -0.010 C 
ATOM      2  C   UNL     1       8.914  -3.395  23.781  0.00  0.00    +0.027 C 
ATOM      3  C   UNL     1       7.898  -4.260  23.024  0.00  0.00    +0.107 C 
ATOM      4  N   UNL     1       6.535  -4.018  23.486  0.00  0.00    -0.315 N 
ATOM      5  C   UNL     1       6.094  -2.630  23.595  0.00  0.00    +0.107 C 
ATOM      6  C   UNL     1       7.096  -1.791  24.390  0.00  0.00    +0.027 C 
ENDROOT
BRANCH   4   7
ATOM      7  C   UNL     1       5.847  -4.985  24.210  0.00  0.00    +0.134 A 
ATOM      8  N   UNL     1       4.923  -5.759  23.569  0.00  0.00    -0.220 NA
ATOM      9  C   UNL     1       4.272  -6.725  24.247  0.00  0.00    +0.225 A 
ATOM     10  N   UNL     1       4.407  -7.072  25.536  0.00  0.00    -0.218 NA
ATOM     11  C   UNL     1       5.341  -6.320  26.134  0.00  0.00    +0.143 A 
ATOM     12  N   UNL     1       5.718  -6.470  27.442  0.00  0.00    -0.346 N 
ATOM     13  H   UNL     1       5.317  -7.156  28.066  0.00  0.00    +0.167 HD
ATOM     14  C   UNL     1       6.724  -5.588  27.740  0.00  0.00    +0.085 A 
ATOM     15  C   UNL     1       6.983  -4.856  26.601  0.00  0.00    +0.032 A 
ATOM     16  C   UNL     1       6.088  -5.294  25.573  0.00  0.00    +0.059 A 
ENDBRANCH   4   7
BRANCH   1  17
ATOM     17  C   UNL     1       8.601  -1.218  22.437  0.00  0.00    +0.085 C 
BRANCH  17  18
ATOM     18  N   UNL     1       9.773  -1.574  21.639  0.00  0.00    -0.329 NA
ATOM     19  H   UNL     1      10.221  -2.407  22.016  0.00  0.00    +0.118 HD
ATOM     20  H   UNL     1       9.474  -1.822  20.694  0.00  0.00    +0.118 HD
ENDBRANCH  17  18
ENDBRANCH   1  17
BRANCH   1  21
ATOM     21  C   UNL     1       9.543  -1.100  24.782  0.00  0.00    +0.043 C 
BRANCH  21  22
ATOM     22  C   UNL     1       9.548   0.408  24.637  0.00  0.00    -0.047 A 
ATOM     23  C   UNL     1      10.593   1.058  23.963  0.00  0.00    +0.005 A 
ATOM     24  C   UNL     1      10.516   2.424  23.688  0.00  0.00    +0.020 A 
ATOM     25  C   UNL     1       9.408   3.153  24.113  0.00  0.00    +0.041 A 
ATOM     26 CL   UNL     1       9.277   4.820  23.710  0.00  0.00    -0.084 Cl
ATOM     27  C   UNL     1       8.397   2.537  24.847  0.00  0.00    +0.020 A 
ATOM     28  C   UNL     1       8.472   1.169  25.116  0.00  0.00    +0.005 A 
ENDBRANCH  21  22
ENDBRANCH   1  21
TORSDOF 5
ENDMDL
MODEL 5
REMARK VINA RESULT:      -7.3      3.601      8.111
REMARK  Name = 
REMARK  5 active torsions:
REMARK  status: ('A' for Active; 'I' for Inactive)
REMARK    1  A    between atoms: N_1  and  C_2
REMARK    2  A    between atoms: C_2  and  C_3
REMARK    3  A    between atoms: C_3  and  C_4
REMARK    4  A    between atoms: C_4  and  C_5
REMARK    5  A    between atoms: N_14  and  C_17
REMARK                            x       y       z     vdW  Elec       q    Type
REMARK                         _______ _______ _______ _____ _____    ______ ____
ROOT
ATOM      1  C   UNL     1       9.322  -0.734  23.753  0.00  0.00    -0.010 C 
ATOM      2  C   UNL     1       7.773  -0.681  23.679  0.00  0.00    +0.027 C 
ATOM      3  C   UNL     1       7.061  -1.803  24.447  0.00  0.00    +0.107 C 
ATOM      4  N   UNL     1       7.608  -3.115  24.114  0.00  0.00    -0.315 N 
ATOM      5  C   UNL     1       9.060  -3.270  24.144  0.00  0.00    +0.107 C 
ATOM      6  C   UNL     1       9.752  -2.170  23.337  0.00  0.00    +0.027 C 
ENDROOT
BRANCH   4   7
ATOM      7  C   UNL     1       6.864  -4.028  23.377  0.00  0.00    +0.134 A 
ATOM      8  N   UNL     1       6.945  -4.004  22.015  0.00  0.00    -0.220 NA
ATOM      9  C   UNL     1       6.257  -4.905  21.286  0.00  0.00    +0.225 A 
ATOM     10  N   UNL     1       5.460  -5.892  21.721  0.00  0.00    -0.218 NA
ATOM     11  C   UNL     1       5.421  -5.915  23.060  0.00  0.00    +0.143 A 
ATOM     12  N   UNL     1       4.714  -6.836  23.787  0.00  0.00    -0.346 N 
ATOM     13  H   UNL     1       4.157  -7.570  23.372  0.00  0.00    +0.167 HD
ATOM     14  C   UNL     1       4.914  -6.624  25.126  0.00  0.00    +0.085 A 
ATOM     15  C   UNL     1       5.757  -5.540  25.252  0.00  0.00    +0.032 A 
ATOM     16  C   UNL     1       6.068  -5.059  23.940  0.00  0.00    +0.059 A 
ENDBRANCH   4   7
BRANCH   1  17
ATOM     17  C   UNL     1       9.841  -0.461  25.201  0.00  0.00    +0.085 C 
BRANCH  17  18
ATOM     18  N   UNL     1       8.943   0.347  26.024  0.00  0.00    -0.329 NA
ATOM     19  H   UNL     1       8.060   0.502  25.541  0.00  0.00    +0.118 HD
ATOM     20  H   UNL     1       8.708  -0.168  26.874  0.00  0.00    +0.118 HD
ENDBRANCH  17  18
ENDBRANCH   1  17
BRANCH   1  21
ATOM     21  C   UNL     1       9.979   0.336  22.805  0.00  0.00    +0.043 C 
BRANCH  21  22
ATOM     22  C   UNL     1       9.224   1.638  22.638  0.00  0.00    -0.047 A 
ATOM     23  C   UNL     1       8.206   1.757  21.680  0.00  0.00    +0.005 A 
ATOM     24  C   UNL     1       7.404   2.898  21.637  0.00  0.00    +0.020 A 
ATOM     25  C   UNL     1       7.636   3.940  22.532  0.00  0.00    +0.041 A 
ATOM     26 CL   UNL     1       6.601   5.314  22.530  0.00  0.00    -0.084 Cl
ATOM     27  C   UNL     1       8.689   3.868  23.440  0.00  0.00    +0.020 A 
ATOM     28  C   UNL     1       9.487   2.724  23.486  0.00  0.00    +0.005 A 
ENDBRANCH  21  22
ENDBRANCH   1  21
TORSDOF 5
ENDMDL
MODEL 6
REMARK VINA RESULT:      -7.2      2.938      4.622
REMARK  Name = 
REMARK  5 active torsions:
REMARK  status: ('A' for Active; 'I' for Inactive)
REMARK    1  A    between atoms: N_1  and  C_2
REMARK    2  A    between atoms: C_2  and  C_3
REMARK    3  A    between atoms: C_3  and  C_4
REMARK    4  A    between atoms: C_4  and  C_5
REMARK    5  A    between atoms: N_14  and  C_17
REMARK                            x       y       z     vdW  Elec       q    Type
REMARK                         _______ _______ _______ _____ _____    ______ ____
ROOT
ATOM      1  C   UNL     1       7.935  -4.268  25.429  0.00  0.00    -0.010 C 
ATOM      2  C   UNL     1       8.002  -3.931  23.915  0.00  0.00    +0.027 C 
ATOM      3  C   UNL     1       8.930  -2.760  23.566  0.00  0.00    +0.107 C 
ATOM      4  N   UNL     1       8.664  -1.594  24.404  0.00  0.00    -0.315 N 
ATOM      5  C   UNL     1       8.571  -1.804  25.845  0.00  0.00    +0.107 C 
ATOM      6  C   UNL     1       7.608  -2.945  26.178  0.00  0.00    +0.027 C 
ENDROOT
BRANCH   4   7
ATOM      7  C   UNL     1       8.084  -0.451  23.866  0.00  0.00    +0.134 A 
ATOM      8  N   UNL     1       6.787  -0.158  24.175  0.00  0.00    -0.220 NA
ATOM      9  C   UNL     1       6.220   0.964  23.691  0.00  0.00    +0.225 A 
ATOM     10  N   UNL     1       6.771   1.904  22.909  0.00  0.00    -0.218 NA
ATOM     11  C   UNL     1       8.052   1.611  22.646  0.00  0.00    +0.143 A 
ATOM     12  N   UNL     1       8.879   2.408  21.899  0.00  0.00    -0.346 N 
ATOM     13  H   UNL     1       8.588   3.278  21.478  0.00  0.00    +0.167 HD
ATOM     14  C   UNL     1      10.134   1.860  21.853  0.00  0.00    +0.085 A 
ATOM     15  C   UNL     1      10.101   0.687  22.577  0.00  0.00    +0.032 A 
ATOM     16  C   UNL     1       8.769   0.501  23.068  0.00  0.00    +0.059 A 
ENDBRANCH   4   7
BRANCH   1  17
ATOM     17  C   UNL     1       9.298  -4.817  25.959  0.00  0.00    +0.085 C 
BRANCH  17  18
ATOM     18  N   UNL     1       9.821  -5.962  25.216  0.00  0.00    -0.329 NA
ATOM     19  H   UNL     1       9.843  -5.758  24.218  0.00  0.00    +0.118 HD
ATOM     20  H   UNL     1      10.792  -6.126  25.488  0.00  0.00    +0.118 HD
ENDBRANCH  17  18
ENDBRANCH   1  17
BRANCH   1  21
ATOM     21  C   UNL     1       6.838  -5.357  25.724  0.00  0.00    +0.043 C 
BRANCH  21  22
ATOM     22  C   UNL     1       5.537  -5.226  24.960  0.00  0.00    -0.047 A 
ATOM     23  C   UNL     1       5.307  -5.987  23.805  0.00  0.00    +0.005 A 
ATOM     24  C   UNL     1       4.051  -5.987  23.196  0.00  0.00    +0.020 A 
ATOM     25  C   UNL     1       3.028  -5.201  23.722  0.00  0.00    +0.041 A 
ATOM     26 CL   UNL     1       1.460  -5.258  23.018  0.00  0.00    -0.084 Cl
ATOM     27  C   UNL     1       3.263  -4.384  24.824  0.00  0.00    +0.020 A 
ATOM     28  C   UNL     1       4.517  -4.389  25.436  0.00  0.00    +0.005 A 
ENDBRANCH  21  22
ENDBRANCH   1  21
TORSDOF 5
ENDMDL
MODEL 7
REMARK VINA RESULT:      -7.1      4.011      8.431
REMARK  Name = 
REMARK  5 active torsions:
REMARK  status: ('A' for Active; 'I' for Inactive)
REMARK    1  A    between atoms: N_1  and  C_2
REMARK    2  A    between atoms: C_2  and  C_3
REMARK    3  A    between atoms: C_3  and  C_4
REMARK    4  A    between atoms: C_4  and  C_5
REMARK    5  A    between atoms: N_14  and  C_17
REMARK                            x       y       z     vdW  Elec       q    Type
REMARK                         _______ _______ _______ _____ _____    ______ ____
ROOT
ATOM      1  C   UNL     1       8.156  -1.294  25.289  0.00  0.00    -0.010 C 
ATOM      2  C   UNL     1       6.812  -1.386  24.518  0.00  0.00    +0.027 C 
ATOM      3  C   UNL     1       5.718  -2.181  25.242  0.00  0.00    +0.107 C 
ATOM      4  N   UNL     1       6.208  -3.478  25.700  0.00  0.00    -0.315 N 
ATOM      5  C   UNL     1       7.473  -3.504  26.429  0.00  0.00    +0.107 C 
ATOM      6  C   UNL     1       8.564  -2.745  25.673  0.00  0.00    +0.027 C 
ENDROOT
BRANCH   4   7
ATOM      7  C   UNL     1       5.767  -4.655  25.106  0.00  0.00    +0.134 A 
ATOM      8  N   UNL     1       4.810  -5.397  25.737  0.00  0.00    -0.220 NA
ATOM      9  C   UNL     1       4.346  -6.522  25.159  0.00  0.00    +0.225 A 
ATOM     10  N   UNL     1       4.694  -7.055  23.978  0.00  0.00    -0.218 NA
ATOM     11  C   UNL     1       5.610  -6.293  23.365  0.00  0.00    +0.143 A 
ATOM     12  N   UNL     1       6.128  -6.570  22.127  0.00  0.00    -0.346 N 
ATOM     13  H   UNL     1       5.868  -7.377  21.579  0.00  0.00    +0.167 HD
ATOM     14  C   UNL     1       7.001  -5.581  21.757  0.00  0.00    +0.085 A 
ATOM     15  C   UNL     1       7.045  -4.662  22.785  0.00  0.00    +0.032 A 
ATOM     16  C   UNL     1       6.181  -5.118  23.831  0.00  0.00    +0.059 A 
ENDBRANCH   4   7
BRANCH   1  17
ATOM     17  C   UNL     1       8.014  -0.455  26.599  0.00  0.00    +0.085 C 
BRANCH  17  18
ATOM     18  N   UNL     1       9.168  -0.527  27.494  0.00  0.00    -0.329 NA
ATOM     19  H   UNL     1       9.839   0.207  27.268  0.00  0.00    +0.118 HD
ATOM     20  H   UNL     1       8.865  -0.342  28.451  0.00  0.00    +0.118 HD
ENDBRANCH  17  18
ENDBRANCH   1  17
BRANCH   1  21
ATOM     21  C   UNL     1       9.275  -0.618  24.413  0.00  0.00    +0.043 C 
BRANCH  21  22
ATOM     22  C   UNL     1       8.920   0.712  23.780  0.00  0.00    -0.047 A 
ATOM     23  C   UNL     1       8.423   0.770  22.470  0.00  0.00    +0.005 A 
ATOM     24  C   UNL     1       7.944   1.972  21.947  0.00  0.00    +0.020 A 
ATOM     25  C   UNL     1       7.991   3.129  22.721  0.00  0.00    +0.041 A 
ATOM     26 CL   UNL     1       7.333   4.595  22.106  0.00  0.00    -0.084 Cl
ATOM     27  C   UNL     1       8.549   3.103  23.996  0.00  0.00    +0.020 A 
ATOM     28  C   UNL     1       9.022   1.899  24.521  0.00  0.00    +0.005 A 
ENDBRANCH  21  22
ENDBRANCH   1  21
TORSDOF 5
ENDMDL
MODEL 8
REMARK VINA RESULT:      -7.0      3.635      7.112
REMARK  Name = 
REMARK  5 active torsions:
REMARK  status: ('A' for Active; 'I' for Inactive)
REMARK    1  A    between atoms: N_1  and  C_2
REMARK    2  A    between atoms: C_2  and  C_3
REMARK    3  A    between atoms: C_3  and  C_4
REMARK    4  A    between atoms: C_4  and  C_5
REMARK    5  A    between atoms: N_14  and  C_17
REMARK                            x       y       z     vdW  Elec       q    Type
REMARK                         _______ _______ _______ _____ _____    ______ ____
ROOT
ATOM      1  C   UNL     1       8.631   0.660  22.939  0.00  0.00    -0.010 C 
ATOM      2  C   UNL     1       9.440   0.319  24.219  0.00  0.00    +0.027 C 
ATOM      3  C   UNL     1      10.222  -0.999  24.144  0.00  0.00    +0.107 C 
ATOM      4  N   UNL     1       9.379  -2.099  23.687  0.00  0.00    -0.315 N 
ATOM      5  C   UNL     1       8.567  -1.879  22.493  0.00  0.00    +0.107 C 
ATOM      6  C   UNL     1       7.760  -0.584  22.603  0.00  0.00    +0.027 C 
ENDROOT
BRANCH   4   7
ATOM      7  C   UNL     1       9.008  -3.119  24.556  0.00  0.00    +0.134 A 
ATOM      8  N   UNL     1       9.753  -4.262  24.593  0.00  0.00    -0.220 NA
ATOM      9  C   UNL     1       9.428  -5.246  25.454  0.00  0.00    +0.225 A 
ATOM     10  N   UNL     1       8.426  -5.274  26.345  0.00  0.00    -0.218 NA
ATOM     11  C   UNL     1       7.729  -4.130  26.312  0.00  0.00    +0.143 A 
ATOM     12  N   UNL     1       6.668  -3.859  27.135  0.00  0.00    -0.346 N 
ATOM     13  H   UNL     1       6.318  -4.504  27.829  0.00  0.00    +0.167 HD
ATOM     14  C   UNL     1       6.201  -2.594  26.889  0.00  0.00    +0.085 A 
ATOM     15  C   UNL     1       6.976  -2.055  25.884  0.00  0.00    +0.032 A 
ATOM     16  C   UNL     1       7.940  -3.036  25.485  0.00  0.00    +0.059 A 
ENDBRANCH   4   7
BRANCH   1  17
ATOM     17  C   UNL     1       9.569   0.954  21.724  0.00  0.00    +0.085 C 
BRANCH  17  18
ATOM     18  N   UNL     1      10.127   2.305  21.702  0.00  0.00    -0.329 NA
ATOM     19  H   UNL     1       9.539   2.942  22.238  0.00  0.00    +0.118 HD
ATOM     20  H   UNL     1      11.034   2.303  22.170  0.00  0.00    +0.118 HD
ENDBRANCH  17  18
ENDBRANCH   1  17
BRANCH   1  21
ATOM     21  C   UNL     1       7.724   1.928  23.155  0.00  0.00    +0.043 C 
BRANCH  21  22
ATOM     22  C   UNL     1       7.204   2.151  24.560  0.00  0.00    -0.047 A 
ATOM     23  C   UNL     1       7.809   3.091  25.406  0.00  0.00    +0.005 A 
ATOM     24  C   UNL     1       7.232   3.412  26.635  0.00  0.00    +0.020 A 
ATOM     25  C   UNL     1       6.064   2.770  27.038  0.00  0.00    +0.041 A 
ATOM     26 CL   UNL     1       5.311   3.219  28.519  0.00  0.00    -0.084 Cl
ATOM     27  C   UNL     1       5.492   1.782  26.243  0.00  0.00    +0.020 A 
ATOM     28  C   UNL     1       6.066   1.466  25.011  0.00  0.00    +0.005 A 
ENDBRANCH  21  22
ENDBRANCH   1  21
TORSDOF 5
ENDMDL
MODEL 9
REMARK VINA RESULT:      -7.0      3.919      6.173
REMARK  Name = 
REMARK  5 active torsions:
REMARK  status: ('A' for Active; 'I' for Inactive)
REMARK    1  A    between atoms: N_1  and  C_2
REMARK    2  A    between atoms: C_2  and  C_3
REMARK    3  A    between atoms: C_3  and  C_4
REMARK    4  A    between atoms: C_4  and  C_5
REMARK    5  A    between atoms: N_14  and  C_17
REMARK                            x       y       z     vdW  Elec       q    Type
REMARK                         _______ _______ _______ _____ _____    ______ ____
ROOT
ATOM      1  C   UNL     1       5.323  -4.636  23.842  0.00  0.00    -0.010 C 
ATOM      2  C   UNL     1       5.340  -3.238  23.166  0.00  0.00    +0.027 C 
ATOM      3  C   UNL     1       6.568  -2.974  22.286  0.00  0.00    +0.107 C 
ATOM      4  N   UNL     1       7.810  -3.290  22.985  0.00  0.00    -0.315 N 
ATOM      5  C   UNL     1       7.896  -4.578  23.665  0.00  0.00    +0.107 C 
ATOM      6  C   UNL     1       6.686  -4.807  24.572  0.00  0.00    +0.027 C 
ENDROOT
BRANCH   4   7
ATOM      7  C   UNL     1       8.680  -2.279  23.379  0.00  0.00    +0.134 A 
ATOM      8  N   UNL     1       9.564  -1.774  22.469  0.00  0.00    -0.220 NA
ATOM      9  C   UNL     1      10.391  -0.771  22.825  0.00  0.00    +0.225 A 
ATOM     10  N   UNL     1      10.478  -0.144  24.008  0.00  0.00    -0.218 NA
ATOM     11  C   UNL     1       9.581  -0.636  24.872  0.00  0.00    +0.143 A 
ATOM     12  N   UNL     1       9.415  -0.167  26.149  0.00  0.00    -0.346 N 
ATOM     13  H   UNL     1       9.963   0.582  26.546  0.00  0.00    +0.167 HD
ATOM     14  C   UNL     1       8.391  -0.841  26.762  0.00  0.00    +0.085 A 
ATOM     15  C   UNL     1       7.903  -1.762  25.859  0.00  0.00    +0.032 A 
ATOM     16  C   UNL     1       8.671  -1.661  24.656  0.00  0.00    +0.059 A 
ENDBRANCH   4   7
BRANCH   1  17
ATOM     17  C   UNL     1       5.174  -5.783  22.793  0.00  0.00    +0.085 C 
BRANCH  17  18
ATOM     18  N   UNL     1       3.865  -6.435  22.789  0.00  0.00    -0.329 NA
ATOM     19  H   UNL     1       3.465  -6.424  21.852  0.00  0.00    +0.118 HD
ATOM     20  H   UNL     1       3.977  -7.420  23.032  0.00  0.00    +0.118 HD
ENDBRANCH  17  18
ENDBRANCH   1  17
BRANCH   1  21
ATOM     21  C   UNL     1       4.130  -4.766  24.859  0.00  0.00    +0.043 C 
BRANCH  21  22
ATOM     22  C   UNL     1       4.492  -5.179  26.271  0.00  0.00    -0.047 A 
ATOM     23  C   UNL     1       4.640  -6.534  26.603  0.00  0.00    +0.005 A 
ATOM     24  C   UNL     1       5.131  -6.906  27.855  0.00  0.00    +0.020 A 
ATOM     25  C   UNL     1       5.447  -5.925  28.793  0.00  0.00    +0.041 A 
ATOM     26 CL   UNL     1       6.122  -6.379  30.308  0.00  0.00    -0.084 Cl
ATOM     27  C   UNL     1       5.236  -4.580  28.504  0.00  0.00    +0.020 A 
ATOM     28  C   UNL     1       4.750  -4.208  27.249  0.00  0.00    +0.005 A 
ENDBRANCH  21  22
ENDBRANCH   1  21
TORSDOF 5
ENDMDL
