MODEL 1
REMARK VINA RESULT:      -6.7      0.000      0.000
REMARK  Name = 
REMARK  5 active torsions:
REMARK  status: ('A' for Active; 'I' for Inactive)
REMARK    1  A    between atoms: C_1  and  C_2
REMARK    2  A    between atoms: N_4  and  C_5
REMARK    3  A    between atoms: C_8  and  N_10
REMARK    4  A    between atoms: C_13  and  C_15
REMARK    5  A    between atoms: C_15  and  O_16
REMARK                            x       y       z     vdW  Elec       q    Type
REMARK                         _______ _______ _______ _____ _____    ______ ____
ROOT
ATOM      1  C   UNL     1       9.002  -2.893  25.157  0.00  0.00    +0.226 C 
ATOM      2  O   UNL     1       9.170  -3.773  24.031  0.00  0.00    -0.349 OA
ATOM      3  C   UNL     1       8.361  -4.950  24.263  0.00  0.00    +0.177 C 
ATOM      4  C   UNL     1       7.529  -4.697  25.530  0.00  0.00    +0.226 C 
ATOM      5  C   UNL     1       7.614  -3.195  25.702  0.00  0.00    +0.091 C 
ENDROOT
BRANCH   1  14
ATOM      6  C   UNL     1       9.460   0.617  21.645  0.00  0.00    +0.051 C 
ATOM      7  C   UNL     1       9.397   0.160  23.066  0.00  0.00    +0.030 A 
ATOM      8  C   UNL     1       9.470   1.194  24.123  0.00  0.00    +0.257 A 
ATOM      9  O   UNL     1       9.562   2.387  23.858  0.00  0.00    -0.267 OA
ATOM     10  N   UNL     1       9.419   0.735  25.406  0.00  0.00    -0.275 N 
ATOM     11  H   UNL     1       9.448   1.427  26.139  0.00  0.00    +0.173 HD
ATOM     12  C   UNL     1       9.221  -0.563  25.795  0.00  0.00    +0.331 A 
ATOM     13  O   UNL     1       9.078  -0.837  26.984  0.00  0.00    -0.246 OA
ATOM     14  N   UNL     1       9.191  -1.500  24.770  0.00  0.00    -0.274 N 
ATOM     15  C   UNL     1       9.277  -1.118  23.445  0.00  0.00    +0.101 A 
ENDBRANCH   1  14
BRANCH   4  16
ATOM     16  N   UNL     1       8.179  -5.332  26.694  0.00  0.00    +0.082 NA
ATOM     17  N   UNL     1       7.420  -5.720  27.602  0.00  0.00    -0.014 NA
ATOM     18  N   UNL     1       6.720  -6.081  28.426  0.00  0.00    -0.328 NA
ENDBRANCH   4  16
BRANCH   3  19
ATOM     19  C   UNL     1       7.502  -5.191  23.017  0.00  0.00    +0.189 C 
BRANCH  19  20
ATOM     20  O   UNL     1       7.429  -4.023  22.205  0.00  0.00    -0.392 OA
ATOM     21  H   UNL     1       8.348  -3.748  22.044  0.00  0.00    +0.210 HD
ENDBRANCH  19  20
ENDBRANCH   3  19
TORSDOF 4
ENDMDL
MODEL 2
REMARK VINA RESULT:      -6.7      1.977      2.260
REMARK  Name = 
REMARK  5 active torsions:
REMARK  status: ('A' for Active; 'I' for Inactive)
REMARK    1  A    between atoms: C_1  and  C_2
REMARK    2  A    between atoms: N_4  and  C_5
REMARK    3  A    between atoms: C_8  and  N_10
REMARK    4  A    between atoms: C_13  and  C_15
REMARK    5  A    between atoms: C_15  and  O_16
REMARK                            x       y       z     vdW  Elec       q    Type
REMARK                         _______ _______ _______ _____ _____    ______ ____
ROOT
ATOM      1  C   UNL     1       8.248  -3.122  23.665  0.00  0.00    +0.226 C 
ATOM      2  O   UNL     1       7.611  -3.970  22.692  0.00  0.00    -0.349 OA
ATOM      3  C   UNL     1       6.791  -4.925  23.405  0.00  0.00    +0.177 C 
ATOM      4  C   UNL     1       6.806  -4.530  24.890  0.00  0.00    +0.226 C 
ATOM      5  C   UNL     1       7.308  -3.101  24.860  0.00  0.00    +0.091 C 
ENDROOT
BRANCH   1  14
ATOM      6  C   UNL     1       6.782   1.507  22.529  0.00  0.00    +0.051 C 
ATOM      7  C   UNL     1       7.797   0.412  22.589  0.00  0.00    +0.030 A 
ATOM      8  C   UNL     1       9.165   0.718  22.116  0.00  0.00    +0.257 A 
ATOM      9  O   UNL     1       9.475   1.830  21.702  0.00  0.00    -0.267 OA
ATOM     10  N   UNL     1      10.059  -0.310  22.177  0.00  0.00    -0.275 N 
ATOM     11  H   UNL     1      11.001  -0.114  21.877  0.00  0.00    +0.173 HD
ATOM     12  C   UNL     1       9.831  -1.550  22.711  0.00  0.00    +0.331 A 
ATOM     13  O   UNL     1      10.751  -2.358  22.815  0.00  0.00    -0.246 OA
ATOM     14  N   UNL     1       8.525  -1.802  23.112  0.00  0.00    -0.274 N 
ATOM     15  C   UNL     1       7.552  -0.823  23.043  0.00  0.00    +0.101 A 
ENDBRANCH   1  14
BRANCH   4  16
ATOM     16  N   UNL     1       7.795  -5.350  25.619  0.00  0.00    +0.082 NA
ATOM     17  N   UNL     1       7.506  -5.643  26.794  0.00  0.00    -0.014 NA
ATOM     18  N   UNL     1       7.231  -5.915  27.866  0.00  0.00    -0.328 NA
ENDBRANCH   4  16
BRANCH   3  19
ATOM     19  C   UNL     1       5.387  -4.900  22.790  0.00  0.00    +0.189 C 
BRANCH  19  20
ATOM     20  O   UNL     1       5.208  -3.759  21.957  0.00  0.00    -0.392 OA
ATOM     21  H   UNL     1       5.427  -4.047  21.054  0.00  0.00    +0.210 HD
ENDBRANCH  19  20
ENDBRANCH   3  19
TORSDOF 4
ENDMDL
MODEL 3
REMARK VINA RESULT:      -6.4      2.039      2.614
REMARK  Name = 
REMARK  5 active torsions:
REMARK  status: ('A' for Active; 'I' for Inactive)
REMARK    1  A    between atoms: C_1  and  C_2
REMARK    2  A    between atoms: N_4  and  C_5
REMARK    3  A    between atoms: C_8  and  N_10
REMARK    4  A    between atoms: C_13  and  C_15
REMARK    5  A    between atoms: C_15  and  O_16
REMARK                            x       y       z     vdW  Elec       q    Type
REMARK                         _______ _______ _______ _____ _____    ______ ____
ROOT
ATOM      1  C   UNL     1       7.866  -3.104  24.817  0.00  0.00    +0.226 C 
ATOM      2  O   UNL     1       6.502  -3.484  24.558  0.00  0.00    -0.349 OA
ATOM      3  C   UNL     1       5.936  -3.974  25.796  0.00  0.00    +0.177 C 
ATOM      4  C   UNL     1       6.968  -3.726  26.907  0.00  0.00    +0.226 C 
ATOM      5  C   UNL     1       7.904  -2.710  26.285  0.00  0.00    +0.091 C 
ENDROOT
BRANCH   1  14
ATOM      6  C   UNL     1       7.035   1.227  22.488  0.00  0.00    +0.051 C 
ATOM      7  C   UNL     1       7.875   0.037  22.820  0.00  0.00    +0.030 A 
ATOM      8  C   UNL     1       9.237  -0.024  22.242  0.00  0.00    +0.257 A 
ATOM      9  O   UNL     1       9.680   0.870  21.529  0.00  0.00    -0.267 OA
ATOM     10  N   UNL     1       9.968  -1.131  22.561  0.00  0.00    -0.275 N 
ATOM     11  H   UNL     1      10.905  -1.180  22.191  0.00  0.00    +0.173 HD
ATOM     12  C   UNL     1       9.594  -2.127  23.422  0.00  0.00    +0.331 A 
ATOM     13  O   UNL     1      10.388  -3.017  23.719  0.00  0.00    -0.246 OA
ATOM     14  N   UNL     1       8.298  -2.044  23.914  0.00  0.00    -0.274 N 
ATOM     15  C   UNL     1       7.481  -0.973  23.604  0.00  0.00    +0.101 A 
ENDBRANCH   1  14
BRANCH   4  16
ATOM     16  N   UNL     1       7.736  -4.960  27.167  0.00  0.00    +0.082 NA
ATOM     17  N   UNL     1       7.220  -5.772  27.957  0.00  0.00    -0.014 NA
ATOM     18  N   UNL     1       6.738  -6.515  28.676  0.00  0.00    -0.328 NA
ENDBRANCH   4  16
BRANCH   3  19
ATOM     19  C   UNL     1       4.609  -3.246  26.034  0.00  0.00    +0.189 C 
BRANCH  19  20
ATOM     20  O   UNL     1       4.482  -2.111  25.182  0.00  0.00    -0.392 OA
ATOM     21  H   UNL     1       5.314  -2.056  24.680  0.00  0.00    +0.210 HD
ENDBRANCH  19  20
ENDBRANCH   3  19
TORSDOF 4
ENDMDL
MODEL 4
REMARK VINA RESULT:      -6.3      3.155      6.764
REMARK  Name = 
REMARK  5 active torsions:
REMARK  status: ('A' for Active; 'I' for Inactive)
REMARK    1  A    between atoms: C_1  and  C_2
REMARK    2  A    between atoms: N_4  and  C_5
REMARK    3  A    between atoms: C_8  and  N_10
REMARK    4  A    between atoms: C_13  and  C_15
REMARK    5  A    between atoms: C_15  and  O_16
REMARK                            x       y       z     vdW  Elec       q    Type
REMARK                         _______ _______ _______ _____ _____    ______ ____
ROOT
ATOM      1  C   UNL     1       6.702  -2.873  23.048  0.00  0.00    +0.226 C 
ATOM      2  O   UNL     1       8.054  -3.052  22.588  0.00  0.00    -0.349 OA
ATOM      3  C   UNL     1       8.781  -1.831  22.863  0.00  0.00    +0.177 C 
ATOM      4  C   UNL     1       7.858  -0.918  23.684  0.00  0.00    +0.226 C 
ATOM      5  C   UNL     1       6.793  -1.870  24.188  0.00  0.00    +0.091 C 
ENDROOT
BRANCH   1  14
ATOM      6  C   UNL     1       5.358  -6.160  26.549  0.00  0.00    +0.051 C 
ATOM      7  C   UNL     1       5.464  -5.696  25.133  0.00  0.00    +0.030 A 
ATOM      8  C   UNL     1       4.871  -6.556  24.084  0.00  0.00    +0.257 A 
ATOM      9  O   UNL     1       4.297  -7.606  24.353  0.00  0.00    -0.267 OA
ATOM     10  N   UNL     1       4.997  -6.103  22.804  0.00  0.00    -0.275 N 
ATOM     11  H   UNL     1       4.583  -6.667  22.078  0.00  0.00    +0.173 HD
ATOM     12  C   UNL     1       5.533  -4.904  22.419  0.00  0.00    +0.331 A 
ATOM     13  O   UNL     1       5.486  -4.555  21.241  0.00  0.00    -0.246 OA
ATOM     14  N   UNL     1       6.105  -4.146  23.433  0.00  0.00    -0.274 N 
ATOM     15  C   UNL     1       6.054  -4.558  24.752  0.00  0.00    +0.101 A 
ENDBRANCH   1  14
BRANCH   4  16
ATOM     16  N   UNL     1       7.210   0.071  22.798  0.00  0.00    +0.082 NA
ATOM     17  N   UNL     1       7.965   0.891  22.245  0.00  0.00    -0.014 NA
ATOM     18  N   UNL     1       8.664   1.634  21.736  0.00  0.00    -0.328 NA
ENDBRANCH   4  16
BRANCH   3  19
ATOM     19  C   UNL     1      10.072  -2.202  23.601  0.00  0.00    +0.189 C 
BRANCH  19  20
ATOM     20  O   UNL     1       9.982  -3.500  24.181  0.00  0.00    -0.392 OA
ATOM     21  H   UNL     1       9.774  -3.362  25.121  0.00  0.00    +0.210 HD
ENDBRANCH  19  20
ENDBRANCH   3  19
TORSDOF 4
ENDMDL
MODEL 5
REMARK VINA RESULT:      -6.3      2.096      2.445
REMARK  Name = 
REMARK  5 active torsions:
REMARK  status: ('A' for Active; 'I' for Inactive)
REMARK    1  A    between atoms: C_1  and  C_2
REMARK    2  A    between atoms: N_4  and  C_5
REMARK    3  A    between atoms: C_8  and  N_10
REMARK    4  A    between atoms: C_13  and  C_15
REMARK    5  A    between atoms: C_15  and  O_16
REMARK                            x       y       z     vdW  Elec       q    Type
REMARK                         _______ _______ _______ _____ _____    ______ ____
ROOT
ATOM      1  C   UNL     1       7.100  -2.817  25.168  0.00  0.00    +0.226 C 
ATOM      2  O   UNL     1       8.368  -3.084  25.795  0.00  0.00    -0.349 OA
ATOM      3  C   UNL     1       8.456  -4.510  26.026  0.00  0.00    +0.177 C 
ATOM      4  C   UNL     1       7.240  -5.164  25.353  0.00  0.00    +0.226 C 
ATOM      5  C   UNL     1       6.749  -4.087  24.408  0.00  0.00    +0.091 C 
ENDROOT
BRANCH   1  14
ATOM      6  C   UNL     1       9.347  -0.131  21.619  0.00  0.00    +0.051 C 
ATOM      7  C   UNL     1       8.262  -0.369  22.617  0.00  0.00    +0.030 A 
ATOM      8  C   UNL     1       7.174   0.632  22.700  0.00  0.00    +0.257 A 
ATOM      9  O   UNL     1       7.143   1.618  21.972  0.00  0.00    -0.267 OA
ATOM     10  N   UNL     1       6.208   0.383  23.631  0.00  0.00    -0.275 N 
ATOM     11  H   UNL     1       5.450   1.045  23.688  0.00  0.00    +0.173 HD
ATOM     12  C   UNL     1       6.110  -0.733  24.416  0.00  0.00    +0.331 A 
ATOM     13  O   UNL     1       5.128  -0.898  25.137  0.00  0.00    -0.246 OA
ATOM     14  N   UNL     1       7.168  -1.628  24.327  0.00  0.00    -0.274 N 
ATOM     15  C   UNL     1       8.206  -1.425  23.436  0.00  0.00    +0.101 A 
ENDBRANCH   1  14
BRANCH   4  16
ATOM     16  N   UNL     1       6.184  -5.413  26.355  0.00  0.00    +0.082 NA
ATOM     17  N   UNL     1       6.556  -5.910  27.434  0.00  0.00    -0.014 NA
ATOM     18  N   UNL     1       6.905  -6.357  28.423  0.00  0.00    -0.328 NA
ENDBRANCH   4  16
BRANCH   3  19
ATOM     19  C   UNL     1       9.793  -5.001  25.460  0.00  0.00    +0.189 C 
BRANCH  19  20
ATOM     20  O   UNL     1      10.258  -4.149  24.416  0.00  0.00    -0.392 OA
ATOM     21  H   UNL     1      11.173  -4.424  24.232  0.00  0.00    +0.210 HD
ENDBRANCH  19  20
ENDBRANCH   3  19
TORSDOF 4
ENDMDL
MODEL 6
REMARK VINA RESULT:      -6.3      1.963      2.516
REMARK  Name = 
REMARK  5 active torsions:
REMARK  status: ('A' for Active; 'I' for Inactive)
REMARK    1  A    between atoms: C_1  and  C_2
REMARK    2  A    between atoms: N_4  and  C_5
REMARK    3  A    between atoms: C_8  and  N_10
REMARK    4  A    between atoms: C_13  and  C_15
REMARK    5  A    between atoms: C_15  and  O_16
REMARK                            x       y       z     vdW  Elec       q    Type
REMARK                         _______ _______ _______ _____ _____    ______ ____
ROOT
ATOM      1  C   UNL     1       7.819  -3.907  25.356  0.00  0.00    +0.226 C 
ATOM      2  O   UNL     1       7.192  -4.917  24.545  0.00  0.00    -0.349 OA
ATOM      3  C   UNL     1       6.360  -5.727  25.410  0.00  0.00    +0.177 C 
ATOM      4  C   UNL     1       6.358  -5.068  26.798  0.00  0.00    +0.226 C 
ATOM      5  C   UNL     1       6.864  -3.669  26.515  0.00  0.00    +0.091 C 
ENDROOT
BRANCH   1  14
ATOM      6  C   UNL     1       6.532   0.624  23.720  0.00  0.00    +0.051 C 
ATOM      7  C   UNL     1       7.467  -0.537  23.816  0.00  0.00    +0.030 A 
ATOM      8  C   UNL     1       8.773  -0.425  23.130  0.00  0.00    +0.257 A 
ATOM      9  O   UNL     1       9.098   0.584  22.514  0.00  0.00    -0.267 OA
ATOM     10  N   UNL     1       9.594  -1.510  23.234  0.00  0.00    -0.275 N 
ATOM     11  H   UNL     1      10.496  -1.444  22.789  0.00  0.00    +0.173 HD
ATOM     12  C   UNL     1       9.357  -2.635  23.976  0.00  0.00    +0.331 A 
ATOM     13  O   UNL     1      10.225  -3.499  24.085  0.00  0.00    -0.246 OA
ATOM     14  N   UNL     1       8.106  -2.709  24.576  0.00  0.00    -0.274 N 
ATOM     15  C   UNL     1       7.203  -1.668  24.483  0.00  0.00    +0.101 A 
ENDBRANCH   1  14
BRANCH   4  16
ATOM     16  N   UNL     1       7.336  -5.742  27.677  0.00  0.00    +0.082 NA
ATOM     17  N   UNL     1       6.863  -6.498  28.546  0.00  0.00    -0.014 NA
ATOM     18  N   UNL     1       6.425  -7.195  29.334  0.00  0.00    -0.328 NA
ENDBRANCH   4  16
BRANCH   3  19
ATOM     19  C   UNL     1       4.965  -5.813  24.783  0.00  0.00    +0.189 C 
BRANCH  19  20
ATOM     20  O   UNL     1       4.917  -6.803  23.760  0.00  0.00    -0.392 OA
ATOM     21  H   UNL     1       4.140  -7.355  23.954  0.00  0.00    +0.210 HD
ENDBRANCH  19  20
ENDBRANCH   3  19
TORSDOF 4
ENDMDL
MODEL 7
REMARK VINA RESULT:      -6.2      2.575      6.181
REMARK  Name = 
REMARK  5 active torsions:
REMARK  status: ('A' for Active; 'I' for Inactive)
REMARK    1  A    between atoms: C_1  and  C_2
REMARK    2  A    between atoms: N_4  and  C_5
REMARK    3  A    between atoms: C_8  and  N_10
REMARK    4  A    between atoms: C_13  and  C_15
REMARK    5  A    between atoms: C_15  and  O_16
REMARK                            x       y       z     vdW  Elec       q    Type
REMARK                         _______ _______ _______ _____ _____    ______ ____
ROOT
ATOM      1  C   UNL     1       8.545  -2.200  24.551  0.00  0.00    +0.226 C 
ATOM      2  O   UNL     1       8.116  -0.905  25.010  0.00  0.00    -0.349 OA
ATOM      3  C   UNL     1       7.869  -0.080  23.847  0.00  0.00    +0.177 C 
ATOM      4  C   UNL     1       8.000  -0.979  22.607  0.00  0.00    +0.226 C 
ATOM      5  C   UNL     1       7.901  -2.376  23.184  0.00  0.00    +0.091 C 
ENDROOT
BRANCH   1  14
ATOM      6  C   UNL     1       5.419  -4.110  27.933  0.00  0.00    +0.051 C 
ATOM      7  C   UNL     1       6.668  -4.137  27.115  0.00  0.00    +0.030 A 
ATOM      8  C   UNL     1       7.549  -5.319  27.246  0.00  0.00    +0.257 A 
ATOM      9  O   UNL     1       7.269  -6.258  27.983  0.00  0.00    -0.267 OA
ATOM     10  N   UNL     1       8.684  -5.301  26.489  0.00  0.00    -0.275 N 
ATOM     11  H   UNL     1       9.286  -6.107  26.552  0.00  0.00    +0.173 HD
ATOM     12  C   UNL     1       9.029  -4.347  25.571  0.00  0.00    +0.331 A 
ATOM     13  O   UNL     1      10.023  -4.499  24.865  0.00  0.00    -0.246 OA
ATOM     14  N   UNL     1       8.189  -3.242  25.506  0.00  0.00    -0.274 N 
ATOM     15  C   UNL     1       7.041  -3.168  26.271  0.00  0.00    +0.101 A 
ENDBRANCH   1  14
BRANCH   4  16
ATOM     16  N   UNL     1       9.342  -0.820  22.011  0.00  0.00    +0.082 NA
ATOM     17  N   UNL     1       9.757   0.347  21.894  0.00  0.00    -0.014 NA
ATOM     18  N   UNL     1      10.134   1.419  21.799  0.00  0.00    -0.328 NA
ENDBRANCH   4  16
BRANCH   3  19
ATOM     19  C   UNL     1       6.476   0.543  23.993  0.00  0.00    +0.189 C 
BRANCH  19  20
ATOM     20  O   UNL     1       6.053   1.155  22.779  0.00  0.00    -0.392 OA
ATOM     21  H   UNL     1       6.007   2.110  22.960  0.00  0.00    +0.210 HD
ENDBRANCH  19  20
ENDBRANCH   3  19
TORSDOF 4
ENDMDL
MODEL 8
REMARK VINA RESULT:      -6.2      2.262      2.443
REMARK  Name = 
REMARK  5 active torsions:
REMARK  status: ('A' for Active; 'I' for Inactive)
REMARK    1  A    between atoms: C_1  and  C_2
REMARK    2  A    between atoms: N_4  and  C_5
REMARK    3  A    between atoms: C_8  and  N_10
REMARK    4  A    between atoms: C_13  and  C_15
REMARK    5  A    between atoms: C_15  and  O_16
REMARK                            x       y       z     vdW  Elec       q    Type
REMARK                         _______ _______ _______ _____ _____    ______ ____
ROOT
ATOM      1  C   UNL     1       7.393  -3.592  24.131  0.00  0.00    +0.226 C 
ATOM      2  O   UNL     1       7.904  -4.690  23.354  0.00  0.00    -0.349 OA
ATOM      3  C   UNL     1       6.783  -5.518  22.964  0.00  0.00    +0.177 C 
ATOM      4  C   UNL     1       5.500  -4.791  23.395  0.00  0.00    +0.226 C 
ATOM      5  C   UNL     1       5.972  -3.372  23.634  0.00  0.00    +0.091 C 
ENDROOT
BRANCH   1  14
ATOM      6  C   UNL     1       9.436   0.024  21.373  0.00  0.00    +0.051 C 
ATOM      7  C   UNL     1       9.203  -0.690  22.664  0.00  0.00    +0.030 A 
ATOM      8  C   UNL     1       9.827  -0.128  23.882  0.00  0.00    +0.257 A 
ATOM      9  O   UNL     1      10.501   0.896  23.853  0.00  0.00    -0.267 OA
ATOM     10  N   UNL     1       9.598  -0.815  25.038  0.00  0.00    -0.275 N 
ATOM     11  H   UNL     1      10.000  -0.436  25.881  0.00  0.00    +0.173 HD
ATOM     12  C   UNL     1       8.784  -1.906  25.183  0.00  0.00    +0.331 A 
ATOM     13  O   UNL     1       8.565  -2.370  26.300  0.00  0.00    -0.246 OA
ATOM     14  N   UNL     1       8.246  -2.417  24.009  0.00  0.00    -0.274 N 
ATOM     15  C   UNL     1       8.466  -1.800  22.792  0.00  0.00    +0.101 A 
ENDBRANCH   1  14
BRANCH   4  16
ATOM     16  N   UNL     1       5.018  -5.339  24.679  0.00  0.00    +0.082 NA
ATOM     17  N   UNL     1       4.541  -6.488  24.643  0.00  0.00    -0.014 NA
ATOM     18  N   UNL     1       4.114  -7.544  24.603  0.00  0.00    -0.328 NA
ENDBRANCH   4  16
BRANCH   3  19
ATOM     19  C   UNL     1       6.865  -5.748  21.451  0.00  0.00    +0.189 C 
BRANCH  19  20
ATOM     20  O   UNL     1       5.606  -6.152  20.920  0.00  0.00    -0.392 OA
ATOM     21  H   UNL     1       5.515  -5.694  20.066  0.00  0.00    +0.210 HD
ENDBRANCH  19  20
ENDBRANCH   3  19
TORSDOF 4
ENDMDL
MODEL 9
REMARK VINA RESULT:      -6.1      2.768      3.357
REMARK  Name = 
REMARK  5 active torsions:
REMARK  status: ('A' for Active; 'I' for Inactive)
REMARK    1  A    between atoms: C_1  and  C_2
REMARK    2  A    between atoms: N_4  and  C_5
REMARK    3  A    between atoms: C_8  and  N_10
REMARK    4  A    between atoms: C_13  and  C_15
REMARK    5  A    between atoms: C_15  and  O_16
REMARK                            x       y       z     vdW  Elec       q    Type
REMARK                         _______ _______ _______ _____ _____    ______ ____
ROOT
ATOM      1  C   UNL     1       7.442  -2.555  24.266  0.00  0.00    +0.226 C 
ATOM      2  O   UNL     1       7.849  -3.375  25.377  0.00  0.00    -0.349 OA
ATOM      3  C   UNL     1       7.993  -4.732  24.897  0.00  0.00    +0.177 C 
ATOM      4  C   UNL     1       7.820  -4.704  23.370  0.00  0.00    +0.226 C 
ATOM      5  C   UNL     1       8.007  -3.239  23.031  0.00  0.00    +0.091 C 
ENDROOT
BRANCH   1  14
ATOM      6  C   UNL     1      11.111   0.815  24.485  0.00  0.00    +0.051 C 
ATOM      7  C   UNL     1       9.673   0.413  24.524  0.00  0.00    +0.030 A 
ATOM      8  C   UNL     1       8.665   1.486  24.679  0.00  0.00    +0.257 A 
ATOM      9  O   UNL     1       8.982   2.667  24.758  0.00  0.00    -0.267 OA
ATOM     10  N   UNL     1       7.365   1.076  24.720  0.00  0.00    -0.275 N 
ATOM     11  H   UNL     1       6.663   1.795  24.807  0.00  0.00    +0.173 HD
ATOM     12  C   UNL     1       6.913  -0.204  24.544  0.00  0.00    +0.331 A 
ATOM     13  O   UNL     1       5.706  -0.431  24.487  0.00  0.00    -0.246 OA
ATOM     14  N   UNL     1       7.895  -1.179  24.434  0.00  0.00    -0.274 N 
ATOM     15  C   UNL     1       9.237  -0.848  24.425  0.00  0.00    +0.101 A 
ENDBRANCH   1  14
BRANCH   4  16
ATOM     16  N   UNL     1       6.439  -5.086  23.013  0.00  0.00    +0.082 NA
ATOM     17  N   UNL     1       6.240  -5.372  21.817  0.00  0.00    -0.014 NA
ATOM     18  N   UNL     1       6.067  -5.641  20.723  0.00  0.00    -0.328 NA
ENDBRANCH   4  16
BRANCH   3  19
ATOM     19  C   UNL     1       9.367  -5.249  25.337  0.00  0.00    +0.189 C 
BRANCH  19  20
ATOM     20  O   UNL     1       9.577  -5.038  26.730  0.00  0.00    -0.392 OA
ATOM     21  H   UNL     1       8.693  -4.985  27.132  0.00  0.00    +0.210 HD
ENDBRANCH  19  20
ENDBRANCH   3  19
TORSDOF 4
ENDMDL
