MODEL 1
REMARK VINA RESULT:      -6.5      0.000      0.000
REMARK  Name = 
REMARK  4 active torsions:
REMARK  status: ('A' for Active; 'I' for Inactive)
REMARK    1  A    between atoms: O_1  and  C_2
REMARK    2  A    between atoms: C_2  and  C_4
REMARK    3  A    between atoms: C_5  and  N_6
REMARK    4  A    between atoms: N_6  and  C_7
REMARK                            x       y       z     vdW  Elec       q    Type
REMARK                         _______ _______ _______ _____ _____    ______ ____
ROOT
ATOM      1  C   UNL     1       8.351  -4.304  24.454  0.00  0.00    +0.099 A 
ATOM      2  C   UNL     1       7.110  -4.956  24.466  0.00  0.00    +0.020 A 
ATOM      3  C   UNL     1       6.142  -4.620  23.526  0.00  0.00    +0.021 A 
ATOM      4  C   UNL     1       6.453  -3.642  22.607  0.00  0.00    +0.113 A 
ATOM      5  N   UNL     1       7.628  -2.981  22.601  0.00  0.00    -0.239 NA
ATOM      6  C   UNL     1       8.574  -3.278  23.524  0.00  0.00    +0.137 A 
ENDROOT
BRANCH   1   7
ATOM      7  C   UNL     1       9.338  -4.710  25.472  0.00  0.00    +0.340 C 
ATOM      8  O   UNL     1       9.138  -4.577  26.668  0.00  0.00    -0.245 OA
BRANCH   7   9
ATOM      9  O   UNL     1      10.459  -5.271  24.969  0.00  0.00    -0.477 OA
ATOM     10  H   UNL     1      11.248  -4.689  24.975  0.00  0.00    +0.295 HD
ENDBRANCH   7   9
ENDBRANCH   1   7
BRANCH   6  11
ATOM     11  N   UNL     1       9.806  -2.552  23.511  0.00  0.00    -0.299 N 
ATOM     12  H   UNL     1      10.413  -2.926  24.242  0.00  0.00    +0.154 HD
BRANCH  11  13
ATOM     13  C   UNL     1       9.904  -1.130  23.521  0.00  0.00    +0.032 A 
ATOM     14  C   UNL     1      10.051  -0.389  24.702  0.00  0.00    +0.025 A 
ATOM     15  C   UNL     1      10.298   0.986  24.668  0.00  0.00    +0.022 A 
ATOM     16  C   UNL     1      10.333   1.648  23.448  0.00  0.00    +0.041 A 
ATOM     17 CL   UNL     1      10.713   3.324  23.393  0.00  0.00    -0.084 Cl
ATOM     18  C   UNL     1      10.071   0.954  22.268  0.00  0.00    +0.022 A 
ATOM     19  C   UNL     1       9.842  -0.427  22.309  0.00  0.00    +0.025 A 
ENDBRANCH  11  13
ENDBRANCH   6  11
TORSDOF 4
ENDMDL
MODEL 2
REMARK VINA RESULT:      -6.3      2.226      2.806
REMARK  Name = 
REMARK  4 active torsions:
REMARK  status: ('A' for Active; 'I' for Inactive)
REMARK    1  A    between atoms: O_1  and  C_2
REMARK    2  A    between atoms: C_2  and  C_4
REMARK    3  A    between atoms: C_5  and  N_6
REMARK    4  A    between atoms: N_6  and  C_7
REMARK                            x       y       z     vdW  Elec       q    Type
REMARK                         _______ _______ _______ _____ _____    ______ ____
ROOT
ATOM      1  C   UNL     1       7.252  -3.295  23.482  0.00  0.00    +0.099 A 
ATOM      2  C   UNL     1       6.802  -4.255  24.399  0.00  0.00    +0.020 A 
ATOM      3  C   UNL     1       7.713  -4.901  25.228  0.00  0.00    +0.021 A 
ATOM      4  C   UNL     1       9.043  -4.559  25.108  0.00  0.00    +0.113 A 
ATOM      5  N   UNL     1       9.498  -3.663  24.209  0.00  0.00    -0.239 NA
ATOM      6  C   UNL     1       8.627  -3.042  23.376  0.00  0.00    +0.137 A 
ENDROOT
BRANCH   1   7
ATOM      7  C   UNL     1       6.236  -2.641  22.635  0.00  0.00    +0.340 C 
ATOM      8  O   UNL     1       5.557  -3.258  21.832  0.00  0.00    -0.245 OA
BRANCH   7   9
ATOM      9  O   UNL     1       6.100  -1.314  22.852  0.00  0.00    -0.477 OA
ATOM     10  H   UNL     1       6.653  -0.745  22.277  0.00  0.00    +0.295 HD
ENDBRANCH   7   9
ENDBRANCH   1   7
BRANCH   6  11
ATOM     11  N   UNL     1       9.133  -2.108  22.418  0.00  0.00    -0.299 N 
ATOM     12  H   UNL     1       9.909  -2.542  21.918  0.00  0.00    +0.154 HD
BRANCH  11  13
ATOM     13  C   UNL     1       9.479  -0.758  22.715  0.00  0.00    +0.032 A 
ATOM     14  C   UNL     1       9.852  -0.336  23.999  0.00  0.00    +0.025 A 
ATOM     15  C   UNL     1      10.332   0.957  24.226  0.00  0.00    +0.022 A 
ATOM     16  C   UNL     1      10.381   1.865  23.176  0.00  0.00    +0.041 A 
ATOM     17 CL   UNL     1      11.044   3.432  23.430  0.00  0.00    -0.084 Cl
ATOM     18  C   UNL     1       9.904   1.505  21.917  0.00  0.00    +0.022 A 
ATOM     19  C   UNL     1       9.441   0.203  21.694  0.00  0.00    +0.025 A 
ENDBRANCH  11  13
ENDBRANCH   6  11
TORSDOF 4
ENDMDL
MODEL 3
REMARK VINA RESULT:      -6.2      1.427      1.719
REMARK  Name = 
REMARK  4 active torsions:
REMARK  status: ('A' for Active; 'I' for Inactive)
REMARK    1  A    between atoms: O_1  and  C_2
REMARK    2  A    between atoms: C_2  and  C_4
REMARK    3  A    between atoms: C_5  and  N_6
REMARK    4  A    between atoms: N_6  and  C_7
REMARK                            x       y       z     vdW  Elec       q    Type
REMARK                         _______ _______ _______ _____ _____    ______ ____
ROOT
ATOM      1  C   UNL     1       7.407  -4.902  25.367  0.00  0.00    +0.099 A 
ATOM      2  C   UNL     1       6.159  -5.540  25.389  0.00  0.00    +0.020 A 
ATOM      3  C   UNL     1       5.428  -5.672  24.213  0.00  0.00    +0.021 A 
ATOM      4  C   UNL     1       5.976  -5.160  23.057  0.00  0.00    +0.113 A 
ATOM      5  N   UNL     1       7.159  -4.515  23.022  0.00  0.00    -0.239 NA
ATOM      6  C   UNL     1       7.874  -4.355  24.163  0.00  0.00    +0.137 A 
ENDROOT
BRANCH   1   7
ATOM      7  C   UNL     1       8.137  -4.800  26.645  0.00  0.00    +0.340 C 
ATOM      8  O   UNL     1       8.814  -3.828  26.936  0.00  0.00    -0.245 OA
BRANCH   7   9
ATOM      9  O   UNL     1       7.961  -5.852  27.473  0.00  0.00    -0.477 OA
ATOM     10  H   UNL     1       7.385  -5.675  28.246  0.00  0.00    +0.295 HD
ENDBRANCH   7   9
ENDBRANCH   1   7
BRANCH   6  11
ATOM     11  N   UNL     1       9.118  -3.652  24.107  0.00  0.00    -0.299 N 
ATOM     12  H   UNL     1       9.586  -3.746  25.010  0.00  0.00    +0.154 HD
BRANCH  11  13
ATOM     13  C   UNL     1       9.264  -2.308  23.655  0.00  0.00    +0.032 A 
ATOM     14  C   UNL     1       9.490  -1.235  24.529  0.00  0.00    +0.025 A 
ATOM     15  C   UNL     1       9.781   0.044  24.045  0.00  0.00    +0.022 A 
ATOM     16  C   UNL     1       9.782   0.276  22.676  0.00  0.00    +0.041 A 
ATOM     17 CL   UNL     1      10.216   1.827  22.072  0.00  0.00    -0.084 Cl
ATOM     18  C   UNL     1       9.444  -0.747  21.793  0.00  0.00    +0.022 A 
ATOM     19  C   UNL     1       9.171  -2.029  22.284  0.00  0.00    +0.025 A 
ENDBRANCH  11  13
ENDBRANCH   6  11
TORSDOF 4
ENDMDL
MODEL 4
REMARK VINA RESULT:      -5.9      2.769      3.430
REMARK  Name = 
REMARK  4 active torsions:
REMARK  status: ('A' for Active; 'I' for Inactive)
REMARK    1  A    between atoms: O_1  and  C_2
REMARK    2  A    between atoms: C_2  and  C_4
REMARK    3  A    between atoms: C_5  and  N_6
REMARK    4  A    between atoms: N_6  and  C_7
REMARK                            x       y       z     vdW  Elec       q    Type
REMARK                         _______ _______ _______ _____ _____    ______ ____
ROOT
ATOM      1  C   UNL     1       6.329  -4.822  23.861  0.00  0.00    +0.099 A 
ATOM      2  C   UNL     1       5.978  -5.516  25.027  0.00  0.00    +0.020 A 
ATOM      3  C   UNL     1       6.832  -5.504  26.124  0.00  0.00    +0.021 A 
ATOM      4  C   UNL     1       8.009  -4.795  26.012  0.00  0.00    +0.113 A 
ATOM      5  N   UNL     1       8.379  -4.150  24.888  0.00  0.00    -0.239 NA
ATOM      6  C   UNL     1       7.571  -4.172  23.801  0.00  0.00    +0.137 A 
ENDROOT
BRANCH   1   7
ATOM      7  C   UNL     1       5.378  -4.867  22.734  0.00  0.00    +0.340 C 
ATOM      8  O   UNL     1       4.945  -3.859  22.202  0.00  0.00    -0.245 OA
BRANCH   7   9
ATOM      9  O   UNL     1       5.060  -6.114  22.322  0.00  0.00    -0.477 OA
ATOM     10  H   UNL     1       4.617  -6.669  22.998  0.00  0.00    +0.295 HD
ENDBRANCH   7   9
ENDBRANCH   1   7
BRANCH   6  11
ATOM     11  N   UNL     1       7.990  -3.496  22.612  0.00  0.00    -0.299 N 
ATOM     12  H   UNL     1       8.821  -3.964  22.247  0.00  0.00    +0.154 HD
BRANCH  11  13
ATOM     13  C   UNL     1       8.179  -2.087  22.511  0.00  0.00    +0.032 A 
ATOM     14  C   UNL     1       9.286  -1.515  21.867  0.00  0.00    +0.025 A 
ATOM     15  C   UNL     1       9.365  -0.136  21.650  0.00  0.00    +0.022 A 
ATOM     16  C   UNL     1       8.365   0.694  22.138  0.00  0.00    +0.041 A 
ATOM     17 CL   UNL     1       8.416   2.381  21.808  0.00  0.00    -0.084 Cl
ATOM     18  C   UNL     1       7.316   0.162  22.884  0.00  0.00    +0.022 A 
ATOM     19  C   UNL     1       7.234  -1.222  23.082  0.00  0.00    +0.025 A 
ENDBRANCH  11  13
ENDBRANCH   6  11
TORSDOF 4
ENDMDL
MODEL 5
REMARK VINA RESULT:      -5.8      3.967      6.180
REMARK  Name = 
REMARK  4 active torsions:
REMARK  status: ('A' for Active; 'I' for Inactive)
REMARK    1  A    between atoms: O_1  and  C_2
REMARK    2  A    between atoms: C_2  and  C_4
REMARK    3  A    between atoms: C_5  and  N_6
REMARK    4  A    between atoms: N_6  and  C_7
REMARK                            x       y       z     vdW  Elec       q    Type
REMARK                         _______ _______ _______ _____ _____    ______ ____
ROOT
ATOM      1  C   UNL     1       8.994   1.000  23.261  0.00  0.00    +0.099 A 
ATOM      2  C   UNL     1       8.472   2.199  23.763  0.00  0.00    +0.020 A 
ATOM      3  C   UNL     1       7.934   2.237  25.045  0.00  0.00    +0.021 A 
ATOM      4  C   UNL     1       7.939   1.069  25.777  0.00  0.00    +0.113 A 
ATOM      5  N   UNL     1       8.406  -0.101  25.298  0.00  0.00    -0.239 NA
ATOM      6  C   UNL     1       8.913  -0.162  24.043  0.00  0.00    +0.137 A 
ENDROOT
BRANCH   1   7
ATOM      7  C   UNL     1       9.558   1.026  21.897  0.00  0.00    +0.340 C 
ATOM      8  O   UNL     1       9.447   0.088  21.125  0.00  0.00    -0.245 OA
BRANCH   7   9
ATOM      9  O   UNL     1      10.170   2.184  21.569  0.00  0.00    -0.477 OA
ATOM     10  H   UNL     1      11.135   2.201  21.740  0.00  0.00    +0.295 HD
ENDBRANCH   7   9
ENDBRANCH   1   7
BRANCH   6  11
ATOM     11  N   UNL     1       9.387  -1.417  23.547  0.00  0.00    -0.299 N 
ATOM     12  H   UNL     1       9.946  -1.247  22.711  0.00  0.00    +0.154 HD
BRANCH  11  13
ATOM     13  C   UNL     1       8.562  -2.557  23.321  0.00  0.00    +0.032 A 
ATOM     14  C   UNL     1       7.546  -2.578  22.354  0.00  0.00    +0.025 A 
ATOM     15  C   UNL     1       6.859  -3.757  22.052  0.00  0.00    +0.022 A 
ATOM     16  C   UNL     1       7.136  -4.916  22.764  0.00  0.00    +0.041 A 
ATOM     17 CL   UNL     1       6.351  -6.387  22.344  0.00  0.00    -0.084 Cl
ATOM     18  C   UNL     1       8.056  -4.891  23.810  0.00  0.00    +0.022 A 
ATOM     19  C   UNL     1       8.754  -3.711  24.096  0.00  0.00    +0.025 A 
ENDBRANCH  11  13
ENDBRANCH   6  11
TORSDOF 4
ENDMDL
MODEL 6
REMARK VINA RESULT:      -5.7      2.309      3.091
REMARK  Name = 
REMARK  4 active torsions:
REMARK  status: ('A' for Active; 'I' for Inactive)
REMARK    1  A    between atoms: O_1  and  C_2
REMARK    2  A    between atoms: C_2  and  C_4
REMARK    3  A    between atoms: C_5  and  N_6
REMARK    4  A    between atoms: N_6  and  C_7
REMARK                            x       y       z     vdW  Elec       q    Type
REMARK                         _______ _______ _______ _____ _____    ______ ____
ROOT
ATOM      1  C   UNL     1       6.104  -4.412  22.957  0.00  0.00    +0.099 A 
ATOM      2  C   UNL     1       4.748  -4.560  23.282  0.00  0.00    +0.020 A 
ATOM      3  C   UNL     1       4.180  -3.758  24.266  0.00  0.00    +0.021 A 
ATOM      4  C   UNL     1       4.992  -2.835  24.888  0.00  0.00    +0.113 A 
ATOM      5  N   UNL     1       6.305  -2.701  24.612  0.00  0.00    -0.239 NA
ATOM      6  C   UNL     1       6.881  -3.491  23.674  0.00  0.00    +0.137 A 
ENDROOT
BRANCH   1   7
ATOM      7  C   UNL     1       6.645  -5.288  21.900  0.00  0.00    +0.340 C 
ATOM      8  O   UNL     1       7.590  -6.035  22.090  0.00  0.00    -0.245 OA
BRANCH   7   9
ATOM      9  O   UNL     1       5.985  -5.216  20.724  0.00  0.00    -0.477 OA
ATOM     10  H   UNL     1       5.149  -5.726  20.691  0.00  0.00    +0.295 HD
ENDBRANCH   7   9
ENDBRANCH   1   7
BRANCH   6  11
ATOM     11  N   UNL     1       8.279  -3.345  23.409  0.00  0.00    -0.299 N 
ATOM     12  H   UNL     1       8.802  -3.779  24.171  0.00  0.00    +0.154 HD
BRANCH  11  13
ATOM     13  C   UNL     1       8.910  -2.113  23.066  0.00  0.00    +0.032 A 
ATOM     14  C   UNL     1       8.883  -1.584  21.767  0.00  0.00    +0.025 A 
ATOM     15  C   UNL     1       9.377  -0.305  21.497  0.00  0.00    +0.022 A 
ATOM     16  C   UNL     1       9.967   0.433  22.514  0.00  0.00    +0.041 A 
ATOM     17 CL   UNL     1      10.506   2.037  22.206  0.00  0.00    -0.084 Cl
ATOM     18  C   UNL     1      10.113  -0.119  23.785  0.00  0.00    +0.022 A 
ATOM     19  C   UNL     1       9.599  -1.395  24.053  0.00  0.00    +0.025 A 
ENDBRANCH  11  13
ENDBRANCH   6  11
TORSDOF 4
ENDMDL
MODEL 7
REMARK VINA RESULT:      -5.6      3.284      5.732
REMARK  Name = 
REMARK  4 active torsions:
REMARK  status: ('A' for Active; 'I' for Inactive)
REMARK    1  A    between atoms: O_1  and  C_2
REMARK    2  A    between atoms: C_2  and  C_4
REMARK    3  A    between atoms: C_5  and  N_6
REMARK    4  A    between atoms: N_6  and  C_7
REMARK                            x       y       z     vdW  Elec       q    Type
REMARK                         _______ _______ _______ _____ _____    ______ ____
ROOT
ATOM      1  C   UNL     1       9.010   0.631  24.542  0.00  0.00    +0.099 A 
ATOM      2  C   UNL     1       8.909   1.985  24.195  0.00  0.00    +0.020 A 
ATOM      3  C   UNL     1       9.438   2.433  22.990  0.00  0.00    +0.021 A 
ATOM      4  C   UNL     1      10.050   1.505  22.175  0.00  0.00    +0.113 A 
ATOM      5  N   UNL     1      10.187   0.206  22.507  0.00  0.00    -0.239 NA
ATOM      6  C   UNL     1       9.698  -0.243  23.688  0.00  0.00    +0.137 A 
ENDROOT
BRANCH   1   7
ATOM      7  C   UNL     1       8.422   0.217  25.831  0.00  0.00    +0.340 C 
ATOM      8  O   UNL     1       7.232   0.327  26.073  0.00  0.00    -0.245 OA
BRANCH   7   9
ATOM      9  O   UNL     1       9.305  -0.325  26.698  0.00  0.00    -0.477 OA
ATOM     10  H   UNL     1       9.581   0.268  27.428  0.00  0.00    +0.295 HD
ENDBRANCH   7   9
ENDBRANCH   1   7
BRANCH   6  11
ATOM     11  N   UNL     1       9.869  -1.622  24.029  0.00  0.00    -0.299 N 
ATOM     12  H   UNL     1      10.809  -1.911  23.756  0.00  0.00    +0.154 HD
BRANCH  11  13
ATOM     13  C   UNL     1       8.954  -2.657  23.681  0.00  0.00    +0.032 A 
ATOM     14  C   UNL     1       8.000  -2.514  22.663  0.00  0.00    +0.025 A 
ATOM     15  C   UNL     1       7.222  -3.597  22.243  0.00  0.00    +0.022 A 
ATOM     16  C   UNL     1       7.344  -4.822  22.886  0.00  0.00    +0.041 A 
ATOM     17 CL   UNL     1       6.448  -6.177  22.324  0.00  0.00    -0.084 Cl
ATOM     18  C   UNL     1       8.200  -4.956  23.977  0.00  0.00    +0.022 A 
ATOM     19  C   UNL     1       8.989  -3.872  24.381  0.00  0.00    +0.025 A 
ENDBRANCH  11  13
ENDBRANCH   6  11
TORSDOF 4
ENDMDL
MODEL 8
REMARK VINA RESULT:      -5.5      3.497      5.904
REMARK  Name = 
REMARK  4 active torsions:
REMARK  status: ('A' for Active; 'I' for Inactive)
REMARK    1  A    between atoms: O_1  and  C_2
REMARK    2  A    between atoms: C_2  and  C_4
REMARK    3  A    between atoms: C_5  and  N_6
REMARK    4  A    between atoms: N_6  and  C_7
REMARK                            x       y       z     vdW  Elec       q    Type
REMARK                         _______ _______ _______ _____ _____    ______ ____
ROOT
ATOM      1  C   UNL     1       8.961  -3.834  24.218  0.00  0.00    +0.099 A 
ATOM      2  C   UNL     1       9.826  -2.743  24.052  0.00  0.00    +0.020 A 
ATOM      3  C   UNL     1       9.583  -1.814  23.046  0.00  0.00    +0.021 A 
ATOM      4  C   UNL     1       8.480  -2.011  22.244  0.00  0.00    +0.113 A 
ATOM      5  N   UNL     1       7.656  -3.071  22.368  0.00  0.00    -0.239 NA
ATOM      6  C   UNL     1       7.891  -4.000  23.326  0.00  0.00    +0.137 A 
ENDROOT
BRANCH   1   7
ATOM      7  C   UNL     1       9.268  -4.781  25.307  0.00  0.00    +0.340 C 
ATOM      8  O   UNL     1       8.475  -5.033  26.198  0.00  0.00    -0.245 OA
BRANCH   7   9
ATOM      9  O   UNL     1      10.481  -5.367  25.210  0.00  0.00    -0.477 OA
ATOM     10  H   UNL     1      10.816  -5.758  26.044  0.00  0.00    +0.295 HD
ENDBRANCH   7   9
ENDBRANCH   1   7
BRANCH   6  11
ATOM     11  N   UNL     1       7.016  -5.126  23.429  0.00  0.00    -0.299 N 
ATOM     12  H   UNL     1       7.126  -5.702  22.594  0.00  0.00    +0.154 HD
BRANCH  11  13
ATOM     13  C   UNL     1       5.628  -5.041  23.745  0.00  0.00    +0.032 A 
ATOM     14  C   UNL     1       5.132  -4.219  24.766  0.00  0.00    +0.025 A 
ATOM     15  C   UNL     1       3.758  -4.041  24.950  0.00  0.00    +0.022 A 
ATOM     16  C   UNL     1       2.862  -4.742  24.153  0.00  0.00    +0.041 A 
ATOM     17 CL   UNL     1       1.173  -4.469  24.321  0.00  0.00    -0.084 Cl
ATOM     18  C   UNL     1       3.331  -5.655  23.211  0.00  0.00    +0.022 A 
ATOM     19  C   UNL     1       4.709  -5.814  23.020  0.00  0.00    +0.025 A 
ENDBRANCH  11  13
ENDBRANCH   6  11
TORSDOF 4
ENDMDL
MODEL 9
REMARK VINA RESULT:      -5.5      2.512      3.173
REMARK  Name = 
REMARK  4 active torsions:
REMARK  status: ('A' for Active; 'I' for Inactive)
REMARK    1  A    between atoms: O_1  and  C_2
REMARK    2  A    between atoms: C_2  and  C_4
REMARK    3  A    between atoms: C_5  and  N_6
REMARK    4  A    between atoms: N_6  and  C_7
REMARK                            x       y       z     vdW  Elec       q    Type
REMARK                         _______ _______ _______ _____ _____    ______ ____
ROOT
ATOM      1  C   UNL     1       7.949  -2.921  24.059  0.00  0.00    +0.099 A 
ATOM      2  C   UNL     1       8.243  -4.276  23.849  0.00  0.00    +0.020 A 
ATOM      3  C   UNL     1       8.672  -5.064  24.912  0.00  0.00    +0.021 A 
ATOM      4  C   UNL     1       8.791  -4.465  26.147  0.00  0.00    +0.113 A 
ATOM      5  N   UNL     1       8.545  -3.157  26.361  0.00  0.00    -0.239 NA
ATOM      6  C   UNL     1       8.149  -2.368  25.333  0.00  0.00    +0.137 A 
ENDROOT
BRANCH   1   7
ATOM      7  C   UNL     1       7.491  -2.140  22.895  0.00  0.00    +0.340 C 
ATOM      8  O   UNL     1       8.185  -1.971  21.906  0.00  0.00    -0.245 OA
BRANCH   7   9
ATOM      9  O   UNL     1       6.233  -1.662  23.004  0.00  0.00    -0.477 OA
ATOM     10  H   UNL     1       5.584  -2.069  22.392  0.00  0.00    +0.295 HD
ENDBRANCH   7   9
ENDBRANCH   1   7
BRANCH   6  11
ATOM     11  N   UNL     1       7.911  -0.980  25.578  0.00  0.00    -0.299 N 
ATOM     12  H   UNL     1       6.959  -0.755  25.284  0.00  0.00    +0.154 HD
BRANCH  11  13
ATOM     13  C   UNL     1       8.777   0.072  25.159  0.00  0.00    +0.032 A 
ATOM     14  C   UNL     1      10.138  -0.130  24.887  0.00  0.00    +0.025 A 
ATOM     15  C   UNL     1      10.923   0.885  24.333  0.00  0.00    +0.022 A 
ATOM     16  C   UNL     1      10.369   2.138  24.109  0.00  0.00    +0.041 A 
ATOM     17 CL   UNL     1      11.308   3.368  23.357  0.00  0.00    -0.084 Cl
ATOM     18  C   UNL     1       9.052   2.398  24.483  0.00  0.00    +0.022 A 
ATOM     19  C   UNL     1       8.266   1.371  25.021  0.00  0.00    +0.025 A 
ENDBRANCH  11  13
ENDBRANCH   6  11
TORSDOF 4
ENDMDL
