MODEL 1
REMARK VINA RESULT:      -4.2      0.000      0.000
REMARK  Name = 
REMARK  6 active torsions:
REMARK  status: ('A' for Active; 'I' for Inactive)
REMARK    1  A    between atoms: O_1  and  C_2
REMARK    2  A    between atoms: C_2  and  C_4
REMARK    3  A    between atoms: C_2  and  C_9
REMARK    4  A    between atoms: C_4  and  S_5
REMARK    5  A    between atoms: S_5  and  O_6
REMARK    6  A    between atoms: C_9  and  O_10
REMARK                            x       y       z     vdW  Elec       q    Type
REMARK                         _______ _______ _______ _____ _____    ______ ____
ROOT
ATOM      1  C   UNL     1      10.350   0.712  23.588  0.00  0.00    +0.246 C 
ENDROOT
BRANCH   1   2
ATOM      2  O   UNL     1      10.586   0.873  25.003  0.00  0.00    -0.379 OA
ATOM      3  H   UNL     1      10.984   1.759  25.153  0.00  0.00    +0.211 HD
ENDBRANCH   1   2
BRANCH   1   4
ATOM      4  C   UNL     1      10.215   2.122  23.023  0.00  0.00    +0.335 C 
ATOM      5  O   UNL     1      10.168   3.140  23.694  0.00  0.00    -0.248 OA
BRANCH   4   6
ATOM      6  O   UNL     1      10.185   2.119  21.666  0.00  0.00    -0.479 OA
ATOM      7  H   UNL     1      10.406   3.038  21.369  0.00  0.00    +0.295 HD
ENDBRANCH   4   6
ENDBRANCH   1   4
BRANCH   1   8
ATOM      8  C   UNL     1       9.059  -0.028  23.296  0.00  0.00    +0.240 C 
BRANCH   8   9
ATOM      9  S   UNL     1       9.398  -1.406  22.237  0.00  0.00    +0.083 S 
ATOM     10  O   UNL     1       8.244  -2.275  22.238  0.00  0.00    -0.147 OA
ATOM     11  O   UNL     1      10.730  -1.898  22.499  0.00  0.00    -0.147 OA
BRANCH   9  12
ATOM     12  O   UNL     1       9.469  -0.626  20.831  0.00  0.00    -0.254 OA
ATOM     13  H   UNL     1       8.566  -0.592  20.448  0.00  0.00    +0.244 HD
ENDBRANCH   9  12
ENDBRANCH   8   9
ENDBRANCH   1   8
TORSDOF 6
ENDMDL
MODEL 2
REMARK VINA RESULT:      -4.1      6.176      8.091
REMARK  Name = 
REMARK  6 active torsions:
REMARK  status: ('A' for Active; 'I' for Inactive)
REMARK    1  A    between atoms: O_1  and  C_2
REMARK    2  A    between atoms: C_2  and  C_4
REMARK    3  A    between atoms: C_2  and  C_9
REMARK    4  A    between atoms: C_4  and  S_5
REMARK    5  A    between atoms: S_5  and  O_6
REMARK    6  A    between atoms: C_9  and  O_10
REMARK                            x       y       z     vdW  Elec       q    Type
REMARK                         _______ _______ _______ _____ _____    ______ ____
ROOT
ATOM      1  C   UNL     1       6.669  -5.482  26.793  0.00  0.00    +0.246 C 
ENDROOT
BRANCH   1   2
ATOM      2  O   UNL     1       7.602  -6.108  27.699  0.00  0.00    -0.379 OA
ATOM      3  H   UNL     1       8.396  -5.535  27.774  0.00  0.00    +0.211 HD
ENDBRANCH   1   2
BRANCH   1   4
ATOM      4  C   UNL     1       5.500  -6.451  26.659  0.00  0.00    +0.335 C 
ATOM      5  O   UNL     1       4.740  -6.498  25.705  0.00  0.00    -0.248 OA
BRANCH   4   6
ATOM      6  O   UNL     1       5.419  -7.292  27.721  0.00  0.00    -0.479 OA
ATOM      7  H   UNL     1       4.462  -7.356  27.969  0.00  0.00    +0.295 HD
ENDBRANCH   4   6
ENDBRANCH   1   4
BRANCH   1   8
ATOM      8  C   UNL     1       7.256  -5.270  25.410  0.00  0.00    +0.240 C 
BRANCH   8   9
ATOM      9  S   UNL     1       8.910  -4.659  25.560  0.00  0.00    +0.083 S 
ATOM     10  O   UNL     1       9.035  -3.991  26.834  0.00  0.00    -0.147 OA
ATOM     11  O   UNL     1       9.304  -4.030  24.321  0.00  0.00    -0.147 OA
BRANCH   9  12
ATOM     12  O   UNL     1       9.688  -6.067  25.624  0.00  0.00    -0.254 OA
ATOM     13  H   UNL     1      10.298  -6.052  26.393  0.00  0.00    +0.244 HD
ENDBRANCH   9  12
ENDBRANCH   8   9
ENDBRANCH   1   8
TORSDOF 6
ENDMDL
MODEL 3
REMARK VINA RESULT:      -4.1      1.835      3.793
REMARK  Name = 
REMARK  6 active torsions:
REMARK  status: ('A' for Active; 'I' for Inactive)
REMARK    1  A    between atoms: O_1  and  C_2
REMARK    2  A    between atoms: C_2  and  C_4
REMARK    3  A    between atoms: C_2  and  C_9
REMARK    4  A    between atoms: C_4  and  S_5
REMARK    5  A    between atoms: S_5  and  O_6
REMARK    6  A    between atoms: C_9  and  O_10
REMARK                            x       y       z     vdW  Elec       q    Type
REMARK                         _______ _______ _______ _____ _____    ______ ____
ROOT
ATOM      1  C   UNL     1       9.612  -0.381  23.428  0.00  0.00    +0.246 C 
ENDROOT
BRANCH   1   2
ATOM      2  O   UNL     1      10.797   0.427  23.589  0.00  0.00    -0.379 OA
ATOM      3  H   UNL     1      11.364   0.014  24.276  0.00  0.00    +0.211 HD
ENDBRANCH   1   2
BRANCH   1   4
ATOM      4  C   UNL     1      10.095  -1.738  22.928  0.00  0.00    +0.335 C 
ATOM      5  O   UNL     1      10.231  -2.730  23.625  0.00  0.00    -0.248 OA
BRANCH   4   6
ATOM      6  O   UNL     1      10.331  -1.727  21.591  0.00  0.00    -0.479 OA
ATOM      7  H   UNL     1      11.278  -1.465  21.464  0.00  0.00    +0.295 HD
ENDBRANCH   4   6
ENDBRANCH   1   4
BRANCH   1   8
ATOM      8  C   UNL     1       8.661   0.182  22.390  0.00  0.00    +0.240 C 
BRANCH   8   9
ATOM      9  S   UNL     1       8.702   1.950  22.452  0.00  0.00    +0.083 S 
ATOM     10  O   UNL     1       8.918   2.353  23.823  0.00  0.00    -0.147 OA
ATOM     11  O   UNL     1       7.624   2.485  21.655  0.00  0.00    -0.147 OA
BRANCH   9  12
ATOM     12  O   UNL     1      10.054   2.195  21.612  0.00  0.00    -0.254 OA
ATOM     13  H   UNL     1      10.063   3.125  21.300  0.00  0.00    +0.244 HD
ENDBRANCH   9  12
ENDBRANCH   8   9
ENDBRANCH   1   8
TORSDOF 6
ENDMDL
MODEL 4
REMARK VINA RESULT:      -4.0      2.048      3.920
REMARK  Name = 
REMARK  6 active torsions:
REMARK  status: ('A' for Active; 'I' for Inactive)
REMARK    1  A    between atoms: O_1  and  C_2
REMARK    2  A    between atoms: C_2  and  C_4
REMARK    3  A    between atoms: C_2  and  C_9
REMARK    4  A    between atoms: C_4  and  S_5
REMARK    5  A    between atoms: S_5  and  O_6
REMARK    6  A    between atoms: C_9  and  O_10
REMARK                            x       y       z     vdW  Elec       q    Type
REMARK                         _______ _______ _______ _____ _____    ______ ____
ROOT
ATOM      1  C   UNL     1       9.002  -1.280  22.432  0.00  0.00    +0.246 C 
ENDROOT
BRANCH   1   2
ATOM      2  O   UNL     1       7.736  -0.765  22.894  0.00  0.00    -0.379 OA
ATOM      3  H   UNL     1       7.221  -1.506  23.282  0.00  0.00    +0.211 HD
ENDBRANCH   1   2
BRANCH   1   4
ATOM      4  C   UNL     1       9.697  -1.850  23.664  0.00  0.00    +0.335 C 
ATOM      5  O   UNL     1      10.261  -2.931  23.707  0.00  0.00    -0.248 OA
BRANCH   4   6
ATOM      6  O   UNL     1       9.644  -0.992  24.714  0.00  0.00    -0.479 OA
ATOM      7  H   UNL     1       9.277  -1.497  25.484  0.00  0.00    +0.295 HD
ENDBRANCH   4   6
ENDBRANCH   1   4
BRANCH   1   8
ATOM      8  C   UNL     1       9.895  -0.197  21.858  0.00  0.00    +0.240 C 
BRANCH   8   9
ATOM      9  S   UNL     1       9.154   1.386  22.136  0.00  0.00    +0.083 S 
ATOM     10  O   UNL     1       9.041   1.592  23.561  0.00  0.00    -0.147 OA
ATOM     11  O   UNL     1       8.031   1.555  21.244  0.00  0.00    -0.147 OA
BRANCH   9  12
ATOM     12  O   UNL     1      10.336   2.316  21.561  0.00  0.00    -0.254 OA
ATOM     13  H   UNL     1      11.190   1.988  21.914  0.00  0.00    +0.244 HD
ENDBRANCH   9  12
ENDBRANCH   8   9
ENDBRANCH   1   8
TORSDOF 6
ENDMDL
MODEL 5
REMARK VINA RESULT:      -4.0      4.901      6.626
REMARK  Name = 
REMARK  6 active torsions:
REMARK  status: ('A' for Active; 'I' for Inactive)
REMARK    1  A    between atoms: O_1  and  C_2
REMARK    2  A    between atoms: C_2  and  C_4
REMARK    3  A    between atoms: C_2  and  C_9
REMARK    4  A    between atoms: C_4  and  S_5
REMARK    5  A    between atoms: S_5  and  O_6
REMARK    6  A    between atoms: C_9  and  O_10
REMARK                            x       y       z     vdW  Elec       q    Type
REMARK                         _______ _______ _______ _____ _____    ______ ____
ROOT
ATOM      1  C   UNL     1       8.364  -4.513  26.731  0.00  0.00    +0.246 C 
ENDROOT
BRANCH   1   2
ATOM      2  O   UNL     1       9.534  -5.244  26.307  0.00  0.00    -0.379 OA
ATOM      3  H   UNL     1      10.165  -4.612  25.899  0.00  0.00    +0.211 HD
ENDBRANCH   1   2
BRANCH   1   4
ATOM      4  C   UNL     1       7.334  -5.564  27.128  0.00  0.00    +0.335 C 
ATOM      5  O   UNL     1       7.183  -6.001  28.258  0.00  0.00    -0.248 OA
BRANCH   4   6
ATOM      6  O   UNL     1       6.568  -5.943  26.073  0.00  0.00    -0.479 OA
ATOM      7  H   UNL     1       5.869  -6.551  26.424  0.00  0.00    +0.295 HD
ENDBRANCH   4   6
ENDBRANCH   1   4
BRANCH   1   8
ATOM      8  C   UNL     1       7.765  -3.677  25.616  0.00  0.00    +0.240 C 
BRANCH   8   9
ATOM      9  S   UNL     1       8.646  -3.986  24.112  0.00  0.00    +0.083 S 
ATOM     10  O   UNL     1       8.447  -5.368  23.743  0.00  0.00    -0.147 OA
ATOM     11  O   UNL     1       9.960  -3.394  24.193  0.00  0.00    -0.147 OA
BRANCH   9  12
ATOM     12  O   UNL     1       7.784  -3.048  23.126  0.00  0.00    -0.254 OA
ATOM     13  H   UNL     1       6.876  -2.967  23.488  0.00  0.00    +0.244 HD
ENDBRANCH   9  12
ENDBRANCH   8   9
ENDBRANCH   1   8
TORSDOF 6
ENDMDL
MODEL 6
REMARK VINA RESULT:      -4.0      1.789      2.961
REMARK  Name = 
REMARK  6 active torsions:
REMARK  status: ('A' for Active; 'I' for Inactive)
REMARK    1  A    between atoms: O_1  and  C_2
REMARK    2  A    between atoms: C_2  and  C_4
REMARK    3  A    between atoms: C_2  and  C_9
REMARK    4  A    between atoms: C_4  and  S_5
REMARK    5  A    between atoms: S_5  and  O_6
REMARK    6  A    between atoms: C_9  and  O_10
REMARK                            x       y       z     vdW  Elec       q    Type
REMARK                         _______ _______ _______ _____ _____    ______ ____
ROOT
ATOM      1  C   UNL     1       8.607   0.486  22.274  0.00  0.00    +0.246 C 
ENDROOT
BRANCH   1   2
ATOM      2  O   UNL     1       9.766  -0.223  21.788  0.00  0.00    -0.379 OA
ATOM      3  H   UNL     1      10.462   0.433  21.565  0.00  0.00    +0.211 HD
ENDBRANCH   1   2
BRANCH   1   4
ATOM      4  C   UNL     1       8.809   1.943  21.872  0.00  0.00    +0.335 C 
ATOM      5  O   UNL     1       7.923   2.781  21.822  0.00  0.00    -0.248 OA
BRANCH   4   6
ATOM      6  O   UNL     1      10.111   2.215  21.602  0.00  0.00    -0.479 OA
ATOM      7  H   UNL     1      10.436   2.820  22.317  0.00  0.00    +0.295 HD
ENDBRANCH   4   6
ENDBRANCH   1   4
BRANCH   1   8
ATOM      8  C   UNL     1       8.486   0.436  23.785  0.00  0.00    +0.240 C 
BRANCH   8   9
ATOM      9  S   UNL     1       9.976  -0.228  24.472  0.00  0.00    +0.083 S 
ATOM     10  O   UNL     1      11.064   0.667  24.151  0.00  0.00    -0.147 OA
ATOM     11  O   UNL     1      10.041  -1.644  24.202  0.00  0.00    -0.147 OA
BRANCH   9  12
ATOM     12  O   UNL     1       9.615  -0.078  26.034  0.00  0.00    -0.254 OA
ATOM     13  H   UNL     1      10.386   0.317  26.495  0.00  0.00    +0.244 HD
ENDBRANCH   9  12
ENDBRANCH   8   9
ENDBRANCH   1   8
TORSDOF 6
ENDMDL
MODEL 7
REMARK VINA RESULT:      -4.0      1.358      2.601
REMARK  Name = 
REMARK  6 active torsions:
REMARK  status: ('A' for Active; 'I' for Inactive)
REMARK    1  A    between atoms: O_1  and  C_2
REMARK    2  A    between atoms: C_2  and  C_4
REMARK    3  A    between atoms: C_2  and  C_9
REMARK    4  A    between atoms: C_4  and  S_5
REMARK    5  A    between atoms: S_5  and  O_6
REMARK    6  A    between atoms: C_9  and  O_10
REMARK                            x       y       z     vdW  Elec       q    Type
REMARK                         _______ _______ _______ _____ _____    ______ ____
ROOT
ATOM      1  C   UNL     1       9.043  -0.010  21.837  0.00  0.00    +0.246 C 
ENDROOT
BRANCH   1   2
ATOM      2  O   UNL     1       9.886  -1.013  21.233  0.00  0.00    -0.379 OA
ATOM      3  H   UNL     1      10.477  -0.574  20.583  0.00  0.00    +0.211 HD
ENDBRANCH   1   2
BRANCH   1   4
ATOM      4  C   UNL     1       9.985   1.070  22.357  0.00  0.00    +0.335 C 
ATOM      5  O   UNL     1      10.612   1.004  23.402  0.00  0.00    -0.248 OA
BRANCH   4   6
ATOM      6  O   UNL     1      10.074   2.117  21.498  0.00  0.00    -0.479 OA
ATOM      7  H   UNL     1      10.889   2.625  21.741  0.00  0.00    +0.295 HD
ENDBRANCH   4   6
ENDBRANCH   1   4
BRANCH   1   8
ATOM      8  C   UNL     1       8.257  -0.545  23.018  0.00  0.00    +0.240 C 
BRANCH   8   9
ATOM      9  S   UNL     1       8.651  -2.254  23.261  0.00  0.00    +0.083 S 
ATOM     10  O   UNL     1      10.058  -2.357  23.573  0.00  0.00    -0.147 OA
ATOM     11  O   UNL     1       8.035  -3.043  22.220  0.00  0.00    -0.147 OA
BRANCH   9  12
ATOM     12  O   UNL     1       7.794  -2.517  24.599  0.00  0.00    -0.254 OA
ATOM     13  H   UNL     1       8.280  -3.161  25.158  0.00  0.00    +0.244 HD
ENDBRANCH   9  12
ENDBRANCH   8   9
ENDBRANCH   1   8
TORSDOF 6
ENDMDL
MODEL 8
REMARK VINA RESULT:      -3.9      5.462      6.685
REMARK  Name = 
REMARK  6 active torsions:
REMARK  status: ('A' for Active; 'I' for Inactive)
REMARK    1  A    between atoms: O_1  and  C_2
REMARK    2  A    between atoms: C_2  and  C_4
REMARK    3  A    between atoms: C_2  and  C_9
REMARK    4  A    between atoms: C_4  and  S_5
REMARK    5  A    between atoms: S_5  and  O_6
REMARK    6  A    between atoms: C_9  and  O_10
REMARK                            x       y       z     vdW  Elec       q    Type
REMARK                         _______ _______ _______ _____ _____    ______ ____
ROOT
ATOM      1  C   UNL     1       7.831  -4.818  24.814  0.00  0.00    +0.246 C 
ENDROOT
BRANCH   1   2
ATOM      2  O   UNL     1       8.959  -5.474  24.198  0.00  0.00    -0.379 OA
ATOM      3  H   UNL     1       9.633  -5.651  24.890  0.00  0.00    +0.211 HD
ENDBRANCH   1   2
BRANCH   1   4
ATOM      4  C   UNL     1       7.769  -5.345  26.243  0.00  0.00    +0.335 C 
ATOM      5  O   UNL     1       6.864  -6.027  26.695  0.00  0.00    -0.248 OA
BRANCH   4   6
ATOM      6  O   UNL     1       8.868  -4.993  26.958  0.00  0.00    -0.479 OA
ATOM      7  H   UNL     1       8.881  -4.003  27.002  0.00  0.00    +0.295 HD
ENDBRANCH   4   6
ENDBRANCH   1   4
BRANCH   1   8
ATOM      8  C   UNL     1       6.518  -5.161  24.137  0.00  0.00    +0.240 C 
BRANCH   8   9
ATOM      9  S   UNL     1       6.650  -4.841  22.401  0.00  0.00    +0.083 S 
ATOM     10  O   UNL     1       5.365  -4.388  21.923  0.00  0.00    -0.147 OA
ATOM     11  O   UNL     1       7.369  -5.921  21.766  0.00  0.00    -0.147 OA
BRANCH   9  12
ATOM     12  O   UNL     1       7.662  -3.591  22.456  0.00  0.00    -0.254 OA
ATOM     13  H   UNL     1       8.199  -3.588  21.635  0.00  0.00    +0.244 HD
ENDBRANCH   9  12
ENDBRANCH   8   9
ENDBRANCH   1   8
TORSDOF 6
ENDMDL
MODEL 9
REMARK VINA RESULT:      -3.9      5.439      6.707
REMARK  Name = 
REMARK  6 active torsions:
REMARK  status: ('A' for Active; 'I' for Inactive)
REMARK    1  A    between atoms: O_1  and  C_2
REMARK    2  A    between atoms: C_2  and  C_4
REMARK    3  A    between atoms: C_2  and  C_9
REMARK    4  A    between atoms: C_4  and  S_5
REMARK    5  A    between atoms: S_5  and  O_6
REMARK    6  A    between atoms: C_9  and  O_10
REMARK                            x       y       z     vdW  Elec       q    Type
REMARK                         _______ _______ _______ _____ _____    ______ ____
ROOT
ATOM      1  C   UNL     1       7.381  -4.349  24.454  0.00  0.00    +0.246 C 
ENDROOT
BRANCH   1   2
ATOM      2  O   UNL     1       8.141  -3.846  23.335  0.00  0.00    -0.379 OA
ATOM      3  H   UNL     1       8.243  -4.569  22.678  0.00  0.00    +0.211 HD
ENDBRANCH   1   2
BRANCH   1   4
ATOM      4  C   UNL     1       8.310  -5.303  25.197  0.00  0.00    +0.335 C 
ATOM      5  O   UNL     1       8.121  -5.720  26.328  0.00  0.00    -0.248 OA
BRANCH   4   6
ATOM      6  O   UNL     1       9.372  -5.667  24.435  0.00  0.00    -0.479 OA
ATOM      7  H   UNL     1       9.757  -6.484  24.842  0.00  0.00    +0.295 HD
ENDBRANCH   4   6
ENDBRANCH   1   4
BRANCH   1   8
ATOM      8  C   UNL     1       6.161  -5.138  24.020  0.00  0.00    +0.240 C 
BRANCH   8   9
ATOM      9  S   UNL     1       6.207  -5.377  22.267  0.00  0.00    +0.083 S 
ATOM     10  O   UNL     1       7.440  -6.051  21.932  0.00  0.00    -0.147 OA
ATOM     11  O   UNL     1       5.791  -4.163  21.605  0.00  0.00    -0.147 OA
BRANCH   9  12
ATOM     12  O   UNL     1       4.984  -6.414  22.126  0.00  0.00    -0.254 OA
ATOM     13  H   UNL     1       4.722  -6.461  21.182  0.00  0.00    +0.244 HD
ENDBRANCH   9  12
ENDBRANCH   8   9
ENDBRANCH   1   8
TORSDOF 6
ENDMDL
