MODEL 1
REMARK VINA RESULT:      -5.2      0.000      0.000
REMARK  Name = 
REMARK  8 active torsions:
REMARK  status: ('A' for Active; 'I' for Inactive)
REMARK    1  A    between atoms: C_2  and  C_3
REMARK    2  A    between atoms: C_8  and  C_10
REMARK    3  A    between atoms: C_10  and  C_11
REMARK    4  A    between atoms: C_11  and  C_12
REMARK    5  A    between atoms: C_12  and  C_13
REMARK    6  A    between atoms: C_13  and  C_14
REMARK    7  A    between atoms: C_14  and  C_15
REMARK    8  A    between atoms: C_15  and  O_16
REMARK                            x       y       z     vdW  Elec       q    Type
REMARK                         _______ _______ _______ _____ _____    ______ ____
ROOT
ATOM      1  C   UNL     1       8.866   1.100  21.851  0.00  0.00    +0.092 C 
ATOM      2  C   UNL     1       8.411   1.122  23.331  0.00  0.00    +0.094 C 
ATOM      3  N   UNL     1       9.548   1.724  23.995  0.00  0.00    -0.295 N 
ATOM      4  H   UNL     1       9.574   2.010  24.965  0.00  0.00    +0.151 HD
ATOM      5  C   UNL     1      10.290   2.468  23.095  0.00  0.00    +0.300 C 
ATOM      6  O   UNL     1      11.172   3.255  23.377  0.00  0.00    -0.253 OA
ATOM      7  N   UNL     1       9.839   2.169  21.826  0.00  0.00    -0.295 N 
ATOM      8  H   UNL     1      10.310   2.542  21.012  0.00  0.00    +0.151 HD
ATOM      9  C   UNL     1       9.520  -0.198  21.388  0.00  0.00    +0.030 C 
ENDROOT
BRANCH   2  10
ATOM     10  C   UNL     1       7.994  -0.216  23.946  0.00  0.00    +0.024 C 
BRANCH  10  11
ATOM     11  C   UNL     1       8.931  -0.648  25.080  0.00  0.00    +0.002 C 
BRANCH  11  12
ATOM     12  C   UNL     1       8.756  -2.128  25.424  0.00  0.00    +0.001 C 
BRANCH  12  13
ATOM     13  C   UNL     1       9.298  -3.020  24.307  0.00  0.00    +0.011 C 
BRANCH  13  14
ATOM     14  C   UNL     1       8.561  -4.355  24.244  0.00  0.00    +0.120 C 
BRANCH  14  15
ATOM     15  C   UNL     1       8.961  -5.273  25.377  0.00  0.00    +0.305 C 
ATOM     16  O   UNL     1       8.204  -5.742  26.209  0.00  0.00    -0.251 OA
BRANCH  15  17
ATOM     17  O   UNL     1      10.290  -5.534  25.378  0.00  0.00    -0.481 OA
ATOM     18  H   UNL     1      10.788  -5.049  24.694  0.00  0.00    +0.295 HD
ENDBRANCH  15  17
ENDBRANCH  14  15
ENDBRANCH  13  14
ENDBRANCH  12  13
ENDBRANCH  11  12
ENDBRANCH  10  11
ENDBRANCH   2  10
TORSDOF 7
ENDMDL
MODEL 2
REMARK VINA RESULT:      -5.1      3.389      6.875
REMARK  Name = 
REMARK  8 active torsions:
REMARK  status: ('A' for Active; 'I' for Inactive)
REMARK    1  A    between atoms: C_2  and  C_3
REMARK    2  A    between atoms: C_8  and  C_10
REMARK    3  A    between atoms: C_10  and  C_11
REMARK    4  A    between atoms: C_11  and  C_12
REMARK    5  A    between atoms: C_12  and  C_13
REMARK    6  A    between atoms: C_13  and  C_14
REMARK    7  A    between atoms: C_14  and  C_15
REMARK    8  A    between atoms: C_15  and  O_16
REMARK                            x       y       z     vdW  Elec       q    Type
REMARK                         _______ _______ _______ _____ _____    ______ ____
ROOT
ATOM      1  C   UNL     1       8.860  -4.541  26.476  0.00  0.00    +0.092 C 
ATOM      2  C   UNL     1       7.765  -3.547  26.018  0.00  0.00    +0.094 C 
ATOM      3  N   UNL     1       6.643  -4.423  25.755  0.00  0.00    -0.295 N 
ATOM      4  H   UNL     1       5.701  -4.119  25.544  0.00  0.00    +0.151 HD
ATOM      5  C   UNL     1       6.784  -5.607  26.457  0.00  0.00    +0.300 C 
ATOM      6  O   UNL     1       5.922  -6.450  26.614  0.00  0.00    -0.253 OA
ATOM      7  N   UNL     1       8.068  -5.650  26.960  0.00  0.00    -0.295 N 
ATOM      8  H   UNL     1       8.406  -6.477  27.433  0.00  0.00    +0.151 HD
ATOM      9  C   UNL     1       9.802  -5.026  25.379  0.00  0.00    +0.030 C 
ENDROOT
BRANCH   2  10
ATOM     10  C   UNL     1       8.108  -2.638  24.835  0.00  0.00    +0.024 C 
BRANCH  10  11
ATOM     11  C   UNL     1       8.914  -1.407  25.266  0.00  0.00    +0.002 C 
BRANCH  11  12
ATOM     12  C   UNL     1       9.901  -0.971  24.181  0.00  0.00    +0.001 C 
BRANCH  12  13
ATOM     13  C   UNL     1       9.405  -1.376  22.792  0.00  0.00    +0.011 C 
BRANCH  13  14
ATOM     14  C   UNL     1       9.868  -0.392  21.720  0.00  0.00    +0.120 C 
BRANCH  14  15
ATOM     15  C   UNL     1       9.114   0.916  21.794  0.00  0.00    +0.305 C 
ATOM     16  O   UNL     1       7.932   1.037  22.066  0.00  0.00    -0.251 OA
BRANCH  15  17
ATOM     17  O   UNL     1       9.906   1.980  21.522  0.00  0.00    -0.481 OA
ATOM     18  H   UNL     1       9.756   2.744  22.109  0.00  0.00    +0.295 HD
ENDBRANCH  15  17
ENDBRANCH  14  15
ENDBRANCH  13  14
ENDBRANCH  12  13
ENDBRANCH  11  12
ENDBRANCH  10  11
ENDBRANCH   2  10
TORSDOF 7
ENDMDL
MODEL 3
REMARK VINA RESULT:      -5.0      2.977      6.425
REMARK  Name = 
REMARK  8 active torsions:
REMARK  status: ('A' for Active; 'I' for Inactive)
REMARK    1  A    between atoms: C_2  and  C_3
REMARK    2  A    between atoms: C_8  and  C_10
REMARK    3  A    between atoms: C_10  and  C_11
REMARK    4  A    between atoms: C_11  and  C_12
REMARK    5  A    between atoms: C_12  and  C_13
REMARK    6  A    between atoms: C_13  and  C_14
REMARK    7  A    between atoms: C_14  and  C_15
REMARK    8  A    between atoms: C_15  and  O_16
REMARK                            x       y       z     vdW  Elec       q    Type
REMARK                         _______ _______ _______ _____ _____    ______ ____
ROOT
ATOM      1  C   UNL     1       8.337  -4.849  24.256  0.00  0.00    +0.092 C 
ATOM      2  C   UNL     1       9.246  -3.780  24.911  0.00  0.00    +0.094 C 
ATOM      3  N   UNL     1       8.605  -3.575  26.193  0.00  0.00    -0.295 N 
ATOM      4  H   UNL     1       8.982  -3.025  26.954  0.00  0.00    +0.151 HD
ATOM      5  C   UNL     1       7.841  -4.678  26.529  0.00  0.00    +0.300 C 
ATOM      6  O   UNL     1       7.354  -4.904  27.620  0.00  0.00    -0.253 OA
ATOM      7  N   UNL     1       7.744  -5.482  25.412  0.00  0.00    -0.295 N 
ATOM      8  H   UNL     1       7.151  -6.301  25.418  0.00  0.00    +0.151 HD
ATOM      9  C   UNL     1       7.237  -4.304  23.350  0.00  0.00    +0.030 C 
ENDROOT
BRANCH   2  10
ATOM     10  C   UNL     1       9.459  -2.481  24.131  0.00  0.00    +0.024 C 
BRANCH  10  11
ATOM     11  C   UNL     1       8.703  -1.301  24.755  0.00  0.00    +0.002 C 
BRANCH  11  12
ATOM     12  C   UNL     1       9.663  -0.253  25.321  0.00  0.00    +0.001 C 
BRANCH  12  13
ATOM     13  C   UNL     1      10.690   0.176  24.273  0.00  0.00    +0.011 C 
BRANCH  13  14
ATOM     14  C   UNL     1      10.235   1.419  23.513  0.00  0.00    +0.120 C 
BRANCH  14  15
ATOM     15  C   UNL     1       9.876   1.102  22.079  0.00  0.00    +0.305 C 
ATOM     16  O   UNL     1       9.877  -0.010  21.579  0.00  0.00    -0.251 OA
BRANCH  15  17
ATOM     17  O   UNL     1       9.539   2.210  21.378  0.00  0.00    -0.481 OA
ATOM     18  H   UNL     1      10.202   2.474  20.714  0.00  0.00    +0.295 HD
ENDBRANCH  15  17
ENDBRANCH  14  15
ENDBRANCH  13  14
ENDBRANCH  12  13
ENDBRANCH  11  12
ENDBRANCH  10  11
ENDBRANCH   2  10
TORSDOF 7
ENDMDL
MODEL 4
REMARK VINA RESULT:      -5.0      3.575      6.255
REMARK  Name = 
REMARK  8 active torsions:
REMARK  status: ('A' for Active; 'I' for Inactive)
REMARK    1  A    between atoms: C_2  and  C_3
REMARK    2  A    between atoms: C_8  and  C_10
REMARK    3  A    between atoms: C_10  and  C_11
REMARK    4  A    between atoms: C_11  and  C_12
REMARK    5  A    between atoms: C_12  and  C_13
REMARK    6  A    between atoms: C_13  and  C_14
REMARK    7  A    between atoms: C_14  and  C_15
REMARK    8  A    between atoms: C_15  and  O_16
REMARK                            x       y       z     vdW  Elec       q    Type
REMARK                         _______ _______ _______ _____ _____    ______ ____
ROOT
ATOM      1  C   UNL     1       6.441  -2.516  22.718  0.00  0.00    +0.092 C 
ATOM      2  C   UNL     1       7.796  -3.264  22.711  0.00  0.00    +0.094 C 
ATOM      3  N   UNL     1       7.412  -4.593  22.284  0.00  0.00    -0.295 N 
ATOM      4  H   UNL     1       8.054  -5.340  22.049  0.00  0.00    +0.151 HD
ATOM      5  C   UNL     1       6.214  -4.549  21.594  0.00  0.00    +0.300 C 
ATOM      6  O   UNL     1       5.736  -5.451  20.935  0.00  0.00    -0.253 OA
ATOM      7  N   UNL     1       5.669  -3.294  21.775  0.00  0.00    -0.295 N 
ATOM      8  H   UNL     1       4.744  -3.081  21.424  0.00  0.00    +0.151 HD
ATOM      9  C   UNL     1       5.721  -2.481  24.062  0.00  0.00    +0.030 C 
ENDROOT
BRANCH   2  10
ATOM     10  C   UNL     1       8.595  -3.259  24.016  0.00  0.00    +0.024 C 
BRANCH  10  11
ATOM     11  C   UNL     1       9.744  -2.244  23.987  0.00  0.00    +0.002 C 
BRANCH  11  12
ATOM     12  C   UNL     1       9.465  -1.051  24.903  0.00  0.00    +0.001 C 
BRANCH  12  13
ATOM     13  C   UNL     1       8.894   0.128  24.113  0.00  0.00    +0.011 C 
BRANCH  13  14
ATOM     14  C   UNL     1      10.000   0.973  23.485  0.00  0.00    +0.120 C 
BRANCH  14  15
ATOM     15  C   UNL     1       9.865   1.046  21.981  0.00  0.00    +0.305 C 
ATOM     16  O   UNL     1       9.570   0.115  21.251  0.00  0.00    -0.251 OA
BRANCH  15  17
ATOM     17  O   UNL     1      10.111   2.289  21.505  0.00  0.00    -0.481 OA
ATOM     18  H   UNL     1      10.628   2.850  22.113  0.00  0.00    +0.295 HD
ENDBRANCH  15  17
ENDBRANCH  14  15
ENDBRANCH  13  14
ENDBRANCH  12  13
ENDBRANCH  11  12
ENDBRANCH  10  11
ENDBRANCH   2  10
TORSDOF 7
ENDMDL
MODEL 5
REMARK VINA RESULT:      -5.0      1.820      2.274
REMARK  Name = 
REMARK  8 active torsions:
REMARK  status: ('A' for Active; 'I' for Inactive)
REMARK    1  A    between atoms: C_2  and  C_3
REMARK    2  A    between atoms: C_8  and  C_10
REMARK    3  A    between atoms: C_10  and  C_11
REMARK    4  A    between atoms: C_11  and  C_12
REMARK    5  A    between atoms: C_12  and  C_13
REMARK    6  A    between atoms: C_13  and  C_14
REMARK    7  A    between atoms: C_14  and  C_15
REMARK    8  A    between atoms: C_15  and  O_16
REMARK                            x       y       z     vdW  Elec       q    Type
REMARK                         _______ _______ _______ _____ _____    ______ ____
ROOT
ATOM      1  C   UNL     1      10.191   1.574  22.265  0.00  0.00    +0.092 C 
ATOM      2  C   UNL     1       9.508   0.396  21.529  0.00  0.00    +0.094 C 
ATOM      3  N   UNL     1       8.103   0.706  21.687  0.00  0.00    -0.295 N 
ATOM      4  H   UNL     1       7.342   0.218  21.233  0.00  0.00    +0.151 HD
ATOM      5  C   UNL     1       7.934   2.058  21.925  0.00  0.00    +0.300 C 
ATOM      6  O   UNL     1       6.879   2.662  21.893  0.00  0.00    -0.253 OA
ATOM      7  N   UNL     1       9.175   2.600  22.187  0.00  0.00    -0.295 N 
ATOM      8  H   UNL     1       9.264   3.566  22.475  0.00  0.00    +0.151 HD
ATOM      9  C   UNL     1      10.543   1.314  23.727  0.00  0.00    +0.030 C 
ENDROOT
BRANCH   2  10
ATOM     10  C   UNL     1       9.869  -1.015  21.997  0.00  0.00    +0.024 C 
BRANCH  10  11
ATOM     11  C   UNL     1       8.664  -1.753  22.590  0.00  0.00    +0.002 C 
BRANCH  11  12
ATOM     12  C   UNL     1       9.078  -2.685  23.731  0.00  0.00    +0.001 C 
BRANCH  12  13
ATOM     13  C   UNL     1       7.911  -3.573  24.167  0.00  0.00    +0.011 C 
BRANCH  13  14
ATOM     14  C   UNL     1       8.379  -4.980  24.528  0.00  0.00    +0.120 C 
BRANCH  14  15
ATOM     15  C   UNL     1       9.304  -4.975  25.724  0.00  0.00    +0.305 C 
ATOM     16  O   UNL     1       9.029  -4.542  26.830  0.00  0.00    -0.251 OA
BRANCH  15  17
ATOM     17  O   UNL     1      10.511  -5.519  25.440  0.00  0.00    -0.481 OA
ATOM     18  H   UNL     1      10.741  -6.285  25.999  0.00  0.00    +0.295 HD
ENDBRANCH  15  17
ENDBRANCH  14  15
ENDBRANCH  13  14
ENDBRANCH  12  13
ENDBRANCH  11  12
ENDBRANCH  10  11
ENDBRANCH   2  10
TORSDOF 7
ENDMDL
MODEL 6
REMARK VINA RESULT:      -4.8      2.679      4.068
REMARK  Name = 
REMARK  8 active torsions:
REMARK  status: ('A' for Active; 'I' for Inactive)
REMARK    1  A    between atoms: C_2  and  C_3
REMARK    2  A    between atoms: C_8  and  C_10
REMARK    3  A    between atoms: C_10  and  C_11
REMARK    4  A    between atoms: C_11  and  C_12
REMARK    5  A    between atoms: C_12  and  C_13
REMARK    6  A    between atoms: C_13  and  C_14
REMARK    7  A    between atoms: C_14  and  C_15
REMARK    8  A    between atoms: C_15  and  O_16
REMARK                            x       y       z     vdW  Elec       q    Type
REMARK                         _______ _______ _______ _____ _____    ______ ____
ROOT
ATOM      1  C   UNL     1       9.656   5.149  24.101  0.00  0.00    +0.092 C 
ATOM      2  C   UNL     1      10.187   3.734  23.765  0.00  0.00    +0.094 C 
ATOM      3  N   UNL     1      11.395   4.026  23.023  0.00  0.00    -0.295 N 
ATOM      4  H   UNL     1      12.083   3.343  22.733  0.00  0.00    +0.151 HD
ATOM      5  C   UNL     1      11.856   5.293  23.335  0.00  0.00    +0.300 C 
ATOM      6  O   UNL     1      12.946   5.747  23.046  0.00  0.00    -0.253 OA
ATOM      7  N   UNL     1      10.866   5.939  24.047  0.00  0.00    -0.295 N 
ATOM      8  H   UNL     1      10.967   6.914  24.297  0.00  0.00    +0.151 HD
ATOM      9  C   UNL     1       8.633   5.713  23.120  0.00  0.00    +0.030 C 
ENDROOT
BRANCH   2  10
ATOM     10  C   UNL     1       9.235   2.798  23.018  0.00  0.00    +0.024 C 
BRANCH  10  11
ATOM     11  C   UNL     1       9.978   1.865  22.055  0.00  0.00    +0.002 C 
BRANCH  11  12
ATOM     12  C   UNL     1       9.060   0.768  21.511  0.00  0.00    +0.001 C 
BRANCH  12  13
ATOM     13  C   UNL     1       9.651  -0.620  21.764  0.00  0.00    +0.011 C 
BRANCH  13  14
ATOM     14  C   UNL     1      10.392  -0.682  23.097  0.00  0.00    +0.120 C 
BRANCH  14  15
ATOM     15  C   UNL     1       9.788  -1.707  24.029  0.00  0.00    +0.305 C 
ATOM     16  O   UNL     1       9.034  -1.464  24.955  0.00  0.00    -0.251 OA
BRANCH  15  17
ATOM     17  O   UNL     1      10.177  -2.968  23.724  0.00  0.00    -0.481 OA
ATOM     18  H   UNL     1       9.955  -3.626  24.409  0.00  0.00    +0.295 HD
ENDBRANCH  15  17
ENDBRANCH  14  15
ENDBRANCH  13  14
ENDBRANCH  12  13
ENDBRANCH  11  12
ENDBRANCH  10  11
ENDBRANCH   2  10
TORSDOF 7
ENDMDL
MODEL 7
REMARK VINA RESULT:      -4.8      2.997      3.951
REMARK  Name = 
REMARK  8 active torsions:
REMARK  status: ('A' for Active; 'I' for Inactive)
REMARK    1  A    between atoms: C_2  and  C_3
REMARK    2  A    between atoms: C_8  and  C_10
REMARK    3  A    between atoms: C_10  and  C_11
REMARK    4  A    between atoms: C_11  and  C_12
REMARK    5  A    between atoms: C_12  and  C_13
REMARK    6  A    between atoms: C_13  and  C_14
REMARK    7  A    between atoms: C_14  and  C_15
REMARK    8  A    between atoms: C_15  and  O_16
REMARK                            x       y       z     vdW  Elec       q    Type
REMARK                         _______ _______ _______ _____ _____    ______ ____
ROOT
ATOM      1  C   UNL     1      10.313  -0.643  24.147  0.00  0.00    +0.092 C 
ATOM      2  C   UNL     1      10.009  -2.008  23.482  0.00  0.00    +0.094 C 
ATOM      3  N   UNL     1       9.240  -1.619  22.318  0.00  0.00    -0.295 N 
ATOM      4  H   UNL     1       8.958  -2.239  21.569  0.00  0.00    +0.151 HD
ATOM      5  C   UNL     1       9.509  -0.304  21.982  0.00  0.00    +0.300 C 
ATOM      6  O   UNL     1       9.190   0.248  20.947  0.00  0.00    -0.253 OA
ATOM      7  N   UNL     1      10.218   0.262  23.023  0.00  0.00    -0.295 N 
ATOM      8  H   UNL     1      10.438   1.249  23.018  0.00  0.00    +0.151 HD
ATOM      9  C   UNL     1       9.333  -0.214  25.234  0.00  0.00    +0.030 C 
ENDROOT
BRANCH   2  10
ATOM     10  C   UNL     1       9.304  -3.056  24.345  0.00  0.00    +0.024 C 
BRANCH  10  11
ATOM     11  C   UNL     1       7.889  -3.364  23.841  0.00  0.00    +0.002 C 
BRANCH  11  12
ATOM     12  C   UNL     1       7.748  -4.825  23.411  0.00  0.00    +0.001 C 
BRANCH  12  13
ATOM     13  C   UNL     1       7.142  -4.930  22.010  0.00  0.00    +0.011 C 
BRANCH  13  14
ATOM     14  C   UNL     1       6.246  -6.159  21.875  0.00  0.00    +0.120 C 
BRANCH  14  15
ATOM     15  C   UNL     1       4.983  -6.027  22.696  0.00  0.00    +0.305 C 
ATOM     16  O   UNL     1       4.203  -5.092  22.650  0.00  0.00    -0.251 OA
BRANCH  15  17
ATOM     17  O   UNL     1       4.795  -7.087  23.517  0.00  0.00    -0.481 OA
ATOM     18  H   UNL     1       4.636  -7.927  23.047  0.00  0.00    +0.295 HD
ENDBRANCH  15  17
ENDBRANCH  14  15
ENDBRANCH  13  14
ENDBRANCH  12  13
ENDBRANCH  11  12
ENDBRANCH  10  11
ENDBRANCH   2  10
TORSDOF 7
ENDMDL
MODEL 8
REMARK VINA RESULT:      -4.7      2.521      6.963
REMARK  Name = 
REMARK  8 active torsions:
REMARK  status: ('A' for Active; 'I' for Inactive)
REMARK    1  A    between atoms: C_2  and  C_3
REMARK    2  A    between atoms: C_8  and  C_10
REMARK    3  A    between atoms: C_10  and  C_11
REMARK    4  A    between atoms: C_11  and  C_12
REMARK    5  A    between atoms: C_12  and  C_13
REMARK    6  A    between atoms: C_13  and  C_14
REMARK    7  A    between atoms: C_14  and  C_15
REMARK    8  A    between atoms: C_15  and  O_16
REMARK                            x       y       z     vdW  Elec       q    Type
REMARK                         _______ _______ _______ _____ _____    ______ ____
ROOT
ATOM      1  C   UNL     1       7.594  -0.085  22.622  0.00  0.00    +0.092 C 
ATOM      2  C   UNL     1       9.113   0.129  22.412  0.00  0.00    +0.094 C 
ATOM      3  N   UNL     1       9.672  -0.400  23.638  0.00  0.00    -0.295 N 
ATOM      4  H   UNL     1      10.658  -0.538  23.819  0.00  0.00    +0.151 HD
ATOM      5  C   UNL     1       8.790  -1.293  24.221  0.00  0.00    +0.300 C 
ATOM      6  O   UNL     1       9.045  -2.055  25.133  0.00  0.00    -0.253 OA
ATOM      7  N   UNL     1       7.578  -1.175  23.572  0.00  0.00    -0.295 N 
ATOM      8  H   UNL     1       6.767  -1.680  23.904  0.00  0.00    +0.151 HD
ATOM      9  C   UNL     1       6.840   1.108  23.199  0.00  0.00    +0.030 C 
ENDROOT
BRANCH   2  10
ATOM     10  C   UNL     1       9.574   1.556  22.107  0.00  0.00    +0.024 C 
BRANCH  10  11
ATOM     11  C   UNL     1      10.438   2.137  23.232  0.00  0.00    +0.002 C 
BRANCH  11  12
ATOM     12  C   UNL     1       9.733   3.292  23.946  0.00  0.00    +0.001 C 
BRANCH  12  13
ATOM     13  C   UNL     1      10.442   4.620  23.677  0.00  0.00    +0.011 C 
BRANCH  13  14
ATOM     14  C   UNL     1      11.823   4.406  23.062  0.00  0.00    +0.120 C 
BRANCH  14  15
ATOM     15  C   UNL     1      12.858   5.327  23.668  0.00  0.00    +0.305 C 
ATOM     16  O   UNL     1      12.642   6.166  24.526  0.00  0.00    -0.251 OA
BRANCH  15  17
ATOM     17  O   UNL     1      14.091   5.123  23.150  0.00  0.00    -0.481 OA
ATOM     18  H   UNL     1      14.184   4.278  22.671  0.00  0.00    +0.295 HD
ENDBRANCH  15  17
ENDBRANCH  14  15
ENDBRANCH  13  14
ENDBRANCH  12  13
ENDBRANCH  11  12
ENDBRANCH  10  11
ENDBRANCH   2  10
TORSDOF 7
ENDMDL
MODEL 9
REMARK VINA RESULT:      -4.7      2.174      2.832
REMARK  Name = 
REMARK  8 active torsions:
REMARK  status: ('A' for Active; 'I' for Inactive)
REMARK    1  A    between atoms: C_2  and  C_3
REMARK    2  A    between atoms: C_8  and  C_10
REMARK    3  A    between atoms: C_10  and  C_11
REMARK    4  A    between atoms: C_11  and  C_12
REMARK    5  A    between atoms: C_12  and  C_13
REMARK    6  A    between atoms: C_13  and  C_14
REMARK    7  A    between atoms: C_14  and  C_15
REMARK    8  A    between atoms: C_15  and  O_16
REMARK                            x       y       z     vdW  Elec       q    Type
REMARK                         _______ _______ _______ _____ _____    ______ ____
ROOT
ATOM      1  C   UNL     1       9.309  -1.864  22.278  0.00  0.00    +0.092 C 
ATOM      2  C   UNL     1       7.940  -1.150  22.396  0.00  0.00    +0.094 C 
ATOM      3  N   UNL     1       8.328   0.238  22.537  0.00  0.00    -0.295 N 
ATOM      4  H   UNL     1       7.694   1.026  22.525  0.00  0.00    +0.151 HD
ATOM      5  C   UNL     1       9.596   0.437  22.020  0.00  0.00    +0.300 C 
ATOM      6  O   UNL     1      10.115   1.514  21.799  0.00  0.00    -0.253 OA
ATOM      7  N   UNL     1      10.156  -0.802  21.783  0.00  0.00    -0.295 N 
ATOM      8  H   UNL     1      11.119  -0.882  21.485  0.00  0.00    +0.151 HD
ATOM      9  C   UNL     1       9.878  -2.405  23.586  0.00  0.00    +0.030 C 
ENDROOT
BRANCH   2  10
ATOM     10  C   UNL     1       7.004  -1.629  23.507  0.00  0.00    +0.024 C 
BRANCH  10  11
ATOM     11  C   UNL     1       5.935  -2.596  22.987  0.00  0.00    +0.002 C 
BRANCH  11  12
ATOM     12  C   UNL     1       5.864  -3.868  23.834  0.00  0.00    +0.001 C 
BRANCH  12  13
ATOM     13  C   UNL     1       6.736  -3.745  25.085  0.00  0.00    +0.011 C 
BRANCH  13  14
ATOM     14  C   UNL     1       6.604  -4.970  25.986  0.00  0.00    +0.120 C 
BRANCH  14  15
ATOM     15  C   UNL     1       7.836  -5.176  26.838  0.00  0.00    +0.305 C 
ATOM     16  O   UNL     1       8.901  -4.602  26.693  0.00  0.00    -0.251 OA
BRANCH  15  17
ATOM     17  O   UNL     1       7.635  -6.091  27.815  0.00  0.00    -0.481 OA
ATOM     18  H   UNL     1       8.371  -6.723  27.922  0.00  0.00    +0.295 HD
ENDBRANCH  15  17
ENDBRANCH  14  15
ENDBRANCH  13  14
ENDBRANCH  12  13
ENDBRANCH  11  12
ENDBRANCH  10  11
ENDBRANCH   2  10
TORSDOF 7
ENDMDL
