MODEL 1
REMARK VINA RESULT:      -4.9      0.000      0.000
REMARK  Name = 
REMARK  17 active torsions:
REMARK  status: ('A' for Active; 'I' for Inactive)
REMARK    1  A    between atoms: C_2  and  O_3
REMARK    2  A    between atoms: C_2  and  C_4
REMARK    3  A    between atoms: C_2  and  C_14
REMARK    4  A    between atoms: C_4  and  C_5
REMARK    5  A    between atoms: C_5  and  C_6
REMARK    6  A    between atoms: C_6  and  C_7
REMARK    7  A    between atoms: C_7  and  C_8
REMARK    8  A    between atoms: C_8  and  C_9
REMARK    9  A    between atoms: C_9  and  C_10
REMARK   10  A    between atoms: C_10  and  C_11
REMARK   11  A    between atoms: C_11  and  O_12
REMARK   12  A    between atoms: C_15  and  C_16
REMARK   13  A    between atoms: C_17  and  C_18
REMARK   14  A    between atoms: C_18  and  C_19
REMARK   15  A    between atoms: C_19  and  C_20
REMARK   16  A    between atoms: C_20  and  C_21
REMARK   17  A    between atoms: C_21  and  C_22
REMARK                            x       y       z     vdW  Elec       q    Type
REMARK                         _______ _______ _______ _____ _____    ______ ____
ROOT
ATOM      1  C   UNL     1       9.191  -4.325  25.491  0.00  0.00    +0.137 C 
ENDROOT
BRANCH   1   2
ATOM      2  O   UNL     1      10.253  -4.930  24.758  0.00  0.00    -0.388 OA
ATOM      3  H   UNL     1      10.999  -4.307  24.757  0.00  0.00    +0.210 HD
ENDBRANCH   1   2
BRANCH   1   4
ATOM      4  C   UNL     1       7.988  -5.214  25.382  0.00  0.00    +0.004 C 
ATOM      5  C   UNL     1       6.895  -5.082  26.150  0.00  0.00    -0.002 C 
BRANCH   5   6
ATOM      6  C   UNL     1       5.757  -5.965  26.091  0.00  0.00    -0.004 C 
ATOM      7  C   UNL     1       4.636  -5.756  25.380  0.00  0.00    -0.027 C 
BRANCH   7   8
ATOM      8  C   UNL     1       4.330  -4.561  24.521  0.00  0.00    +0.027 C 
BRANCH   8   9
ATOM      9  C   UNL     1       4.581  -4.833  23.040  0.00  0.00    +0.004 C 
BRANCH   9  10
ATOM     10  C   UNL     1       5.698  -3.921  22.531  0.00  0.00    +0.000 C 
BRANCH  10  11
ATOM     11  C   UNL     1       6.870  -4.714  21.966  0.00  0.00    -0.003 C 
ATOM     12  C   UNL     1       6.596  -6.209  22.033  0.00  0.00    +0.004 C 
ENDBRANCH  10  11
ENDBRANCH   9  10
ENDBRANCH   8   9
ENDBRANCH   7   8
ENDBRANCH   5   6
ENDBRANCH   1   4
BRANCH   1  13
ATOM     13  C   UNL     1       8.910  -2.922  24.948  0.00  0.00    +0.035 C 
BRANCH  13  14
ATOM     14  C   UNL     1       9.846  -2.547  23.802  0.00  0.00    +0.003 C 
BRANCH  14  15
ATOM     15  C   UNL     1       9.054  -1.905  22.665  0.00  0.00    +0.000 C 
BRANCH  15  16
ATOM     16  C   UNL     1       9.950  -1.006  21.824  0.00  0.00    +0.000 C 
BRANCH  16  17
ATOM     17  C   UNL     1       9.301   0.354  21.581  0.00  0.00    +0.001 C 
BRANCH  17  18
ATOM     18  C   UNL     1      10.070   1.453  22.311  0.00  0.00    +0.011 C 
BRANCH  18  19
ATOM     19  C   UNL     1       9.255   2.038  23.459  0.00  0.00    +0.120 C 
BRANCH  19  20
ATOM     20  C   UNL     1       9.307   1.153  24.684  0.00  0.00    +0.305 C 
ATOM     21  O   UNL     1       8.339   0.729  25.294  0.00  0.00    -0.251 OA
BRANCH  20  22
ATOM     22  O   UNL     1      10.577   0.865  25.051  0.00  0.00    -0.481 OA
ATOM     23  H   UNL     1      10.673   0.646  25.997  0.00  0.00    +0.295 HD
ENDBRANCH  20  22
ENDBRANCH  19  20
ENDBRANCH  18  19
ENDBRANCH  17  18
ENDBRANCH  16  17
ENDBRANCH  15  16
ENDBRANCH  14  15
ENDBRANCH  13  14
ENDBRANCH   1  13
TORSDOF 16
ENDMDL
MODEL 2
REMARK VINA RESULT:      -4.8      2.536      6.776
REMARK  Name = 
REMARK  17 active torsions:
REMARK  status: ('A' for Active; 'I' for Inactive)
REMARK    1  A    between atoms: C_2  and  O_3
REMARK    2  A    between atoms: C_2  and  C_4
REMARK    3  A    between atoms: C_2  and  C_14
REMARK    4  A    between atoms: C_4  and  C_5
REMARK    5  A    between atoms: C_5  and  C_6
REMARK    6  A    between atoms: C_6  and  C_7
REMARK    7  A    between atoms: C_7  and  C_8
REMARK    8  A    between atoms: C_8  and  C_9
REMARK    9  A    between atoms: C_9  and  C_10
REMARK   10  A    between atoms: C_10  and  C_11
REMARK   11  A    between atoms: C_11  and  O_12
REMARK   12  A    between atoms: C_15  and  C_16
REMARK   13  A    between atoms: C_17  and  C_18
REMARK   14  A    between atoms: C_18  and  C_19
REMARK   15  A    between atoms: C_19  and  C_20
REMARK   16  A    between atoms: C_20  and  C_21
REMARK   17  A    between atoms: C_21  and  C_22
REMARK                            x       y       z     vdW  Elec       q    Type
REMARK                         _______ _______ _______ _____ _____    ______ ____
ROOT
ATOM      1  C   UNL     1       6.052  -1.138  24.716  0.00  0.00    +0.137 C 
ENDROOT
BRANCH   1   2
ATOM      2  O   UNL     1       4.942  -2.030  24.748  0.00  0.00    -0.388 OA
ATOM      3  H   UNL     1       4.771  -2.252  25.679  0.00  0.00    +0.210 HD
ENDBRANCH   1   2
BRANCH   1   4
ATOM      4  C   UNL     1       6.822  -1.402  23.457  0.00  0.00    +0.004 C 
ATOM      5  C   UNL     1       8.161  -1.490  23.409  0.00  0.00    -0.002 C 
BRANCH   5   6
ATOM      6  C   UNL     1       8.913  -1.688  22.194  0.00  0.00    -0.004 C 
ATOM      7  C   UNL     1       9.270  -0.725  21.327  0.00  0.00    -0.027 C 
BRANCH   7   8
ATOM      8  C   UNL     1       8.948   0.739  21.430  0.00  0.00    +0.027 C 
BRANCH   8   9
ATOM      9  C   UNL     1      10.062   1.531  22.111  0.00  0.00    +0.004 C 
BRANCH   9  10
ATOM     10  C   UNL     1       9.490   2.311  23.295  0.00  0.00    +0.000 C 
BRANCH  10  11
ATOM     11  C   UNL     1       9.685   1.571  24.614  0.00  0.00    -0.003 C 
ATOM     12  C   UNL     1      10.941   0.712  24.573  0.00  0.00    +0.004 C 
ENDBRANCH  10  11
ENDBRANCH   9  10
ENDBRANCH   8   9
ENDBRANCH   7   8
ENDBRANCH   5   6
ENDBRANCH   1   4
BRANCH   1  13
ATOM     13  C   UNL     1       6.919  -1.335  25.962  0.00  0.00    +0.035 C 
BRANCH  13  14
ATOM     14  C   UNL     1       6.733  -2.715  26.585  0.00  0.00    +0.003 C 
BRANCH  14  15
ATOM     15  C   UNL     1       8.001  -3.548  26.406  0.00  0.00    +0.000 C 
BRANCH  15  16
ATOM     16  C   UNL     1       7.762  -4.694  25.432  0.00  0.00    +0.000 C 
BRANCH  16  17
ATOM     17  C   UNL     1       6.348  -5.254  25.570  0.00  0.00    +0.001 C 
BRANCH  17  18
ATOM     18  C   UNL     1       5.717  -5.460  24.195  0.00  0.00    +0.011 C 
BRANCH  18  19
ATOM     19  C   UNL     1       6.678  -5.075  23.075  0.00  0.00    +0.120 C 
BRANCH  19  20
ATOM     20  C   UNL     1       5.956  -4.912  21.756  0.00  0.00    +0.305 C 
ATOM     21  O   UNL     1       5.693  -3.849  21.219  0.00  0.00    -0.251 OA
BRANCH  20  22
ATOM     22  O   UNL     1       5.620  -6.102  21.208  0.00  0.00    -0.481 OA
ATOM     23  H   UNL     1       6.257  -6.423  20.543  0.00  0.00    +0.295 HD
ENDBRANCH  20  22
ENDBRANCH  19  20
ENDBRANCH  18  19
ENDBRANCH  17  18
ENDBRANCH  16  17
ENDBRANCH  15  16
ENDBRANCH  14  15
ENDBRANCH  13  14
ENDBRANCH   1  13
TORSDOF 16
ENDMDL
MODEL 3
REMARK VINA RESULT:      -4.8      1.850      6.335
REMARK  Name = 
REMARK  17 active torsions:
REMARK  status: ('A' for Active; 'I' for Inactive)
REMARK    1  A    between atoms: C_2  and  O_3
REMARK    2  A    between atoms: C_2  and  C_4
REMARK    3  A    between atoms: C_2  and  C_14
REMARK    4  A    between atoms: C_4  and  C_5
REMARK    5  A    between atoms: C_5  and  C_6
REMARK    6  A    between atoms: C_6  and  C_7
REMARK    7  A    between atoms: C_7  and  C_8
REMARK    8  A    between atoms: C_8  and  C_9
REMARK    9  A    between atoms: C_9  and  C_10
REMARK   10  A    between atoms: C_10  and  C_11
REMARK   11  A    between atoms: C_11  and  O_12
REMARK   12  A    between atoms: C_15  and  C_16
REMARK   13  A    between atoms: C_17  and  C_18
REMARK   14  A    between atoms: C_18  and  C_19
REMARK   15  A    between atoms: C_19  and  C_20
REMARK   16  A    between atoms: C_20  and  C_21
REMARK   17  A    between atoms: C_21  and  C_22
REMARK                            x       y       z     vdW  Elec       q    Type
REMARK                         _______ _______ _______ _____ _____    ______ ____
ROOT
ATOM      1  C   UNL     1       9.295  -0.382  25.900  0.00  0.00    +0.137 C 
ENDROOT
BRANCH   1   2
ATOM      2  O   UNL     1       9.104  -0.631  27.289  0.00  0.00    -0.388 OA
ATOM      3  H   UNL     1       9.337  -1.560  27.454  0.00  0.00    +0.210 HD
ENDBRANCH   1   2
BRANCH   1   4
ATOM      4  C   UNL     1       8.364   0.722  25.495  0.00  0.00    +0.004 C 
ATOM      5  C   UNL     1       7.107   0.516  25.070  0.00  0.00    -0.002 C 
BRANCH   5   6
ATOM      6  C   UNL     1       6.224   1.565  24.626  0.00  0.00    -0.004 C 
ATOM      7  C   UNL     1       6.121   2.024  23.368  0.00  0.00    -0.027 C 
BRANCH   7   8
ATOM      8  C   UNL     1       6.910   1.559  22.176  0.00  0.00    +0.027 C 
BRANCH   8   9
ATOM      9  C   UNL     1       8.092   2.477  21.870  0.00  0.00    +0.004 C 
BRANCH   9  10
ATOM     10  C   UNL     1       9.400   1.696  22.008  0.00  0.00    +0.000 C 
BRANCH  10  11
ATOM     11  C   UNL     1      10.386   2.393  22.939  0.00  0.00    -0.003 C 
ATOM     12  C   UNL     1       9.717   3.545  23.673  0.00  0.00    +0.004 C 
ENDBRANCH  10  11
ENDBRANCH   9  10
ENDBRANCH   8   9
ENDBRANCH   7   8
ENDBRANCH   5   6
ENDBRANCH   1   4
BRANCH   1  13
ATOM     13  C   UNL     1       9.042  -1.660  25.097  0.00  0.00    +0.035 C 
BRANCH  13  14
ATOM     14  C   UNL     1       9.745  -1.641  23.743  0.00  0.00    +0.003 C 
BRANCH  14  15
ATOM     15  C   UNL     1       8.746  -1.943  22.627  0.00  0.00    +0.000 C 
BRANCH  15  16
ATOM     16  C   UNL     1       7.563  -2.739  23.162  0.00  0.00    +0.000 C 
BRANCH  16  17
ATOM     17  C   UNL     1       7.300  -3.980  22.313  0.00  0.00    +0.001 C 
BRANCH  17  18
ATOM     18  C   UNL     1       7.487  -5.247  23.144  0.00  0.00    +0.011 C 
BRANCH  18  19
ATOM     19  C   UNL     1       7.438  -4.948  24.639  0.00  0.00    +0.120 C 
BRANCH  19  20
ATOM     20  C   UNL     1       8.738  -5.311  25.320  0.00  0.00    +0.305 C 
ATOM     21  O   UNL     1       9.854  -5.098  24.876  0.00  0.00    -0.251 OA
BRANCH  20  22
ATOM     22  O   UNL     1       8.537  -5.915  26.513  0.00  0.00    -0.481 OA
ATOM     23  H   UNL     1       9.187  -6.614  26.714  0.00  0.00    +0.295 HD
ENDBRANCH  20  22
ENDBRANCH  19  20
ENDBRANCH  18  19
ENDBRANCH  17  18
ENDBRANCH  16  17
ENDBRANCH  15  16
ENDBRANCH  14  15
ENDBRANCH  13  14
ENDBRANCH   1  13
TORSDOF 16
ENDMDL
MODEL 4
REMARK VINA RESULT:      -4.8      1.962      6.654
REMARK  Name = 
REMARK  17 active torsions:
REMARK  status: ('A' for Active; 'I' for Inactive)
REMARK    1  A    between atoms: C_2  and  O_3
REMARK    2  A    between atoms: C_2  and  C_4
REMARK    3  A    between atoms: C_2  and  C_14
REMARK    4  A    between atoms: C_4  and  C_5
REMARK    5  A    between atoms: C_5  and  C_6
REMARK    6  A    between atoms: C_6  and  C_7
REMARK    7  A    between atoms: C_7  and  C_8
REMARK    8  A    between atoms: C_8  and  C_9
REMARK    9  A    between atoms: C_9  and  C_10
REMARK   10  A    between atoms: C_10  and  C_11
REMARK   11  A    between atoms: C_11  and  O_12
REMARK   12  A    between atoms: C_15  and  C_16
REMARK   13  A    between atoms: C_17  and  C_18
REMARK   14  A    between atoms: C_18  and  C_19
REMARK   15  A    between atoms: C_19  and  C_20
REMARK   16  A    between atoms: C_20  and  C_21
REMARK   17  A    between atoms: C_21  and  C_22
REMARK                            x       y       z     vdW  Elec       q    Type
REMARK                         _______ _______ _______ _____ _____    ______ ____
ROOT
ATOM      1  C   UNL     1       9.125  -0.835  26.221  0.00  0.00    +0.137 C 
ENDROOT
BRANCH   1   2
ATOM      2  O   UNL     1       9.133  -0.431  27.588  0.00  0.00    -0.388 OA
ATOM      3  H   UNL     1       8.437  -0.932  28.044  0.00  0.00    +0.210 HD
ENDBRANCH   1   2
BRANCH   1   4
ATOM      4  C   UNL     1       9.312   0.389  25.376  0.00  0.00    +0.004 C 
ATOM      5  C   UNL     1      10.431   0.648  24.679  0.00  0.00    -0.002 C 
BRANCH   5   6
ATOM      6  C   UNL     1      10.642   1.848  23.908  0.00  0.00    -0.004 C 
ATOM      7  C   UNL     1      10.271   2.036  22.631  0.00  0.00    -0.027 C 
BRANCH   7   8
ATOM      8  C   UNL     1       9.582   1.038  21.741  0.00  0.00    +0.027 C 
BRANCH   8   9
ATOM      9  C   UNL     1       8.174   1.484  21.353  0.00  0.00    +0.004 C 
BRANCH   9  10
ATOM     10  C   UNL     1       7.794   2.736  22.143  0.00  0.00    +0.000 C 
BRANCH  10  11
ATOM     11  C   UNL     1       6.664   2.468  23.131  0.00  0.00    -0.003 C 
ATOM     12  C   UNL     1       6.962   3.103  24.481  0.00  0.00    +0.004 C 
ENDBRANCH  10  11
ENDBRANCH   9  10
ENDBRANCH   8   9
ENDBRANCH   7   8
ENDBRANCH   5   6
ENDBRANCH   1   4
BRANCH   1  13
ATOM     13  C   UNL     1       7.814  -1.554  25.894  0.00  0.00    +0.035 C 
BRANCH  13  14
ATOM     14  C   UNL     1       6.951  -0.765  24.914  0.00  0.00    +0.003 C 
BRANCH  14  15
ATOM     15  C   UNL     1       6.732  -1.575  23.637  0.00  0.00    +0.000 C 
BRANCH  15  16
ATOM     16  C   UNL     1       5.699  -2.671  23.863  0.00  0.00    +0.000 C 
BRANCH  16  17
ATOM     17  C   UNL     1       6.212  -4.025  23.378  0.00  0.00    +0.001 C 
BRANCH  17  18
ATOM     18  C   UNL     1       6.867  -4.792  24.524  0.00  0.00    +0.011 C 
BRANCH  18  19
ATOM     19  C   UNL     1       8.356  -5.006  24.275  0.00  0.00    +0.120 C 
BRANCH  19  20
ATOM     20  C   UNL     1       9.124  -5.123  25.572  0.00  0.00    +0.305 C 
ATOM     21  O   UNL     1       8.678  -4.890  26.684  0.00  0.00    -0.251 OA
BRANCH  20  22
ATOM     22  O   UNL     1      10.400  -5.527  25.374  0.00  0.00    -0.481 OA
ATOM     23  H   UNL     1      10.652  -5.588  24.434  0.00  0.00    +0.295 HD
ENDBRANCH  20  22
ENDBRANCH  19  20
ENDBRANCH  18  19
ENDBRANCH  17  18
ENDBRANCH  16  17
ENDBRANCH  15  16
ENDBRANCH  14  15
ENDBRANCH  13  14
ENDBRANCH   1  13
TORSDOF 16
ENDMDL
MODEL 5
REMARK VINA RESULT:      -4.7      2.286      6.621
REMARK  Name = 
REMARK  17 active torsions:
REMARK  status: ('A' for Active; 'I' for Inactive)
REMARK    1  A    between atoms: C_2  and  O_3
REMARK    2  A    between atoms: C_2  and  C_4
REMARK    3  A    between atoms: C_2  and  C_14
REMARK    4  A    between atoms: C_4  and  C_5
REMARK    5  A    between atoms: C_5  and  C_6
REMARK    6  A    between atoms: C_6  and  C_7
REMARK    7  A    between atoms: C_7  and  C_8
REMARK    8  A    between atoms: C_8  and  C_9
REMARK    9  A    between atoms: C_9  and  C_10
REMARK   10  A    between atoms: C_10  and  C_11
REMARK   11  A    between atoms: C_11  and  O_12
REMARK   12  A    between atoms: C_15  and  C_16
REMARK   13  A    between atoms: C_17  and  C_18
REMARK   14  A    between atoms: C_18  and  C_19
REMARK   15  A    between atoms: C_19  and  C_20
REMARK   16  A    between atoms: C_20  and  C_21
REMARK   17  A    between atoms: C_21  and  C_22
REMARK                            x       y       z     vdW  Elec       q    Type
REMARK                         _______ _______ _______ _____ _____    ______ ____
ROOT
ATOM      1  C   UNL     1       7.874  -0.865  26.535  0.00  0.00    +0.137 C 
ENDROOT
BRANCH   1   2
ATOM      2  O   UNL     1       8.325   0.132  27.447  0.00  0.00    -0.388 OA
ATOM      3  H   UNL     1       8.583  -0.318  28.268  0.00  0.00    +0.210 HD
ENDBRANCH   1   2
BRANCH   1   4
ATOM      4  C   UNL     1       9.011  -1.202  25.618  0.00  0.00    +0.004 C 
ATOM      5  C   UNL     1       8.852  -1.533  24.326  0.00  0.00    -0.002 C 
BRANCH   5   6
ATOM      6  C   UNL     1       9.933  -1.912  23.451  0.00  0.00    -0.004 C 
ATOM      7  C   UNL     1      10.186  -1.385  22.241  0.00  0.00    -0.027 C 
BRANCH   7   8
ATOM      8  C   UNL     1       9.392  -0.314  21.546  0.00  0.00    +0.027 C 
BRANCH   8   9
ATOM      9  C   UNL     1       9.912   1.087  21.859  0.00  0.00    +0.004 C 
BRANCH   9  10
ATOM     10  C   UNL     1       8.735   2.049  22.024  0.00  0.00    +0.000 C 
BRANCH  10  11
ATOM     11  C   UNL     1       8.219   2.080  23.459  0.00  0.00    -0.003 C 
ATOM     12  C   UNL     1       9.366   2.258  24.443  0.00  0.00    +0.004 C 
ENDBRANCH  10  11
ENDBRANCH   9  10
ENDBRANCH   8   9
ENDBRANCH   7   8
ENDBRANCH   5   6
ENDBRANCH   1   4
BRANCH   1  13
ATOM     13  C   UNL     1       6.654  -0.358  25.763  0.00  0.00    +0.035 C 
BRANCH  13  14
ATOM     14  C   UNL     1       5.460  -1.300  25.884  0.00  0.00    +0.003 C 
BRANCH  14  15
ATOM     15  C   UNL     1       5.696  -2.306  27.009  0.00  0.00    +0.000 C 
BRANCH  15  16
ATOM     16  C   UNL     1       5.703  -3.729  26.467  0.00  0.00    +0.000 C 
BRANCH  16  17
ATOM     17  C   UNL     1       6.273  -4.710  27.489  0.00  0.00    +0.001 C 
BRANCH  17  18
ATOM     18  C   UNL     1       7.392  -5.542  26.867  0.00  0.00    +0.011 C 
BRANCH  18  19
ATOM     19  C   UNL     1       8.606  -4.684  26.528  0.00  0.00    +0.120 C 
BRANCH  19  20
ATOM     20  C   UNL     1       9.273  -5.145  25.252  0.00  0.00    +0.305 C 
ATOM     21  O   UNL     1       8.742  -5.197  24.154  0.00  0.00    -0.251 OA
BRANCH  20  22
ATOM     22  O   UNL     1      10.561  -5.506  25.451  0.00  0.00    -0.481 OA
ATOM     23  H   UNL     1      11.069  -4.869  25.987  0.00  0.00    +0.295 HD
ENDBRANCH  20  22
ENDBRANCH  19  20
ENDBRANCH  18  19
ENDBRANCH  17  18
ENDBRANCH  16  17
ENDBRANCH  15  16
ENDBRANCH  14  15
ENDBRANCH  13  14
ENDBRANCH   1  13
TORSDOF 16
ENDMDL
MODEL 6
REMARK VINA RESULT:      -4.7      1.827      2.482
REMARK  Name = 
REMARK  17 active torsions:
REMARK  status: ('A' for Active; 'I' for Inactive)
REMARK    1  A    between atoms: C_2  and  O_3
REMARK    2  A    between atoms: C_2  and  C_4
REMARK    3  A    between atoms: C_2  and  C_14
REMARK    4  A    between atoms: C_4  and  C_5
REMARK    5  A    between atoms: C_5  and  C_6
REMARK    6  A    between atoms: C_6  and  C_7
REMARK    7  A    between atoms: C_7  and  C_8
REMARK    8  A    between atoms: C_8  and  C_9
REMARK    9  A    between atoms: C_9  and  C_10
REMARK   10  A    between atoms: C_10  and  C_11
REMARK   11  A    between atoms: C_11  and  O_12
REMARK   12  A    between atoms: C_15  and  C_16
REMARK   13  A    between atoms: C_17  and  C_18
REMARK   14  A    between atoms: C_18  and  C_19
REMARK   15  A    between atoms: C_19  and  C_20
REMARK   16  A    between atoms: C_20  and  C_21
REMARK   17  A    between atoms: C_21  and  C_22
REMARK                            x       y       z     vdW  Elec       q    Type
REMARK                         _______ _______ _______ _____ _____    ______ ____
ROOT
ATOM      1  C   UNL     1       7.269  -5.075  26.726  0.00  0.00    +0.137 C 
ENDROOT
BRANCH   1   2
ATOM      2  O   UNL     1       7.870  -5.979  27.649  0.00  0.00    -0.388 OA
ATOM      3  H   UNL     1       7.876  -6.858  27.235  0.00  0.00    +0.210 HD
ENDBRANCH   1   2
BRANCH   1   4
ATOM      4  C   UNL     1       5.796  -5.354  26.699  0.00  0.00    +0.004 C 
ATOM      5  C   UNL     1       5.255  -6.440  26.124  0.00  0.00    -0.002 C 
BRANCH   5   6
ATOM      6  C   UNL     1       3.837  -6.689  26.044  0.00  0.00    -0.004 C 
ATOM      7  C   UNL     1       3.090  -6.621  24.929  0.00  0.00    -0.027 C 
BRANCH   7   8
ATOM      8  C   UNL     1       3.568  -6.256  23.551  0.00  0.00    +0.027 C 
BRANCH   8   9
ATOM      9  C   UNL     1       3.867  -4.765  23.417  0.00  0.00    +0.004 C 
BRANCH   9  10
ATOM     10  C   UNL     1       5.238  -4.572  22.767  0.00  0.00    +0.000 C 
BRANCH  10  11
ATOM     11  C   UNL     1       5.836  -5.891  22.292  0.00  0.00    -0.003 C 
ATOM     12  C   UNL     1       7.203  -5.670  21.661  0.00  0.00    +0.004 C 
ENDBRANCH  10  11
ENDBRANCH   9  10
ENDBRANCH   8   9
ENDBRANCH   7   8
ENDBRANCH   5   6
ENDBRANCH   1   4
BRANCH   1  13
ATOM     13  C   UNL     1       7.902  -5.239  25.343  0.00  0.00    +0.035 C 
BRANCH  13  14
ATOM     14  C   UNL     1       9.070  -4.282  25.125  0.00  0.00    +0.003 C 
BRANCH  14  15
ATOM     15  C   UNL     1       8.727  -3.273  24.031  0.00  0.00    +0.000 C 
BRANCH  15  16
ATOM     16  C   UNL     1       9.899  -2.335  23.774  0.00  0.00    +0.000 C 
BRANCH  16  17
ATOM     17  C   UNL     1       9.696  -0.990  24.466  0.00  0.00    +0.001 C 
BRANCH  17  18
ATOM     18  C   UNL     1      10.704   0.035  23.953  0.00  0.00    +0.011 C 
BRANCH  18  19
ATOM     19  C   UNL     1      10.011   1.280  23.410  0.00  0.00    +0.120 C 
BRANCH  19  20
ATOM     20  C   UNL     1       9.641   1.118  21.952  0.00  0.00    +0.305 C 
ATOM     21  O   UNL     1       9.700   0.078  21.317  0.00  0.00    -0.251 OA
BRANCH  20  22
ATOM     22  O   UNL     1       9.223   2.280  21.401  0.00  0.00    -0.481 OA
ATOM     23  H   UNL     1       8.284   2.276  21.139  0.00  0.00    +0.295 HD
ENDBRANCH  20  22
ENDBRANCH  19  20
ENDBRANCH  18  19
ENDBRANCH  17  18
ENDBRANCH  16  17
ENDBRANCH  15  16
ENDBRANCH  14  15
ENDBRANCH  13  14
ENDBRANCH   1  13
TORSDOF 16
ENDMDL
MODEL 7
REMARK VINA RESULT:      -4.6      3.150      8.676
REMARK  Name = 
REMARK  17 active torsions:
REMARK  status: ('A' for Active; 'I' for Inactive)
REMARK    1  A    between atoms: C_2  and  O_3
REMARK    2  A    between atoms: C_2  and  C_4
REMARK    3  A    between atoms: C_2  and  C_14
REMARK    4  A    between atoms: C_4  and  C_5
REMARK    5  A    between atoms: C_5  and  C_6
REMARK    6  A    between atoms: C_6  and  C_7
REMARK    7  A    between atoms: C_7  and  C_8
REMARK    8  A    between atoms: C_8  and  C_9
REMARK    9  A    between atoms: C_9  and  C_10
REMARK   10  A    between atoms: C_10  and  C_11
REMARK   11  A    between atoms: C_11  and  O_12
REMARK   12  A    between atoms: C_15  and  C_16
REMARK   13  A    between atoms: C_17  and  C_18
REMARK   14  A    between atoms: C_18  and  C_19
REMARK   15  A    between atoms: C_19  and  C_20
REMARK   16  A    between atoms: C_20  and  C_21
REMARK   17  A    between atoms: C_21  and  C_22
REMARK                            x       y       z     vdW  Elec       q    Type
REMARK                         _______ _______ _______ _____ _____    ______ ____
ROOT
ATOM      1  C   UNL     1       9.021   1.655  22.651  0.00  0.00    +0.137 C 
ENDROOT
BRANCH   1   2
ATOM      2  O   UNL     1       9.182   2.030  21.286  0.00  0.00    -0.388 OA
ATOM      3  H   UNL     1       9.249   2.999  21.255  0.00  0.00    +0.210 HD
ENDBRANCH   1   2
BRANCH   1   4
ATOM      4  C   UNL     1       8.450   2.829  23.389  0.00  0.00    +0.004 C 
ATOM      5  C   UNL     1       8.925   3.270  24.565  0.00  0.00    -0.002 C 
BRANCH   5   6
ATOM      6  C   UNL     1       8.348   4.362  25.309  0.00  0.00    -0.004 C 
ATOM      7  C   UNL     1       8.692   5.656  25.197  0.00  0.00    -0.027 C 
BRANCH   7   8
ATOM      8  C   UNL     1       9.751   6.228  24.297  0.00  0.00    +0.027 C 
BRANCH   8   9
ATOM      9  C   UNL     1      10.897   6.862  25.082  0.00  0.00    +0.004 C 
BRANCH   9  10
ATOM     10  C   UNL     1      12.229   6.277  24.610  0.00  0.00    +0.000 C 
BRANCH  10  11
ATOM     11  C   UNL     1      12.039   5.234  23.515  0.00  0.00    -0.003 C 
ATOM     12  C   UNL     1      12.992   5.486  22.356  0.00  0.00    +0.004 C 
ENDBRANCH  10  11
ENDBRANCH   9  10
ENDBRANCH   8   9
ENDBRANCH   7   8
ENDBRANCH   5   6
ENDBRANCH   1   4
BRANCH   1  13
ATOM     13  C   UNL     1      10.364   1.216  23.238  0.00  0.00    +0.035 C 
BRANCH  13  14
ATOM     14  C   UNL     1      10.379  -0.265  23.604  0.00  0.00    +0.003 C 
BRANCH  14  15
ATOM     15  C   UNL     1       9.671  -0.484  24.940  0.00  0.00    +0.000 C 
BRANCH  15  16
ATOM     16  C   UNL     1       8.790  -1.725  24.888  0.00  0.00    +0.000 C 
BRANCH  16  17
ATOM     17  C   UNL     1       9.506  -2.885  24.202  0.00  0.00    +0.001 C 
BRANCH  17  18
ATOM     18  C   UNL     1       9.330  -4.173  25.004  0.00  0.00    +0.011 C 
BRANCH  18  19
ATOM     19  C   UNL     1       8.642  -3.910  26.339  0.00  0.00    +0.120 C 
BRANCH  19  20
ATOM     20  C   UNL     1       7.557  -4.927  26.614  0.00  0.00    +0.305 C 
ATOM     21  O   UNL     1       6.443  -4.927  26.116  0.00  0.00    -0.251 OA
BRANCH  20  22
ATOM     22  O   UNL     1       7.956  -5.872  27.496  0.00  0.00    -0.481 OA
ATOM     23  H   UNL     1       7.307  -6.589  27.624  0.00  0.00    +0.295 HD
ENDBRANCH  20  22
ENDBRANCH  19  20
ENDBRANCH  18  19
ENDBRANCH  17  18
ENDBRANCH  16  17
ENDBRANCH  15  16
ENDBRANCH  14  15
ENDBRANCH  13  14
ENDBRANCH   1  13
TORSDOF 16
ENDMDL
MODEL 8
REMARK VINA RESULT:      -4.6      2.521      6.835
REMARK  Name = 
REMARK  17 active torsions:
REMARK  status: ('A' for Active; 'I' for Inactive)
REMARK    1  A    between atoms: C_2  and  O_3
REMARK    2  A    between atoms: C_2  and  C_4
REMARK    3  A    between atoms: C_2  and  C_14
REMARK    4  A    between atoms: C_4  and  C_5
REMARK    5  A    between atoms: C_5  and  C_6
REMARK    6  A    between atoms: C_6  and  C_7
REMARK    7  A    between atoms: C_7  and  C_8
REMARK    8  A    between atoms: C_8  and  C_9
REMARK    9  A    between atoms: C_9  and  C_10
REMARK   10  A    between atoms: C_10  and  C_11
REMARK   11  A    between atoms: C_11  and  O_12
REMARK   12  A    between atoms: C_15  and  C_16
REMARK   13  A    between atoms: C_17  and  C_18
REMARK   14  A    between atoms: C_18  and  C_19
REMARK   15  A    between atoms: C_19  and  C_20
REMARK   16  A    between atoms: C_20  and  C_21
REMARK   17  A    between atoms: C_21  and  C_22
REMARK                            x       y       z     vdW  Elec       q    Type
REMARK                         _______ _______ _______ _____ _____    ______ ____
ROOT
ATOM      1  C   UNL     1       9.492  -1.778  22.317  0.00  0.00    +0.137 C 
ENDROOT
BRANCH   1   2
ATOM      2  O   UNL     1      10.664  -1.521  21.549  0.00  0.00    -0.388 OA
ATOM      3  H   UNL     1      10.869  -0.575  21.636  0.00  0.00    +0.210 HD
ENDBRANCH   1   2
BRANCH   1   4
ATOM      4  C   UNL     1       8.645  -0.541  22.297  0.00  0.00    +0.004 C 
ATOM      5  C   UNL     1       8.928   0.542  21.555  0.00  0.00    -0.002 C 
BRANCH   5   6
ATOM      6  C   UNL     1       8.151   1.756  21.571  0.00  0.00    -0.004 C 
ATOM      7  C   UNL     1       8.343   2.801  22.394  0.00  0.00    -0.027 C 
BRANCH   7   8
ATOM      8  C   UNL     1       9.386   2.914  23.471  0.00  0.00    +0.027 C 
BRANCH   8   9
ATOM      9  C   UNL     1       8.895   2.369  24.811  0.00  0.00    +0.004 C 
BRANCH   9  10
ATOM     10  C   UNL     1       7.381   2.554  24.918  0.00  0.00    +0.000 C 
BRANCH  10  11
ATOM     11  C   UNL     1       6.703   1.348  25.559  0.00  0.00    -0.003 C 
ATOM     12  C   UNL     1       5.931   0.546  24.522  0.00  0.00    +0.004 C 
ENDBRANCH  10  11
ENDBRANCH   9  10
ENDBRANCH   8   9
ENDBRANCH   7   8
ENDBRANCH   5   6
ENDBRANCH   1   4
BRANCH   1  13
ATOM     13  C   UNL     1       9.876  -2.178  23.744  0.00  0.00    +0.035 C 
BRANCH  13  14
ATOM     14  C   UNL     1       9.263  -1.250  24.789  0.00  0.00    +0.003 C 
BRANCH  14  15
ATOM     15  C   UNL     1       8.394  -2.051  25.757  0.00  0.00    +0.000 C 
BRANCH  15  16
ATOM     16  C   UNL     1       8.070  -3.424  25.182  0.00  0.00    +0.000 C 
BRANCH  16  17
ATOM     17  C   UNL     1       6.573  -3.579  24.924  0.00  0.00    +0.001 C 
BRANCH  17  18
ATOM     18  C   UNL     1       6.246  -3.262  23.467  0.00  0.00    +0.011 C 
BRANCH  18  19
ATOM     19  C   UNL     1       6.709  -4.376  22.534  0.00  0.00    +0.120 C 
BRANCH  19  20
ATOM     20  C   UNL     1       5.633  -5.422  22.341  0.00  0.00    +0.305 C 
ATOM     21  O   UNL     1       4.432  -5.226  22.424  0.00  0.00    -0.251 OA
BRANCH  20  22
ATOM     22  O   UNL     1       6.151  -6.638  22.056  0.00  0.00    -0.481 OA
ATOM     23  H   UNL     1       6.313  -6.784  21.105  0.00  0.00    +0.295 HD
ENDBRANCH  20  22
ENDBRANCH  19  20
ENDBRANCH  18  19
ENDBRANCH  17  18
ENDBRANCH  16  17
ENDBRANCH  15  16
ENDBRANCH  14  15
ENDBRANCH  13  14
ENDBRANCH   1  13
TORSDOF 16
ENDMDL
MODEL 9
REMARK VINA RESULT:      -4.6      1.599      2.965
REMARK  Name = 
REMARK  17 active torsions:
REMARK  status: ('A' for Active; 'I' for Inactive)
REMARK    1  A    between atoms: C_2  and  O_3
REMARK    2  A    between atoms: C_2  and  C_4
REMARK    3  A    between atoms: C_2  and  C_14
REMARK    4  A    between atoms: C_4  and  C_5
REMARK    5  A    between atoms: C_5  and  C_6
REMARK    6  A    between atoms: C_6  and  C_7
REMARK    7  A    between atoms: C_7  and  C_8
REMARK    8  A    between atoms: C_8  and  C_9
REMARK    9  A    between atoms: C_9  and  C_10
REMARK   10  A    between atoms: C_10  and  C_11
REMARK   11  A    between atoms: C_11  and  O_12
REMARK   12  A    between atoms: C_15  and  C_16
REMARK   13  A    between atoms: C_17  and  C_18
REMARK   14  A    between atoms: C_18  and  C_19
REMARK   15  A    between atoms: C_19  and  C_20
REMARK   16  A    between atoms: C_20  and  C_21
REMARK   17  A    between atoms: C_21  and  C_22
REMARK                            x       y       z     vdW  Elec       q    Type
REMARK                         _______ _______ _______ _____ _____    ______ ____
ROOT
ATOM      1  C   UNL     1       7.935  -4.556  26.491  0.00  0.00    +0.137 C 
ENDROOT
BRANCH   1   2
ATOM      2  O   UNL     1       9.347  -4.702  26.616  0.00  0.00    -0.388 OA
ATOM      3  H   UNL     1       9.718  -3.821  26.791  0.00  0.00    +0.210 HD
ENDBRANCH   1   2
BRANCH   1   4
ATOM      4  C   UNL     1       7.507  -5.249  25.232  0.00  0.00    +0.004 C 
ATOM      5  C   UNL     1       7.905  -4.875  24.005  0.00  0.00    -0.002 C 
BRANCH   5   6
ATOM      6  C   UNL     1       7.455  -5.500  22.786  0.00  0.00    -0.004 C 
ATOM      7  C   UNL     1       6.371  -5.146  22.076  0.00  0.00    -0.027 C 
BRANCH   7   8
ATOM      8  C   UNL     1       5.400  -4.048  22.410  0.00  0.00    +0.027 C 
BRANCH   8   9
ATOM      9  C   UNL     1       4.297  -4.518  23.355  0.00  0.00    +0.004 C 
BRANCH   9  10
ATOM     10  C   UNL     1       3.891  -5.949  23.002  0.00  0.00    +0.000 C 
BRANCH  10  11
ATOM     11  C   UNL     1       3.598  -6.784  24.244  0.00  0.00    -0.003 C 
ATOM     12  C   UNL     1       4.036  -6.051  25.504  0.00  0.00    +0.004 C 
ENDBRANCH  10  11
ENDBRANCH   9  10
ENDBRANCH   8   9
ENDBRANCH   7   8
ENDBRANCH   5   6
ENDBRANCH   1   4
BRANCH   1  13
ATOM     13  C   UNL     1       7.560  -3.072  26.476  0.00  0.00    +0.035 C 
BRANCH  13  14
ATOM     14  C   UNL     1       8.788  -2.166  26.438  0.00  0.00    +0.003 C 
BRANCH  14  15
ATOM     15  C   UNL     1       8.705  -1.218  25.244  0.00  0.00    +0.000 C 
BRANCH  15  16
ATOM     16  C   UNL     1       7.373  -1.374  24.521  0.00  0.00    +0.000 C 
BRANCH  16  17
ATOM     17  C   UNL     1       7.545  -1.253  23.009  0.00  0.00    +0.001 C 
BRANCH  17  18
ATOM     18  C   UNL     1       9.018  -1.371  22.626  0.00  0.00    +0.011 C 
BRANCH  18  19
ATOM     19  C   UNL     1       9.403  -0.349  21.562  0.00  0.00    +0.120 C 
BRANCH  19  20
ATOM     20  C   UNL     1       9.943   0.921  22.182  0.00  0.00    +0.305 C 
ATOM     21  O   UNL     1      10.492   1.001  23.269  0.00  0.00    -0.251 OA
BRANCH  20  22
ATOM     22  O   UNL     1       9.752   1.997  21.386  0.00  0.00    -0.481 OA
ATOM     23  H   UNL     1       8.823   2.290  21.337  0.00  0.00    +0.295 HD
ENDBRANCH  20  22
ENDBRANCH  19  20
ENDBRANCH  18  19
ENDBRANCH  17  18
ENDBRANCH  16  17
ENDBRANCH  15  16
ENDBRANCH  14  15
ENDBRANCH  13  14
ENDBRANCH   1  13
TORSDOF 16
ENDMDL
