MODEL 1
REMARK VINA RESULT:      -4.2      0.000      0.000
REMARK  Name = 
REMARK  6 active torsions:
REMARK  status: ('A' for Active; 'I' for Inactive)
REMARK    1  A    between atoms: O_1  and  P_2
REMARK    2  A    between atoms: P_2  and  O_3
REMARK    3  A    between atoms: P_2  and  C_5
REMARK    4  A    between atoms: C_5  and  C_6
REMARK    5  A    between atoms: C_6  and  C_7
REMARK    6  A    between atoms: C_7  and  C_9
REMARK                            x       y       z     vdW  Elec       q    Type
REMARK                         _______ _______ _______ _____ _____    ______ ____
ROOT
ATOM      1  P   UNL     1       7.363  -5.200  26.569  0.00  0.00    +0.328 P 
ATOM      2  O   UNL     1       6.275  -6.134  26.039  0.00  0.00    -0.259 OA
ENDROOT
BRANCH   1   3
ATOM      3  O   UNL     1       7.458  -6.108  28.038  0.00  0.00    -0.324 OA
ATOM      4  H   UNL     1       8.362  -6.448  28.168  0.00  0.00    +0.220 HD
ENDBRANCH   1   3
BRANCH   1   5
ATOM      5  O   UNL     1       8.764  -5.910  26.122  0.00  0.00    -0.324 OA
ATOM      6  H   UNL     1       9.296  -6.047  26.934  0.00  0.00    +0.220 HD
ENDBRANCH   1   5
BRANCH   1   7
ATOM      7  C   UNL     1       7.263  -4.238  25.015  0.00  0.00    +0.132 C 
BRANCH   7   8
ATOM      8  C   UNL     1       7.974  -4.854  23.817  0.00  0.00    +0.050 C 
BRANCH   8   9
ATOM      9  C   UNL     1       7.112  -5.040  22.588  0.00  0.00    -0.015 C 
ATOM     10  C   UNL     1       6.859  -6.185  21.931  0.00  0.00    +0.015 C 
BRANCH   9  11
ATOM     11  C   UNL     1       6.483  -3.807  22.036  0.00  0.00    +0.253 C 
ATOM     12  O   UNL     1       5.269  -3.678  21.944  0.00  0.00    -0.296 OA
ENDBRANCH   9  11
ENDBRANCH   8   9
ENDBRANCH   7   8
ENDBRANCH   1   7
TORSDOF 6
ENDMDL
MODEL 2
REMARK VINA RESULT:      -4.1      3.516      4.122
REMARK  Name = 
REMARK  6 active torsions:
REMARK  status: ('A' for Active; 'I' for Inactive)
REMARK    1  A    between atoms: O_1  and  P_2
REMARK    2  A    between atoms: P_2  and  O_3
REMARK    3  A    between atoms: P_2  and  C_5
REMARK    4  A    between atoms: C_5  and  C_6
REMARK    5  A    between atoms: C_6  and  C_7
REMARK    6  A    between atoms: C_7  and  C_9
REMARK                            x       y       z     vdW  Elec       q    Type
REMARK                         _______ _______ _______ _____ _____    ______ ____
ROOT
ATOM      1  P   UNL     1       8.873  -4.710  25.588  0.00  0.00    +0.328 P 
ATOM      2  O   UNL     1       7.832  -5.191  24.578  0.00  0.00    -0.259 OA
ENDROOT
BRANCH   1   3
ATOM      3  O   UNL     1       8.359  -5.911  26.722  0.00  0.00    -0.324 OA
ATOM      4  H   UNL     1       8.341  -5.540  27.624  0.00  0.00    +0.220 HD
ENDBRANCH   1   3
BRANCH   1   5
ATOM      5  O   UNL     1      10.182  -5.642  25.300  0.00  0.00    -0.324 OA
ATOM      6  H   UNL     1       9.859  -6.524  25.020  0.00  0.00    +0.220 HD
ENDBRANCH   1   5
BRANCH   1   7
ATOM      7  C   UNL     1       9.417  -3.438  24.390  0.00  0.00    +0.132 C 
BRANCH   7   8
ATOM      8  C   UNL     1       9.181  -1.995  24.814  0.00  0.00    +0.050 C 
BRANCH   8   9
ATOM      9  C   UNL     1       9.965  -0.962  24.034  0.00  0.00    -0.015 C 
ATOM     10  C   UNL     1      10.422   0.222  24.474  0.00  0.00    +0.015 C 
BRANCH   9  11
ATOM     11  C   UNL     1      10.250  -1.295  22.610  0.00  0.00    +0.253 C 
ATOM     12  O   UNL     1       9.923  -0.559  21.689  0.00  0.00    -0.296 OA
ENDBRANCH   9  11
ENDBRANCH   8   9
ENDBRANCH   7   8
ENDBRANCH   1   7
TORSDOF 6
ENDMDL
MODEL 3
REMARK VINA RESULT:      -4.0      6.238      7.536
REMARK  Name = 
REMARK  6 active torsions:
REMARK  status: ('A' for Active; 'I' for Inactive)
REMARK    1  A    between atoms: O_1  and  P_2
REMARK    2  A    between atoms: P_2  and  O_3
REMARK    3  A    between atoms: P_2  and  C_5
REMARK    4  A    between atoms: C_5  and  C_6
REMARK    5  A    between atoms: C_6  and  C_7
REMARK    6  A    between atoms: C_7  and  C_9
REMARK                            x       y       z     vdW  Elec       q    Type
REMARK                         _______ _______ _______ _____ _____    ______ ____
ROOT
ATOM      1  P   UNL     1       9.417   2.308  23.021  0.00  0.00    +0.328 P 
ATOM      2  O   UNL     1      10.056   3.485  23.757  0.00  0.00    -0.259 OA
ENDROOT
BRANCH   1   3
ATOM      3  O   UNL     1       8.345   3.381  22.190  0.00  0.00    -0.324 OA
ATOM      4  H   UNL     1       7.937   2.929  21.428  0.00  0.00    +0.220 HD
ENDBRANCH   1   3
BRANCH   1   5
ATOM      5  O   UNL     1      10.264   2.190  21.630  0.00  0.00    -0.324 OA
ATOM      6  H   UNL     1       9.619   2.054  20.904  0.00  0.00    +0.220 HD
ENDBRANCH   1   5
BRANCH   1   7
ATOM      7  C   UNL     1      10.551   1.172  23.900  0.00  0.00    +0.132 C 
BRANCH   7   8
ATOM      8  C   UNL     1       9.893  -0.040  24.546  0.00  0.00    +0.050 C 
BRANCH   8   9
ATOM      9  C   UNL     1       9.911  -1.300  23.708  0.00  0.00    -0.015 C 
ATOM     10  C   UNL     1      10.310  -1.428  22.431  0.00  0.00    +0.015 C 
BRANCH   9  11
ATOM     11  C   UNL     1       9.415  -2.537  24.374  0.00  0.00    +0.253 C 
ATOM     12  O   UNL     1       9.972  -3.619  24.240  0.00  0.00    -0.296 OA
ENDBRANCH   9  11
ENDBRANCH   8   9
ENDBRANCH   7   8
ENDBRANCH   1   7
TORSDOF 6
ENDMDL
MODEL 4
REMARK VINA RESULT:      -4.0      1.268      1.879
REMARK  Name = 
REMARK  6 active torsions:
REMARK  status: ('A' for Active; 'I' for Inactive)
REMARK    1  A    between atoms: O_1  and  P_2
REMARK    2  A    between atoms: P_2  and  O_3
REMARK    3  A    between atoms: P_2  and  C_5
REMARK    4  A    between atoms: C_5  and  C_6
REMARK    5  A    between atoms: C_6  and  C_7
REMARK    6  A    between atoms: C_7  and  C_9
REMARK                            x       y       z     vdW  Elec       q    Type
REMARK                         _______ _______ _______ _____ _____    ______ ____
ROOT
ATOM      1  P   UNL     1       8.576  -5.197  25.491  0.00  0.00    +0.328 P 
ATOM      2  O   UNL     1       8.913  -3.729  25.746  0.00  0.00    -0.259 OA
ENDROOT
BRANCH   1   3
ATOM      3  O   UNL     1      10.234  -5.639  25.715  0.00  0.00    -0.324 OA
ATOM      4  H   UNL     1      10.325  -6.610  25.738  0.00  0.00    +0.220 HD
ENDBRANCH   1   3
BRANCH   1   5
ATOM      5  O   UNL     1       8.285  -5.812  26.975  0.00  0.00    -0.324 OA
ATOM      6  H   UNL     1       8.487  -6.771  26.941  0.00  0.00    +0.220 HD
ENDBRANCH   1   5
BRANCH   1   7
ATOM      7  C   UNL     1       6.823  -4.731  25.254  0.00  0.00    +0.132 C 
BRANCH   7   8
ATOM      8  C   UNL     1       6.089  -5.481  24.149  0.00  0.00    +0.050 C 
BRANCH   8   9
ATOM      9  C   UNL     1       6.546  -5.156  22.744  0.00  0.00    -0.015 C 
ATOM     10  C   UNL     1       7.124  -5.986  21.859  0.00  0.00    +0.015 C 
BRANCH   9  11
ATOM     11  C   UNL     1       6.340  -3.750  22.297  0.00  0.00    +0.253 C 
ATOM     12  O   UNL     1       5.557  -3.457  21.402  0.00  0.00    -0.296 OA
ENDBRANCH   9  11
ENDBRANCH   8   9
ENDBRANCH   7   8
ENDBRANCH   1   7
TORSDOF 6
ENDMDL
MODEL 5
REMARK VINA RESULT:      -4.0      5.702      6.505
REMARK  Name = 
REMARK  6 active torsions:
REMARK  status: ('A' for Active; 'I' for Inactive)
REMARK    1  A    between atoms: O_1  and  P_2
REMARK    2  A    between atoms: P_2  and  O_3
REMARK    3  A    between atoms: P_2  and  C_5
REMARK    4  A    between atoms: C_5  and  C_6
REMARK    5  A    between atoms: C_6  and  C_7
REMARK    6  A    between atoms: C_7  and  C_9
REMARK                            x       y       z     vdW  Elec       q    Type
REMARK                         _______ _______ _______ _____ _____    ______ ____
ROOT
ATOM      1  P   UNL     1       9.380  -2.119  23.208  0.00  0.00    +0.328 P 
ATOM      2  O   UNL     1      10.652  -1.831  22.411  0.00  0.00    -0.259 OA
ENDROOT
BRANCH   1   3
ATOM      3  O   UNL     1      10.201  -3.337  24.121  0.00  0.00    -0.324 OA
ATOM      4  H   UNL     1      11.102  -3.471  23.773  0.00  0.00    +0.220 HD
ENDBRANCH   1   3
BRANCH   1   5
ATOM      5  O   UNL     1       9.495  -1.156  24.522  0.00  0.00    -0.324 OA
ATOM      6  H   UNL     1      10.052  -1.621  25.180  0.00  0.00    +0.220 HD
ENDBRANCH   1   5
BRANCH   1   7
ATOM      7  C   UNL     1       8.510  -0.831  22.242  0.00  0.00    +0.132 C 
BRANCH   7   8
ATOM      8  C   UNL     1       9.404   0.217  21.593  0.00  0.00    +0.050 C 
BRANCH   8   9
ATOM      9  C   UNL     1       9.256   1.617  22.148  0.00  0.00    -0.015 C 
ATOM     10  C   UNL     1       8.252   2.483  21.927  0.00  0.00    +0.015 C 
BRANCH   9  11
ATOM     11  C   UNL     1      10.358   2.092  23.032  0.00  0.00    +0.253 C 
ATOM     12  O   UNL     1      10.580   1.589  24.126  0.00  0.00    -0.296 OA
ENDBRANCH   9  11
ENDBRANCH   8   9
ENDBRANCH   7   8
ENDBRANCH   1   7
TORSDOF 6
ENDMDL
MODEL 6
REMARK VINA RESULT:      -4.0      1.690      2.031
REMARK  Name = 
REMARK  6 active torsions:
REMARK  status: ('A' for Active; 'I' for Inactive)
REMARK    1  A    between atoms: O_1  and  P_2
REMARK    2  A    between atoms: P_2  and  O_3
REMARK    3  A    between atoms: P_2  and  C_5
REMARK    4  A    between atoms: C_5  and  C_6
REMARK    5  A    between atoms: C_6  and  C_7
REMARK    6  A    between atoms: C_7  and  C_9
REMARK                            x       y       z     vdW  Elec       q    Type
REMARK                         _______ _______ _______ _____ _____    ______ ____
ROOT
ATOM      1  P   UNL     1       8.724  -4.850  25.474  0.00  0.00    +0.328 P 
ATOM      2  O   UNL     1       7.785  -5.918  26.034  0.00  0.00    -0.259 OA
ENDROOT
BRANCH   1   3
ATOM      3  O   UNL     1       9.466  -4.659  27.025  0.00  0.00    -0.324 OA
ATOM      4  H   UNL     1      10.349  -4.255  26.931  0.00  0.00    +0.220 HD
ENDBRANCH   1   3
BRANCH   1   5
ATOM      5  O   UNL     1      10.056  -5.677  25.017  0.00  0.00    -0.324 OA
ATOM      6  H   UNL     1       9.865  -6.084  24.146  0.00  0.00    +0.220 HD
ENDBRANCH   1   5
BRANCH   1   7
ATOM      7  C   UNL     1       7.939  -5.052  23.833  0.00  0.00    +0.132 C 
BRANCH   7   8
ATOM      8  C   UNL     1       6.492  -4.586  23.738  0.00  0.00    +0.050 C 
BRANCH   8   9
ATOM      9  C   UNL     1       5.610  -5.421  22.835  0.00  0.00    -0.015 C 
ATOM     10  C   UNL     1       4.326  -5.762  23.035  0.00  0.00    +0.015 C 
BRANCH   9  11
ATOM     11  C   UNL     1       6.246  -5.931  21.588  0.00  0.00    +0.253 C 
ATOM     12  O   UNL     1       5.994  -5.459  20.487  0.00  0.00    -0.296 OA
ENDBRANCH   9  11
ENDBRANCH   8   9
ENDBRANCH   7   8
ENDBRANCH   1   7
TORSDOF 6
ENDMDL
MODEL 7
REMARK VINA RESULT:      -3.9      3.550      4.320
REMARK  Name = 
REMARK  6 active torsions:
REMARK  status: ('A' for Active; 'I' for Inactive)
REMARK    1  A    between atoms: O_1  and  P_2
REMARK    2  A    between atoms: P_2  and  O_3
REMARK    3  A    between atoms: P_2  and  C_5
REMARK    4  A    between atoms: C_5  and  C_6
REMARK    5  A    between atoms: C_6  and  C_7
REMARK    6  A    between atoms: C_7  and  C_9
REMARK                            x       y       z     vdW  Elec       q    Type
REMARK                         _______ _______ _______ _____ _____    ______ ____
ROOT
ATOM      1  P   UNL     1       9.368  -1.698  22.968  0.00  0.00    +0.328 P 
ATOM      2  O   UNL     1      10.122  -2.834  23.658  0.00  0.00    -0.259 OA
ENDROOT
BRANCH   1   3
ATOM      3  O   UNL     1      10.579  -0.565  23.461  0.00  0.00    -0.324 OA
ATOM      4  H   UNL     1      10.566  -0.456  24.430  0.00  0.00    +0.220 HD
ENDBRANCH   1   3
BRANCH   1   5
ATOM      5  O   UNL     1      10.014  -1.630  21.470  0.00  0.00    -0.324 OA
ATOM      6  H   UNL     1      10.804  -2.211  21.464  0.00  0.00    +0.220 HD
ENDBRANCH   1   5
BRANCH   1   7
ATOM      7  C   UNL     1       8.086  -2.895  22.446  0.00  0.00    +0.132 C 
BRANCH   7   8
ATOM      8  C   UNL     1       7.877  -4.080  23.381  0.00  0.00    +0.050 C 
BRANCH   8   9
ATOM      9  C   UNL     1       6.836  -5.078  22.925  0.00  0.00    -0.015 C 
ATOM     10  C   UNL     1       5.845  -5.617  23.656  0.00  0.00    +0.015 C 
BRANCH   9  11
ATOM     11  C   UNL     1       6.931  -5.523  21.506  0.00  0.00    +0.253 C 
ATOM     12  O   UNL     1       5.971  -5.493  20.748  0.00  0.00    -0.296 OA
ENDBRANCH   9  11
ENDBRANCH   8   9
ENDBRANCH   7   8
ENDBRANCH   1   7
TORSDOF 6
ENDMDL
MODEL 8
REMARK VINA RESULT:      -3.8      3.825      5.117
REMARK  Name = 
REMARK  6 active torsions:
REMARK  status: ('A' for Active; 'I' for Inactive)
REMARK    1  A    between atoms: O_1  and  P_2
REMARK    2  A    between atoms: P_2  and  O_3
REMARK    3  A    between atoms: P_2  and  C_5
REMARK    4  A    between atoms: C_5  and  C_6
REMARK    5  A    between atoms: C_6  and  C_7
REMARK    6  A    between atoms: C_7  and  C_9
REMARK                            x       y       z     vdW  Elec       q    Type
REMARK                         _______ _______ _______ _____ _____    ______ ____
ROOT
ATOM      1  P   UNL     1       9.458  -1.234  22.695  0.00  0.00    +0.328 P 
ATOM      2  O   UNL     1      10.487  -2.352  22.859  0.00  0.00    -0.259 OA
ENDROOT
BRANCH   1   3
ATOM      3  O   UNL     1      10.656  -0.046  23.079  0.00  0.00    -0.324 OA
ATOM      4  H   UNL     1      11.280  -0.396  23.742  0.00  0.00    +0.220 HD
ENDBRANCH   1   3
BRANCH   1   5
ATOM      5  O   UNL     1       9.602  -0.772  21.136  0.00  0.00    -0.324 OA
ATOM      6  H   UNL     1      10.236  -1.383  20.705  0.00  0.00    +0.220 HD
ENDBRANCH   1   5
BRANCH   1   7
ATOM      7  C   UNL     1       8.191  -2.490  22.290  0.00  0.00    +0.132 C 
BRANCH   7   8
ATOM      8  C   UNL     1       7.575  -3.208  23.483  0.00  0.00    +0.050 C 
BRANCH   8   9
ATOM      9  C   UNL     1       7.824  -4.700  23.530  0.00  0.00    -0.015 C 
ATOM     10  C   UNL     1       7.374  -5.632  22.674  0.00  0.00    +0.015 C 
BRANCH   9  11
ATOM     11  C   UNL     1       8.654  -5.189  24.667  0.00  0.00    +0.253 C 
ATOM     12  O   UNL     1       9.851  -4.946  24.753  0.00  0.00    -0.296 OA
ENDBRANCH   9  11
ENDBRANCH   8   9
ENDBRANCH   7   8
ENDBRANCH   1   7
TORSDOF 6
ENDMDL
MODEL 9
REMARK VINA RESULT:      -3.8      6.339      7.278
REMARK  Name = 
REMARK  6 active torsions:
REMARK  status: ('A' for Active; 'I' for Inactive)
REMARK    1  A    between atoms: O_1  and  P_2
REMARK    2  A    between atoms: P_2  and  O_3
REMARK    3  A    between atoms: P_2  and  C_5
REMARK    4  A    between atoms: C_5  and  C_6
REMARK    5  A    between atoms: C_6  and  C_7
REMARK    6  A    between atoms: C_7  and  C_9
REMARK                            x       y       z     vdW  Elec       q    Type
REMARK                         _______ _______ _______ _____ _____    ______ ____
ROOT
ATOM      1  P   UNL     1       9.924   2.484  23.209  0.00  0.00    +0.328 P 
ATOM      2  O   UNL     1      10.874   1.551  23.959  0.00  0.00    -0.259 OA
ENDROOT
BRANCH   1   3
ATOM      3  O   UNL     1      11.182   3.659  23.033  0.00  0.00    -0.324 OA
ATOM      4  H   UNL     1      10.920   4.501  23.450  0.00  0.00    +0.220 HD
ENDBRANCH   1   3
BRANCH   1   5
ATOM      5  O   UNL     1      10.147   2.113  21.634  0.00  0.00    -0.324 OA
ATOM      6  H   UNL     1       9.412   2.519  21.129  0.00  0.00    +0.220 HD
ENDBRANCH   1   5
BRANCH   1   7
ATOM      7  C   UNL     1       8.593   1.242  23.395  0.00  0.00    +0.132 C 
BRANCH   7   8
ATOM      8  C   UNL     1       8.465   0.244  22.252  0.00  0.00    +0.050 C 
BRANCH   8   9
ATOM      9  C   UNL     1       8.465  -1.210  22.670  0.00  0.00    -0.015 C 
ATOM     10  C   UNL     1       7.410  -2.039  22.746  0.00  0.00    +0.015 C 
BRANCH   9  11
ATOM     11  C   UNL     1       9.786  -1.782  23.054  0.00  0.00    +0.253 C 
ATOM     12  O   UNL     1      10.741  -1.789  22.288  0.00  0.00    -0.296 OA
ENDBRANCH   9  11
ENDBRANCH   8   9
ENDBRANCH   7   8
ENDBRANCH   1   7
TORSDOF 6
ENDMDL
