MODEL 1
REMARK VINA RESULT:      -6.5      0.000      0.000
REMARK  Name = 
REMARK  2 active torsions:
REMARK  status: ('A' for Active; 'I' for Inactive)
REMARK    1  A    between atoms: C_4  and  C_6
REMARK    2  A    between atoms: C_9  and  C_11
REMARK                            x       y       z     vdW  Elec       q    Type
REMARK                         _______ _______ _______ _____ _____    ______ ____
ROOT
ATOM      1  C   UNL     1       7.975  -4.445  25.548  0.00  0.00    +0.059 A 
ATOM      2  S   UNL     1       7.525  -2.932  24.904  0.00  0.00    -0.066 S 
ATOM      3  C   UNL     1       9.094  -2.751  24.211  0.00  0.00    +0.109 A 
ATOM      4  N   UNL     1       9.896  -3.786  24.388  0.00  0.00    -0.247 NA
ATOM      5  C   UNL     1       9.266  -4.744  25.169  0.00  0.00    +0.129 A 
ENDROOT
BRANCH   1   9
ATOM      6  N   UNL     1       6.400  -6.466  28.013  0.00  0.00    -0.284 N 
ATOM      7  H   UNL     1       6.447  -6.909  28.925  0.00  0.00    +0.188 HD
ATOM      8  N   UNL     1       7.452  -5.737  27.603  0.00  0.00    -0.173 NA
ATOM      9  C   UNL     1       7.091  -5.301  26.389  0.00  0.00    +0.101 A 
ATOM     10  C   UNL     1       5.796  -5.754  26.041  0.00  0.00    +0.049 A 
ATOM     11  C   UNL     1       5.380  -6.508  27.110  0.00  0.00    +0.105 A 
ENDBRANCH   1   9
BRANCH   3  12
ATOM     12  C   UNL     1       9.447  -1.524  23.477  0.00  0.00    +0.007 A 
ATOM     13  C   UNL     1       9.159  -1.363  22.111  0.00  0.00    +0.010 A 
ATOM     14  C   UNL     1       9.476  -0.179  21.442  0.00  0.00    +0.001 A 
ATOM     15  C   UNL     1      10.087   0.867  22.129  0.00  0.00    +0.000 A 
ATOM     16  C   UNL     1      10.384   0.724  23.483  0.00  0.00    +0.001 A 
ATOM     17  C   UNL     1      10.064  -0.460  24.153  0.00  0.00    +0.010 A 
ENDBRANCH   3  12
TORSDOF 2
ENDMDL
MODEL 2
REMARK VINA RESULT:      -6.3      2.928      6.925
REMARK  Name = 
REMARK  2 active torsions:
REMARK  status: ('A' for Active; 'I' for Inactive)
REMARK    1  A    between atoms: C_4  and  C_6
REMARK    2  A    between atoms: C_9  and  C_11
REMARK                            x       y       z     vdW  Elec       q    Type
REMARK                         _______ _______ _______ _____ _____    ______ ____
ROOT
ATOM      1  C   UNL     1       9.307  -0.925  23.130  0.00  0.00    +0.059 A 
ATOM      2  S   UNL     1       7.729  -1.513  22.871  0.00  0.00    -0.066 S 
ATOM      3  C   UNL     1       8.226  -3.089  23.363  0.00  0.00    +0.109 A 
ATOM      4  N   UNL     1       9.482  -3.169  23.764  0.00  0.00    -0.247 NA
ATOM      5  C   UNL     1      10.106  -1.939  23.611  0.00  0.00    +0.129 A 
ENDROOT
BRANCH   1   9
ATOM      6  N   UNL     1      10.182   2.272  21.842  0.00  0.00    -0.284 N 
ATOM      7  H   UNL     1      10.263   2.886  21.038  0.00  0.00    +0.188 HD
ATOM      8  N   UNL     1       9.721   1.024  21.648  0.00  0.00    -0.173 NA
ATOM      9  C   UNL     1       9.738   0.478  22.871  0.00  0.00    +0.101 A 
ATOM     10  C   UNL     1      10.205   1.397  23.841  0.00  0.00    +0.049 A 
ATOM     11  C   UNL     1      10.488   2.545  23.142  0.00  0.00    +0.105 A 
ENDBRANCH   1   9
BRANCH   3  12
ATOM     12  C   UNL     1       7.276  -4.214  23.333  0.00  0.00    +0.007 A 
ATOM     13  C   UNL     1       6.452  -4.524  24.429  0.00  0.00    +0.010 A 
ATOM     14  C   UNL     1       5.536  -5.576  24.368  0.00  0.00    +0.001 A 
ATOM     15  C   UNL     1       5.427  -6.338  23.207  0.00  0.00    +0.000 A 
ATOM     16  C   UNL     1       6.238  -6.048  22.112  0.00  0.00    +0.001 A 
ATOM     17  C   UNL     1       7.153  -4.993  22.172  0.00  0.00    +0.010 A 
ENDBRANCH   3  12
TORSDOF 2
ENDMDL
MODEL 3
REMARK VINA RESULT:      -6.3      2.552      2.823
REMARK  Name = 
REMARK  2 active torsions:
REMARK  status: ('A' for Active; 'I' for Inactive)
REMARK    1  A    between atoms: C_4  and  C_6
REMARK    2  A    between atoms: C_9  and  C_11
REMARK                            x       y       z     vdW  Elec       q    Type
REMARK                         _______ _______ _______ _____ _____    ______ ____
ROOT
ATOM      1  C   UNL     1       7.883  -3.791  23.294  0.00  0.00    +0.059 A 
ATOM      2  S   UNL     1       7.831  -2.309  22.453  0.00  0.00    -0.066 S 
ATOM      3  C   UNL     1       9.141  -1.713  23.403  0.00  0.00    +0.109 A 
ATOM      4  N   UNL     1       9.642  -2.587  24.258  0.00  0.00    -0.247 NA
ATOM      5  C   UNL     1       8.911  -3.765  24.212  0.00  0.00    +0.129 A 
ENDROOT
BRANCH   1   9
ATOM      6  N   UNL     1       6.054  -6.620  22.157  0.00  0.00    -0.284 N 
ATOM      7  H   UNL     1       5.939  -7.352  21.463  0.00  0.00    +0.188 HD
ATOM      8  N   UNL     1       7.072  -5.755  22.009  0.00  0.00    -0.173 NA
ATOM      9  C   UNL     1       6.952  -4.930  23.057  0.00  0.00    +0.101 A 
ATOM     10  C   UNL     1       5.852  -5.288  23.873  0.00  0.00    +0.049 A 
ATOM     11  C   UNL     1       5.291  -6.382  23.261  0.00  0.00    +0.105 A 
ENDBRANCH   1   9
BRANCH   3  12
ATOM     12  C   UNL     1       9.630  -0.337  23.218  0.00  0.00    +0.007 A 
ATOM     13  C   UNL     1       9.487   0.349  21.999  0.00  0.00    +0.010 A 
ATOM     14  C   UNL     1       9.931   1.664  21.855  0.00  0.00    +0.001 A 
ATOM     15  C   UNL     1      10.527   2.319  22.929  0.00  0.00    +0.000 A 
ATOM     16  C   UNL     1      10.681   1.655  24.144  0.00  0.00    +0.001 A 
ATOM     17  C   UNL     1      10.234   0.339  24.289  0.00  0.00    +0.010 A 
ENDBRANCH   3  12
TORSDOF 2
ENDMDL
MODEL 4
REMARK VINA RESULT:      -6.2      2.384      6.882
REMARK  Name = 
REMARK  2 active torsions:
REMARK  status: ('A' for Active; 'I' for Inactive)
REMARK    1  A    between atoms: C_4  and  C_6
REMARK    2  A    between atoms: C_9  and  C_11
REMARK                            x       y       z     vdW  Elec       q    Type
REMARK                         _______ _______ _______ _____ _____    ______ ____
ROOT
ATOM      1  C   UNL     1       9.584  -0.758  23.575  0.00  0.00    +0.059 A 
ATOM      2  S   UNL     1       8.267  -1.146  24.584  0.00  0.00    -0.066 S 
ATOM      3  C   UNL     1       8.678  -2.819  24.492  0.00  0.00    +0.109 A 
ATOM      4  N   UNL     1       9.775  -3.078  23.804  0.00  0.00    -0.247 NA
ATOM      5  C   UNL     1      10.281  -1.905  23.262  0.00  0.00    +0.129 A 
ENDROOT
BRANCH   1   9
ATOM      6  N   UNL     1      10.220   2.278  21.837  0.00  0.00    -0.284 N 
ATOM      7  H   UNL     1      10.242   2.779  20.954  0.00  0.00    +0.188 HD
ATOM      8  N   UNL     1       9.838   0.990  21.829  0.00  0.00    -0.173 NA
ATOM      9  C   UNL     1       9.917   0.620  23.114  0.00  0.00    +0.101 A 
ATOM     10  C   UNL     1      10.345   1.691  23.935  0.00  0.00    +0.049 A 
ATOM     11  C   UNL     1      10.537   2.747  23.078  0.00  0.00    +0.105 A 
ENDBRANCH   1   9
BRANCH   3  12
ATOM     12  C   UNL     1       7.843  -3.829  25.163  0.00  0.00    +0.007 A 
ATOM     13  C   UNL     1       6.724  -4.406  24.539  0.00  0.00    +0.010 A 
ATOM     14  C   UNL     1       5.964  -5.385  25.183  0.00  0.00    +0.001 A 
ATOM     15  C   UNL     1       6.312  -5.806  26.463  0.00  0.00    +0.000 A 
ATOM     16  C   UNL     1       7.417  -5.243  27.100  0.00  0.00    +0.001 A 
ATOM     17  C   UNL     1       8.178  -4.265  26.454  0.00  0.00    +0.010 A 
ENDBRANCH   3  12
TORSDOF 2
ENDMDL
MODEL 5
REMARK VINA RESULT:      -5.9      1.848      2.631
REMARK  Name = 
REMARK  2 active torsions:
REMARK  status: ('A' for Active; 'I' for Inactive)
REMARK    1  A    between atoms: C_4  and  C_6
REMARK    2  A    between atoms: C_9  and  C_11
REMARK                            x       y       z     vdW  Elec       q    Type
REMARK                         _______ _______ _______ _____ _____    ______ ____
ROOT
ATOM      1  C   UNL     1       8.685  -2.657  25.137  0.00  0.00    +0.059 A 
ATOM      2  S   UNL     1       8.207  -1.073  25.547  0.00  0.00    -0.066 S 
ATOM      3  C   UNL     1       9.328  -0.429  24.406  0.00  0.00    +0.109 A 
ATOM      4  N   UNL     1       9.981  -1.338  23.703  0.00  0.00    -0.247 NA
ATOM      5  C   UNL     1       9.631  -2.610  24.135  0.00  0.00    +0.129 A 
ENDROOT
BRANCH   1   9
ATOM      6  N   UNL     1       8.041  -5.641  26.959  0.00  0.00    -0.284 N 
ATOM      7  H   UNL     1       8.378  -6.347  27.606  0.00  0.00    +0.188 HD
ATOM      8  N   UNL     1       8.869  -4.635  26.625  0.00  0.00    -0.173 NA
ATOM      9  C   UNL     1       8.149  -3.892  25.775  0.00  0.00    +0.101 A 
ATOM     10  C   UNL     1       6.855  -4.434  25.582  0.00  0.00    +0.049 A 
ATOM     11  C   UNL     1       6.820  -5.566  26.358  0.00  0.00    +0.105 A 
ENDBRANCH   1   9
BRANCH   3  12
ATOM     12  C   UNL     1       9.488   1.027  24.258  0.00  0.00    +0.007 A 
ATOM     13  C   UNL     1      10.535   1.591  23.509  0.00  0.00    +0.010 A 
ATOM     14  C   UNL     1      10.650   2.974  23.357  0.00  0.00    +0.001 A 
ATOM     15  C   UNL     1       9.717   3.819  23.951  0.00  0.00    +0.000 A 
ATOM     16  C   UNL     1       8.674   3.280  24.701  0.00  0.00    +0.001 A 
ATOM     17  C   UNL     1       8.558   1.895  24.851  0.00  0.00    +0.010 A 
ENDBRANCH   3  12
TORSDOF 2
ENDMDL
MODEL 6
REMARK VINA RESULT:      -5.8      2.513      7.029
REMARK  Name = 
REMARK  2 active torsions:
REMARK  status: ('A' for Active; 'I' for Inactive)
REMARK    1  A    between atoms: C_4  and  C_6
REMARK    2  A    between atoms: C_9  and  C_11
REMARK                            x       y       z     vdW  Elec       q    Type
REMARK                         _______ _______ _______ _____ _____    ______ ____
ROOT
ATOM      1  C   UNL     1       9.035  -0.765  23.159  0.00  0.00    +0.059 A 
ATOM      2  S   UNL     1       8.599  -1.319  24.710  0.00  0.00    -0.066 S 
ATOM      3  C   UNL     1       8.072  -2.817  24.037  0.00  0.00    +0.109 A 
ATOM      4  N   UNL     1       8.268  -2.934  22.735  0.00  0.00    -0.247 NA
ATOM      5  C   UNL     1       8.797  -1.755  22.230  0.00  0.00    +0.129 A 
ENDROOT
BRANCH   1   9
ATOM      6  N   UNL     1      10.204   2.308  21.804  0.00  0.00    -0.284 N 
ATOM      7  H   UNL     1      10.352   2.889  20.985  0.00  0.00    +0.188 HD
ATOM      8  N   UNL     1       9.642   1.098  21.633  0.00  0.00    -0.173 NA
ATOM      9  C   UNL     1       9.588   0.589  22.871  0.00  0.00    +0.101 A 
ATOM     10  C   UNL     1      10.113   1.493  23.826  0.00  0.00    +0.049 A 
ATOM     11  C   UNL     1      10.506   2.592  23.102  0.00  0.00    +0.105 A 
ENDBRANCH   1   9
BRANCH   3  12
ATOM     12  C   UNL     1       7.476  -3.853  24.897  0.00  0.00    +0.007 A 
ATOM     13  C   UNL     1       7.935  -4.093  26.204  0.00  0.00    +0.010 A 
ATOM     14  C   UNL     1       7.335  -5.059  27.013  0.00  0.00    +0.001 A 
ATOM     15  C   UNL     1       6.262  -5.803  26.529  0.00  0.00    +0.000 A 
ATOM     16  C   UNL     1       5.795  -5.582  25.235  0.00  0.00    +0.001 A 
ATOM     17  C   UNL     1       6.394  -4.613  24.426  0.00  0.00    +0.010 A 
ENDBRANCH   3  12
TORSDOF 2
ENDMDL
MODEL 7
REMARK VINA RESULT:      -5.7      4.209      7.805
REMARK  Name = 
REMARK  2 active torsions:
REMARK  status: ('A' for Active; 'I' for Inactive)
REMARK    1  A    between atoms: C_4  and  C_6
REMARK    2  A    between atoms: C_9  and  C_11
REMARK                            x       y       z     vdW  Elec       q    Type
REMARK                         _______ _______ _______ _____ _____    ______ ____
ROOT
ATOM      1  C   UNL     1      10.186   2.262  23.095  0.00  0.00    +0.059 A 
ATOM      2  S   UNL     1       9.874   1.036  24.236  0.00  0.00    -0.066 S 
ATOM      3  C   UNL     1       9.499  -0.066  22.962  0.00  0.00    +0.109 A 
ATOM      4  N   UNL     1       9.659   0.425  21.746  0.00  0.00    -0.247 NA
ATOM      5  C   UNL     1      10.030   1.760  21.821  0.00  0.00    +0.129 A 
ENDROOT
BRANCH   1   9
ATOM      6  N   UNL     1      11.746   5.393  23.733  0.00  0.00    -0.284 N 
ATOM      7  H   UNL     1      12.594   5.952  23.731  0.00  0.00    +0.188 HD
ATOM      8  N   UNL     1      11.823   4.117  23.318  0.00  0.00    -0.173 NA
ATOM      9  C   UNL     1      10.570   3.660  23.442  0.00  0.00    +0.101 A 
ATOM     10  C   UNL     1       9.699   4.664  23.930  0.00  0.00    +0.049 A 
ATOM     11  C   UNL     1      10.492   5.771  24.112  0.00  0.00    +0.105 A 
ENDBRANCH   1   9
BRANCH   3  12
ATOM     12  C   UNL     1       9.058  -1.437  23.268  0.00  0.00    +0.007 A 
ATOM     13  C   UNL     1       7.965  -2.032  22.614  0.00  0.00    +0.010 A 
ATOM     14  C   UNL     1       7.583  -3.344  22.899  0.00  0.00    +0.001 A 
ATOM     15  C   UNL     1       8.288  -4.086  23.842  0.00  0.00    +0.000 A 
ATOM     16  C   UNL     1       9.372  -3.512  24.504  0.00  0.00    +0.001 A 
ATOM     17  C   UNL     1       9.756  -2.199  24.217  0.00  0.00    +0.010 A 
ENDBRANCH   3  12
TORSDOF 2
ENDMDL
MODEL 8
REMARK VINA RESULT:      -5.7      3.642      4.140
REMARK  Name = 
REMARK  2 active torsions:
REMARK  status: ('A' for Active; 'I' for Inactive)
REMARK    1  A    between atoms: C_4  and  C_6
REMARK    2  A    between atoms: C_9  and  C_11
REMARK                            x       y       z     vdW  Elec       q    Type
REMARK                         _______ _______ _______ _____ _____    ______ ____
ROOT
ATOM      1  C   UNL     1       7.021  -2.803  22.701  0.00  0.00    +0.059 A 
ATOM      2  S   UNL     1       8.462  -1.932  22.436  0.00  0.00    -0.066 S 
ATOM      3  C   UNL     1       7.806  -0.575  23.274  0.00  0.00    +0.109 A 
ATOM      4  N   UNL     1       6.604  -0.772  23.784  0.00  0.00    -0.247 NA
ATOM      5  C   UNL     1       6.146  -2.036  23.440  0.00  0.00    +0.129 A 
ENDROOT
BRANCH   1   9
ATOM      6  N   UNL     1       5.986  -5.778  21.051  0.00  0.00    -0.284 N 
ATOM      7  H   UNL     1       5.428  -6.211  20.322  0.00  0.00    +0.188 HD
ATOM      8  N   UNL     1       5.947  -4.439  21.174  0.00  0.00    -0.173 NA
ATOM      9  C   UNL     1       6.765  -4.184  22.203  0.00  0.00    +0.101 A 
ATOM     10  C   UNL     1       7.329  -5.373  22.723  0.00  0.00    +0.049 A 
ATOM     11  C   UNL     1       6.801  -6.385  21.959  0.00  0.00    +0.105 A 
ENDBRANCH   1   9
BRANCH   3  12
ATOM     12  C   UNL     1       8.579   0.673  23.392  0.00  0.00    +0.007 A 
ATOM     13  C   UNL     1       9.907   0.687  23.854  0.00  0.00    +0.010 A 
ATOM     14  C   UNL     1      10.631   1.878  23.929  0.00  0.00    +0.001 A 
ATOM     15  C   UNL     1      10.041   3.078  23.541  0.00  0.00    +0.000 A 
ATOM     16  C   UNL     1       8.725   3.085  23.084  0.00  0.00    +0.001 A 
ATOM     17  C   UNL     1       8.000   1.892  23.006  0.00  0.00    +0.010 A 
ENDBRANCH   3  12
TORSDOF 2
ENDMDL
MODEL 9
REMARK VINA RESULT:      -5.6      3.366      5.203
REMARK  Name = 
REMARK  2 active torsions:
REMARK  status: ('A' for Active; 'I' for Inactive)
REMARK    1  A    between atoms: C_4  and  C_6
REMARK    2  A    between atoms: C_9  and  C_11
REMARK                            x       y       z     vdW  Elec       q    Type
REMARK                         _______ _______ _______ _____ _____    ______ ____
ROOT
ATOM      1  C   UNL     1       9.361  -0.529  23.566  0.00  0.00    +0.059 A 
ATOM      2  S   UNL     1       8.827   0.962  22.935  0.00  0.00    -0.066 S 
ATOM      3  C   UNL     1      10.078   1.783  23.793  0.00  0.00    +0.109 A 
ATOM      4  N   UNL     1      10.896   0.991  24.464  0.00  0.00    -0.247 NA
ATOM      5  C   UNL     1      10.474  -0.327  24.353  0.00  0.00    +0.129 A 
ENDROOT
BRANCH   1   9
ATOM      6  N   UNL     1       7.608  -3.359  22.317  0.00  0.00    -0.284 N 
ATOM      7  H   UNL     1       7.060  -3.775  21.570  0.00  0.00    +0.188 HD
ATOM      8  N   UNL     1       8.035  -2.093  22.165  0.00  0.00    -0.173 NA
ATOM      9  C   UNL     1       8.709  -1.841  23.295  0.00  0.00    +0.101 A 
ATOM     10  C   UNL     1       8.711  -2.964  24.158  0.00  0.00    +0.049 A 
ATOM     11  C   UNL     1       7.987  -3.926  23.497  0.00  0.00    +0.105 A 
ENDBRANCH   1   9
BRANCH   3  12
ATOM     12  C   UNL     1      10.186   3.250  23.731  0.00  0.00    +0.007 A 
ATOM     13  C   UNL     1       9.081   4.090  23.955  0.00  0.00    +0.010 A 
ATOM     14  C   UNL     1       9.213   5.479  23.921  0.00  0.00    +0.001 A 
ATOM     15  C   UNL     1      10.454   6.055  23.663  0.00  0.00    +0.000 A 
ATOM     16  C   UNL     1      11.561   5.239  23.435  0.00  0.00    +0.001 A 
ATOM     17  C   UNL     1      11.429   3.848  23.472  0.00  0.00    +0.010 A 
ENDBRANCH   3  12
TORSDOF 2
ENDMDL
