MODEL 1
REMARK VINA RESULT:      -5.5      0.000      0.000
REMARK  Name = 
REMARK  8 active torsions:
REMARK  status: ('A' for Active; 'I' for Inactive)
REMARK    1  A    between atoms: C_2  and  C_4
REMARK    2  A    between atoms: C_5  and  N_20
REMARK    3  A    between atoms: C_7  and  N_17
REMARK    4  A    between atoms: C_8  and  N_10
REMARK    5  A    between atoms: N_10  and  C_11
REMARK    6  A    between atoms: N_10  and  C_14
REMARK    7  A    between atoms: C_11  and  C_12
REMARK    8  A    between atoms: C_14  and  C_15
REMARK                            x       y       z     vdW  Elec       q    Type
REMARK                         _______ _______ _______ _____ _____    ______ ____
ROOT
ATOM      1  C   UNL     1       7.739  -0.889  23.722  0.00  0.00    +0.116 A 
ATOM      2  C   UNL     1       6.812  -1.927  23.996  0.00  0.00    +0.049 A 
ATOM      3  C   UNL     1       7.175  -3.269  24.284  0.00  0.00    +0.109 A 
ATOM      4  C   UNL     1       8.573  -3.470  24.380  0.00  0.00    +0.300 A 
ATOM      5  C   UNL     1       9.524  -2.496  24.010  0.00  0.00    +0.171 A 
ATOM      6  C   UNL     1       9.086  -1.219  23.649  0.00  0.00    +0.292 A 
ENDROOT
BRANCH   1  10
ATOM      7  N   UNL     1       6.462   0.937  22.659  0.00  0.00    -0.325 N 
ATOM      8  H   UNL     1       6.139   0.361  21.887  0.00  0.00    +0.145 HD
ATOM      9  H   UNL     1       6.096   1.881  22.713  0.00  0.00    +0.145 HD
ATOM     10  C   UNL     1       7.181   0.492  23.724  0.00  0.00    +0.248 C 
ATOM     11  O   UNL     1       7.378   1.224  24.686  0.00  0.00    -0.270 OA
ENDBRANCH   1  10
BRANCH   4  12
ATOM     12  N   UNL     1       9.131  -4.624  25.065  0.00  0.00    +0.082 N 
ATOM     13  O   UNL     1       9.366  -5.635  24.396  0.00  0.00    +0.042 OA
ATOM     14  O   UNL     1       9.291  -4.523  26.291  0.00  0.00    -0.576 OA
ENDBRANCH   4  12
BRANCH   6  15
ATOM     15  N   UNL     1      10.091  -0.264  23.249  0.00  0.00    +0.081 N 
ATOM     16  O   UNL     1      10.161   0.028  22.051  0.00  0.00    +0.041 OA
ATOM     17  O   UNL     1      10.772   0.246  24.155  0.00  0.00    -0.576 OA
ENDBRANCH   6  15
BRANCH   3  18
ATOM     18  N   UNL     1       6.190  -4.258  24.480  0.00  0.00    -0.322 N 
BRANCH  18  19
ATOM     19  C   UNL     1       5.663  -4.469  25.860  0.00  0.00    +0.121 C 
BRANCH  19  20
ATOM     20  C   UNL     1       5.930  -5.864  26.433  0.00  0.00    +0.127 C 
ATOM     21 CL   UNL     1       4.535  -6.936  26.149  0.00  0.00    -0.124 Cl
ENDBRANCH  19  20
ENDBRANCH  18  19
BRANCH  18  22
ATOM     22  C   UNL     1       5.312  -4.689  23.352  0.00  0.00    +0.121 C 
BRANCH  22  23
ATOM     23  C   UNL     1       5.726  -5.983  22.645  0.00  0.00    +0.127 C 
ATOM     24 CL   UNL     1       7.216  -5.781  21.693  0.00  0.00    -0.124 Cl
ENDBRANCH  22  23
ENDBRANCH  18  22
ENDBRANCH   3  18
TORSDOF 8
ENDMDL
MODEL 2
REMARK VINA RESULT:      -5.4      3.524      5.843
REMARK  Name = 
REMARK  8 active torsions:
REMARK  status: ('A' for Active; 'I' for Inactive)
REMARK    1  A    between atoms: C_2  and  C_4
REMARK    2  A    between atoms: C_5  and  N_20
REMARK    3  A    between atoms: C_7  and  N_17
REMARK    4  A    between atoms: C_8  and  N_10
REMARK    5  A    between atoms: N_10  and  C_11
REMARK    6  A    between atoms: N_10  and  C_14
REMARK    7  A    between atoms: C_11  and  C_12
REMARK    8  A    between atoms: C_14  and  C_15
REMARK                            x       y       z     vdW  Elec       q    Type
REMARK                         _______ _______ _______ _____ _____    ______ ____
ROOT
ATOM      1  C   UNL     1       6.182  -4.727  22.936  0.00  0.00    +0.116 A 
ATOM      2  C   UNL     1       7.193  -3.782  23.245  0.00  0.00    +0.049 A 
ATOM      3  C   UNL     1       7.737  -3.586  24.542  0.00  0.00    +0.109 A 
ATOM      4  C   UNL     1       7.251  -4.504  25.504  0.00  0.00    +0.300 A 
ATOM      5  C   UNL     1       6.173  -5.380  25.264  0.00  0.00    +0.171 A 
ATOM      6  C   UNL     1       5.627  -5.454  23.981  0.00  0.00    +0.292 A 
ENDROOT
BRANCH   1  10
ATOM      7  N   UNL     1       6.017  -6.239  20.991  0.00  0.00    -0.325 N 
ATOM      8  H   UNL     1       6.080  -7.085  21.550  0.00  0.00    +0.145 HD
ATOM      9  H   UNL     1       5.842  -6.356  19.999  0.00  0.00    +0.145 HD
ATOM     10  C   UNL     1       5.950  -4.974  21.486  0.00  0.00    +0.248 C 
ATOM     11  O   UNL     1       5.706  -4.032  20.742  0.00  0.00    -0.270 OA
ENDBRANCH   1  10
BRANCH   4  12
ATOM     12  N   UNL     1       7.965  -4.753  26.745  0.00  0.00    +0.082 N 
ATOM     13  O   UNL     1       9.199  -4.776  26.708  0.00  0.00    +0.042 OA
ATOM     14  O   UNL     1       7.274  -4.968  27.753  0.00  0.00    -0.576 OA
ENDBRANCH   4  12
BRANCH   6  15
ATOM     15  N   UNL     1       4.506  -6.342  23.789  0.00  0.00    +0.081 N 
ATOM     16  O   UNL     1       4.545  -7.445  24.344  0.00  0.00    +0.041 OA
ATOM     17  O   UNL     1       3.549  -5.902  23.128  0.00  0.00    -0.576 OA
ENDBRANCH   6  15
BRANCH   3  18
ATOM     18  N   UNL     1       8.694  -2.579  24.779  0.00  0.00    -0.322 N 
BRANCH  18  19
ATOM     19  C   UNL     1       9.823  -2.432  23.815  0.00  0.00    +0.121 C 
BRANCH  19  20
ATOM     20  C   UNL     1      10.145  -0.985  23.433  0.00  0.00    +0.127 C 
ATOM     21 CL   UNL     1       9.750  -0.685  21.721  0.00  0.00    -0.124 Cl
ENDBRANCH  19  20
ENDBRANCH  18  19
BRANCH  18  22
ATOM     22  C   UNL     1       8.344  -1.376  25.593  0.00  0.00    +0.121 C 
BRANCH  22  23
ATOM     23  C   UNL     1       6.918  -0.846  25.416  0.00  0.00    +0.127 C 
ATOM     24 CL   UNL     1       6.641  -0.197  23.783  0.00  0.00    -0.124 Cl
ENDBRANCH  22  23
ENDBRANCH  18  22
ENDBRANCH   3  18
TORSDOF 8
ENDMDL
MODEL 3
REMARK VINA RESULT:      -5.4      2.332      3.564
REMARK  Name = 
REMARK  8 active torsions:
REMARK  status: ('A' for Active; 'I' for Inactive)
REMARK    1  A    between atoms: C_2  and  C_4
REMARK    2  A    between atoms: C_5  and  N_20
REMARK    3  A    between atoms: C_7  and  N_17
REMARK    4  A    between atoms: C_8  and  N_10
REMARK    5  A    between atoms: N_10  and  C_11
REMARK    6  A    between atoms: N_10  and  C_14
REMARK    7  A    between atoms: C_11  and  C_12
REMARK    8  A    between atoms: C_14  and  C_15
REMARK                            x       y       z     vdW  Elec       q    Type
REMARK                         _______ _______ _______ _____ _____    ______ ____
ROOT
ATOM      1  C   UNL     1       9.045  -1.503  23.496  0.00  0.00    +0.116 A 
ATOM      2  C   UNL     1       8.233  -2.664  23.555  0.00  0.00    +0.049 A 
ATOM      3  C   UNL     1       7.191  -2.866  24.498  0.00  0.00    +0.109 A 
ATOM      4  C   UNL     1       6.954  -1.744  25.328  0.00  0.00    +0.300 A 
ATOM      5  C   UNL     1       7.805  -0.620  25.376  0.00  0.00    +0.171 A 
ATOM      6  C   UNL     1       8.868  -0.532  24.474  0.00  0.00    +0.292 A 
ENDROOT
BRANCH   1  10
ATOM      7  N   UNL     1       9.396  -0.708  21.185  0.00  0.00    -0.325 N 
ATOM      8  H   UNL     1       8.535  -0.168  21.161  0.00  0.00    +0.145 HD
ATOM      9  H   UNL     1      10.009  -0.631  20.382  0.00  0.00    +0.145 HD
ATOM     10  C   UNL     1       9.884  -1.362  22.273  0.00  0.00    +0.248 C 
ATOM     11  O   UNL     1      11.010  -1.842  22.252  0.00  0.00    -0.270 OA
ENDBRANCH   1  10
BRANCH   4  12
ATOM     12  N   UNL     1       5.700  -1.580  26.045  0.00  0.00    +0.082 N 
ATOM     13  O   UNL     1       5.606  -2.083  27.168  0.00  0.00    +0.042 OA
ATOM     14  O   UNL     1       4.792  -0.976  25.451  0.00  0.00    -0.576 OA
ENDBRANCH   4  12
BRANCH   6  15
ATOM     15  N   UNL     1       9.730   0.620  24.578  0.00  0.00    +0.081 N 
ATOM     16  O   UNL     1      10.861   0.451  25.045  0.00  0.00    +0.041 OA
ATOM     17  O   UNL     1       9.290   1.692  24.127  0.00  0.00    -0.576 OA
ENDBRANCH   6  15
BRANCH   3  18
ATOM     18  N   UNL     1       6.472  -4.077  24.531  0.00  0.00    -0.322 N 
BRANCH  18  19
ATOM     19  C   UNL     1       5.568  -4.397  23.389  0.00  0.00    +0.121 C 
BRANCH  19  20
ATOM     20  C   UNL     1       5.790  -5.781  22.774  0.00  0.00    +0.127 C 
ATOM     21 CL   UNL     1       7.232  -5.778  21.727  0.00  0.00    -0.124 Cl
ENDBRANCH  19  20
ENDBRANCH  18  19
BRANCH  18  22
ATOM     22  C   UNL     1       6.967  -5.231  25.341  0.00  0.00    +0.121 C 
BRANCH  22  23
ATOM     23  C   UNL     1       8.100  -4.916  26.322  0.00  0.00    +0.127 C 
ATOM     24 CL   UNL     1       9.705  -5.196  25.607  0.00  0.00    -0.124 Cl
ENDBRANCH  22  23
ENDBRANCH  18  22
ENDBRANCH   3  18
TORSDOF 8
ENDMDL
MODEL 4
REMARK VINA RESULT:      -5.4      0.467      2.474
REMARK  Name = 
REMARK  8 active torsions:
REMARK  status: ('A' for Active; 'I' for Inactive)
REMARK    1  A    between atoms: C_2  and  C_4
REMARK    2  A    between atoms: C_5  and  N_20
REMARK    3  A    between atoms: C_7  and  N_17
REMARK    4  A    between atoms: C_8  and  N_10
REMARK    5  A    between atoms: N_10  and  C_11
REMARK    6  A    between atoms: N_10  and  C_14
REMARK    7  A    between atoms: C_11  and  C_12
REMARK    8  A    between atoms: C_14  and  C_15
REMARK                            x       y       z     vdW  Elec       q    Type
REMARK                         _______ _______ _______ _____ _____    ______ ____
ROOT
ATOM      1  C   UNL     1       7.674  -1.013  23.695  0.00  0.00    +0.116 A 
ATOM      2  C   UNL     1       6.763  -2.006  24.137  0.00  0.00    +0.049 A 
ATOM      3  C   UNL     1       7.126  -3.339  24.465  0.00  0.00    +0.109 A 
ATOM      4  C   UNL     1       8.521  -3.574  24.413  0.00  0.00    +0.300 A 
ATOM      5  C   UNL     1       9.444  -2.652  23.876  0.00  0.00    +0.171 A 
ATOM      6  C   UNL     1       8.996  -1.387  23.489  0.00  0.00    +0.292 A 
ENDROOT
BRANCH   1  10
ATOM      7  N   UNL     1       6.435   0.824  22.608  0.00  0.00    -0.325 N 
ATOM      8  H   UNL     1       6.091   0.242  21.849  0.00  0.00    +0.145 HD
ATOM      9  H   UNL     1       6.093   1.778  22.647  0.00  0.00    +0.145 HD
ATOM     10  C   UNL     1       7.151   0.381  23.676  0.00  0.00    +0.248 C 
ATOM     11  O   UNL     1       7.375   1.125  24.621  0.00  0.00    -0.270 OA
ENDBRANCH   1  10
BRANCH   4  12
ATOM     12  N   UNL     1       9.129  -4.702  25.099  0.00  0.00    +0.082 N 
ATOM     13  O   UNL     1       9.379  -4.580  26.302  0.00  0.00    +0.042 OA
ATOM     14  O   UNL     1       9.392  -5.700  24.410  0.00  0.00    -0.576 OA
ENDBRANCH   4  12
BRANCH   6  15
ATOM     15  N   UNL     1       9.968  -0.487  22.918  0.00  0.00    +0.081 N 
ATOM     16  O   UNL     1      10.762   0.065  23.687  0.00  0.00    +0.041 OA
ATOM     17  O   UNL     1       9.977  -0.384  21.679  0.00  0.00    -0.576 OA
ENDBRANCH   6  15
BRANCH   3  18
ATOM     18  N   UNL     1       6.149  -4.284  24.834  0.00  0.00    -0.322 N 
BRANCH  18  19
ATOM     19  C   UNL     1       5.950  -5.477  23.960  0.00  0.00    +0.121 C 
BRANCH  19  20
ATOM     20  C   UNL     1       5.784  -5.153  22.474  0.00  0.00    +0.127 C 
ATOM     21 CL   UNL     1       7.194  -5.725  21.546  0.00  0.00    -0.124 Cl
ENDBRANCH  19  20
ENDBRANCH  18  19
BRANCH  18  22
ATOM     22  C   UNL     1       5.720  -4.416  26.259  0.00  0.00    +0.121 C 
BRANCH  22  23
ATOM     23  C   UNL     1       6.148  -5.706  26.965  0.00  0.00    +0.127 C 
ATOM     24 CL   UNL     1       4.820  -6.884  27.076  0.00  0.00    -0.124 Cl
ENDBRANCH  22  23
ENDBRANCH  18  22
ENDBRANCH   3  18
TORSDOF 8
ENDMDL
MODEL 5
REMARK VINA RESULT:      -5.3      2.266      3.111
REMARK  Name = 
REMARK  8 active torsions:
REMARK  status: ('A' for Active; 'I' for Inactive)
REMARK    1  A    between atoms: C_2  and  C_4
REMARK    2  A    between atoms: C_5  and  N_20
REMARK    3  A    between atoms: C_7  and  N_17
REMARK    4  A    between atoms: C_8  and  N_10
REMARK    5  A    between atoms: N_10  and  C_11
REMARK    6  A    between atoms: N_10  and  C_14
REMARK    7  A    between atoms: C_11  and  C_12
REMARK    8  A    between atoms: C_14  and  C_15
REMARK                            x       y       z     vdW  Elec       q    Type
REMARK                         _______ _______ _______ _____ _____    ______ ____
ROOT
ATOM      1  C   UNL     1       9.054  -1.493  23.477  0.00  0.00    +0.116 A 
ATOM      2  C   UNL     1       8.333  -2.712  23.556  0.00  0.00    +0.049 A 
ATOM      3  C   UNL     1       7.295  -2.969  24.489  0.00  0.00    +0.109 A 
ATOM      4  C   UNL     1       6.959  -1.848  25.286  0.00  0.00    +0.300 A 
ATOM      5  C   UNL     1       7.721  -0.662  25.315  0.00  0.00    +0.171 A 
ATOM      6  C   UNL     1       8.788  -0.515  24.426  0.00  0.00    +0.292 A 
ENDROOT
BRANCH   1  10
ATOM      7  N   UNL     1       9.425  -0.615  21.200  0.00  0.00    -0.325 N 
ATOM      8  H   UNL     1       8.574  -0.060  21.196  0.00  0.00    +0.145 HD
ATOM      9  H   UNL     1      10.041  -0.518  20.401  0.00  0.00    +0.145 HD
ATOM     10  C   UNL     1       9.898  -1.320  22.262  0.00  0.00    +0.248 C 
ATOM     11  O   UNL     1      11.016  -1.819  22.224  0.00  0.00    -0.270 OA
ENDBRANCH   1  10
BRANCH   4  12
ATOM     12  N   UNL     1       5.685  -1.763  25.981  0.00  0.00    +0.082 N 
ATOM     13  O   UNL     1       5.678  -1.959  27.200  0.00  0.00    +0.042 OA
ATOM     14  O   UNL     1       4.683  -1.538  25.285  0.00  0.00    -0.576 OA
ENDBRANCH   4  12
BRANCH   6  15
ATOM     15  N   UNL     1       9.557   0.703  24.511  0.00  0.00    +0.081 N 
ATOM     16  O   UNL     1      10.691   0.634  24.999  0.00  0.00    +0.041 OA
ATOM     17  O   UNL     1       9.044   1.725  24.024  0.00  0.00    -0.576 OA
ENDBRANCH   6  15
BRANCH   3  18
ATOM     18  N   UNL     1       6.670  -4.231  24.546  0.00  0.00    -0.322 N 
BRANCH  18  19
ATOM     19  C   UNL     1       6.750  -5.006  25.818  0.00  0.00    +0.121 C 
BRANCH  19  20
ATOM     20  C   UNL     1       8.152  -5.077  26.429  0.00  0.00    +0.127 C 
ATOM     21 CL   UNL     1       9.326  -5.687  25.235  0.00  0.00    -0.124 Cl
ENDBRANCH  19  20
ENDBRANCH  18  19
BRANCH  18  22
ATOM     22  C   UNL     1       5.537  -4.559  23.629  0.00  0.00    +0.121 C 
BRANCH  22  23
ATOM     23  C   UNL     1       5.697  -5.842  22.808  0.00  0.00    +0.127 C 
ATOM     24 CL   UNL     1       7.295  -5.950  22.034  0.00  0.00    -0.124 Cl
ENDBRANCH  22  23
ENDBRANCH  18  22
ENDBRANCH   3  18
TORSDOF 8
ENDMDL
MODEL 6
REMARK VINA RESULT:      -5.3      2.854      5.851
REMARK  Name = 
REMARK  8 active torsions:
REMARK  status: ('A' for Active; 'I' for Inactive)
REMARK    1  A    between atoms: C_2  and  C_4
REMARK    2  A    between atoms: C_5  and  N_20
REMARK    3  A    between atoms: C_7  and  N_17
REMARK    4  A    between atoms: C_8  and  N_10
REMARK    5  A    between atoms: N_10  and  C_11
REMARK    6  A    between atoms: N_10  and  C_14
REMARK    7  A    between atoms: C_11  and  C_12
REMARK    8  A    between atoms: C_14  and  C_15
REMARK                            x       y       z     vdW  Elec       q    Type
REMARK                         _______ _______ _______ _____ _____    ______ ____
ROOT
ATOM      1  C   UNL     1       4.848  -5.454  26.605  0.00  0.00    +0.116 A 
ATOM      2  C   UNL     1       4.903  -4.687  25.413  0.00  0.00    +0.049 A 
ATOM      3  C   UNL     1       6.100  -4.183  24.839  0.00  0.00    +0.109 A 
ATOM      4  C   UNL     1       7.272  -4.606  25.512  0.00  0.00    +0.300 A 
ATOM      5  C   UNL     1       7.255  -5.273  26.754  0.00  0.00    +0.171 A 
ATOM      6  C   UNL     1       6.030  -5.659  27.304  0.00  0.00    +0.292 A 
ENDROOT
BRANCH   1  10
ATOM      7  N   UNL     1       3.384  -7.442  26.614  0.00  0.00    -0.325 N 
ATOM      8  H   UNL     1       4.129  -8.083  26.352  0.00  0.00    +0.145 HD
ATOM      9  H   UNL     1       2.482  -7.850  26.831  0.00  0.00    +0.145 HD
ATOM     10  C   UNL     1       3.546  -6.119  26.885  0.00  0.00    +0.248 C 
ATOM     11  O   UNL     1       2.621  -5.468  27.355  0.00  0.00    -0.270 OA
ENDBRANCH   1  10
BRANCH   4  12
ATOM     12  N   UNL     1       8.575  -4.566  24.868  0.00  0.00    +0.082 N 
ATOM     13  O   UNL     1       8.830  -5.431  24.026  0.00  0.00    +0.042 OA
ATOM     14  O   UNL     1       9.357  -3.681  25.247  0.00  0.00    -0.576 OA
ENDBRANCH   4  12
BRANCH   6  15
ATOM     15  N   UNL     1       6.059  -6.312  28.590  0.00  0.00    +0.081 N 
ATOM     16  O   UNL     1       5.932  -7.541  28.614  0.00  0.00    +0.041 OA
ATOM     17  O   UNL     1       6.277  -5.592  29.580  0.00  0.00    -0.576 OA
ENDBRANCH   6  15
BRANCH   3  18
ATOM     18  N   UNL     1       6.063  -3.373  23.687  0.00  0.00    -0.322 N 
BRANCH  18  19
ATOM     19  C   UNL     1       5.425  -3.920  22.455  0.00  0.00    +0.121 C 
BRANCH  19  20
ATOM     20  C   UNL     1       6.363  -4.740  21.566  0.00  0.00    +0.127 C 
ATOM     21 CL   UNL     1       6.370  -6.449  22.069  0.00  0.00    -0.124 Cl
ENDBRANCH  19  20
ENDBRANCH  18  19
BRANCH  18  22
ATOM     22  C   UNL     1       6.136  -1.885  23.803  0.00  0.00    +0.121 C 
BRANCH  22  23
ATOM     23  C   UNL     1       7.537  -1.277  23.687  0.00  0.00    +0.127 C 
ATOM     24 CL   UNL     1       8.469  -1.990  22.349  0.00  0.00    -0.124 Cl
ENDBRANCH  22  23
ENDBRANCH  18  22
ENDBRANCH   3  18
TORSDOF 8
ENDMDL
MODEL 7
REMARK VINA RESULT:      -5.2      2.930      4.479
REMARK  Name = 
REMARK  8 active torsions:
REMARK  status: ('A' for Active; 'I' for Inactive)
REMARK    1  A    between atoms: C_2  and  C_4
REMARK    2  A    between atoms: C_5  and  N_20
REMARK    3  A    between atoms: C_7  and  N_17
REMARK    4  A    between atoms: C_8  and  N_10
REMARK    5  A    between atoms: N_10  and  C_11
REMARK    6  A    between atoms: N_10  and  C_14
REMARK    7  A    between atoms: C_11  and  C_12
REMARK    8  A    between atoms: C_14  and  C_15
REMARK                            x       y       z     vdW  Elec       q    Type
REMARK                         _______ _______ _______ _____ _____    ______ ____
ROOT
ATOM      1  C   UNL     1       7.595  -4.531  25.313  0.00  0.00    +0.116 A 
ATOM      2  C   UNL     1       6.348  -5.171  25.100  0.00  0.00    +0.049 A 
ATOM      3  C   UNL     1       5.630  -5.141  23.876  0.00  0.00    +0.109 A 
ATOM      4  C   UNL     1       6.325  -4.490  22.828  0.00  0.00    +0.300 A 
ATOM      5  C   UNL     1       7.508  -3.749  23.026  0.00  0.00    +0.171 A 
ATOM      6  C   UNL     1       8.112  -3.752  24.285  0.00  0.00    +0.292 A 
ENDROOT
BRANCH   1  10
ATOM      7  N   UNL     1       9.649  -5.161  26.528  0.00  0.00    -0.325 N 
ATOM      8  H   UNL     1      10.261  -4.979  25.737  0.00  0.00    +0.145 HD
ATOM      9  H   UNL     1      10.093  -5.408  27.405  0.00  0.00    +0.145 HD
ATOM     10  C   UNL     1       8.313  -4.912  26.560  0.00  0.00    +0.248 C 
ATOM     11  O   UNL     1       7.693  -5.006  27.612  0.00  0.00    -0.270 OA
ENDBRANCH   1  10
BRANCH   4  12
ATOM     12  N   UNL     1       5.978  -4.710  21.434  0.00  0.00    +0.082 N 
ATOM     13  O   UNL     1       5.588  -3.742  20.775  0.00  0.00    +0.042 OA
ATOM     14  O   UNL     1       6.061  -5.875  21.015  0.00  0.00    -0.576 OA
ENDBRANCH   4  12
BRANCH   6  15
ATOM     15  N   UNL     1       9.305  -2.957  24.449  0.00  0.00    +0.081 N 
ATOM     16  O   UNL     1       9.193  -1.862  25.010  0.00  0.00    +0.041 OA
ATOM     17  O   UNL     1      10.374  -3.466  24.070  0.00  0.00    -0.576 OA
ENDBRANCH   6  15
BRANCH   3  18
ATOM     18  N   UNL     1       4.364  -5.750  23.765  0.00  0.00    -0.322 N 
BRANCH  18  19
ATOM     19  C   UNL     1       4.193  -7.133  24.297  0.00  0.00    +0.121 C 
BRANCH  19  20
ATOM     20  C   UNL     1       2.756  -7.658  24.248  0.00  0.00    +0.127 C 
ATOM     21 CL   UNL     1       2.081  -7.793  25.892  0.00  0.00    -0.124 Cl
ENDBRANCH  19  20
ENDBRANCH  18  19
BRANCH  18  22
ATOM     22  C   UNL     1       3.129  -4.917  23.649  0.00  0.00    +0.121 C 
BRANCH  22  23
ATOM     23  C   UNL     1       2.983  -3.797  24.683  0.00  0.00    +0.127 C 
ATOM     24 CL   UNL     1       2.960  -4.420  26.350  0.00  0.00    -0.124 Cl
ENDBRANCH  22  23
ENDBRANCH  18  22
ENDBRANCH   3  18
TORSDOF 8
ENDMDL
MODEL 8
REMARK VINA RESULT:      -5.2      3.343      6.255
REMARK  Name = 
REMARK  8 active torsions:
REMARK  status: ('A' for Active; 'I' for Inactive)
REMARK    1  A    between atoms: C_2  and  C_4
REMARK    2  A    between atoms: C_5  and  N_20
REMARK    3  A    between atoms: C_7  and  N_17
REMARK    4  A    between atoms: C_8  and  N_10
REMARK    5  A    between atoms: N_10  and  C_11
REMARK    6  A    between atoms: N_10  and  C_14
REMARK    7  A    between atoms: C_11  and  C_12
REMARK    8  A    between atoms: C_14  and  C_15
REMARK                            x       y       z     vdW  Elec       q    Type
REMARK                         _______ _______ _______ _____ _____    ______ ____
ROOT
ATOM      1  C   UNL     1       5.715  -4.426  22.404  0.00  0.00    +0.116 A 
ATOM      2  C   UNL     1       6.628  -3.342  22.439  0.00  0.00    +0.049 A 
ATOM      3  C   UNL     1       6.634  -2.331  23.436  0.00  0.00    +0.109 A 
ATOM      4  C   UNL     1       5.699  -2.556  24.476  0.00  0.00    +0.300 A 
ATOM      5  C   UNL     1       4.706  -3.555  24.422  0.00  0.00    +0.171 A 
ATOM      6  C   UNL     1       4.707  -4.462  23.360  0.00  0.00    +0.292 A 
ENDROOT
BRANCH   1  10
ATOM      7  N   UNL     1       6.474  -6.725  21.917  0.00  0.00    -0.325 N 
ATOM      8  H   UNL     1       6.464  -7.013  22.892  0.00  0.00    +0.145 HD
ATOM      9  H   UNL     1       6.679  -7.439  21.229  0.00  0.00    +0.145 HD
ATOM     10  C   UNL     1       6.047  -5.521  21.451  0.00  0.00    +0.248 C 
ATOM     11  O   UNL     1       5.940  -5.328  20.246  0.00  0.00    -0.270 OA
ENDBRANCH   1  10
BRANCH   4  12
ATOM     12  N   UNL     1       5.828  -1.903  25.768  0.00  0.00    +0.082 N 
ATOM     13  O   UNL     1       6.499  -2.468  26.637  0.00  0.00    +0.042 OA
ATOM     14  O   UNL     1       5.213  -0.836  25.919  0.00  0.00    -0.576 OA
ENDBRANCH   4  12
BRANCH   6  15
ATOM     15  N   UNL     1       3.655  -5.448  23.330  0.00  0.00    +0.081 N 
ATOM     16  O   UNL     1       2.572  -5.119  22.835  0.00  0.00    +0.041 OA
ATOM     17  O   UNL     1       3.939  -6.583  23.750  0.00  0.00    -0.576 OA
ENDBRANCH   6  15
BRANCH   3  18
ATOM     18  N   UNL     1       7.534  -1.250  23.363  0.00  0.00    -0.322 N 
BRANCH  18  19
ATOM     19  C   UNL     1       7.010   0.082  22.941  0.00  0.00    +0.121 C 
BRANCH  19  20
ATOM     20  C   UNL     1       8.091   1.127  22.658  0.00  0.00    +0.127 C 
ATOM     21 CL   UNL     1       9.094   0.632  21.269  0.00  0.00    -0.124 Cl
ENDBRANCH  19  20
ENDBRANCH  18  19
BRANCH  18  22
ATOM     22  C   UNL     1       8.792  -1.252  24.170  0.00  0.00    +0.121 C 
BRANCH  22  23
ATOM     23  C   UNL     1       9.820  -2.322  23.792  0.00  0.00    +0.127 C 
ATOM     24 CL   UNL     1       9.569  -3.841  24.684  0.00  0.00    -0.124 Cl
ENDBRANCH  22  23
ENDBRANCH  18  22
ENDBRANCH   3  18
TORSDOF 8
ENDMDL
MODEL 9
REMARK VINA RESULT:      -5.1      3.172      6.026
REMARK  Name = 
REMARK  8 active torsions:
REMARK  status: ('A' for Active; 'I' for Inactive)
REMARK    1  A    between atoms: C_2  and  C_4
REMARK    2  A    between atoms: C_5  and  N_20
REMARK    3  A    between atoms: C_7  and  N_17
REMARK    4  A    between atoms: C_8  and  N_10
REMARK    5  A    between atoms: N_10  and  C_11
REMARK    6  A    between atoms: N_10  and  C_14
REMARK    7  A    between atoms: C_11  and  C_12
REMARK    8  A    between atoms: C_14  and  C_15
REMARK                            x       y       z     vdW  Elec       q    Type
REMARK                         _______ _______ _______ _____ _____    ______ ____
ROOT
ATOM      1  C   UNL     1       6.503  -2.830  23.375  0.00  0.00    +0.116 A 
ATOM      2  C   UNL     1       6.437  -1.416  23.283  0.00  0.00    +0.049 A 
ATOM      3  C   UNL     1       7.474  -0.537  23.694  0.00  0.00    +0.109 A 
ATOM      4  C   UNL     1       8.648  -1.206  24.117  0.00  0.00    +0.300 A 
ATOM      5  C   UNL     1       8.715  -2.599  24.326  0.00  0.00    +0.171 A 
ATOM      6  C   UNL     1       7.619  -3.393  23.982  0.00  0.00    +0.292 A 
ENDROOT
BRANCH   1  10
ATOM      7  N   UNL     1       4.395  -4.113  23.317  0.00  0.00    -0.325 N 
ATOM      8  H   UNL     1       4.177  -3.941  24.295  0.00  0.00    +0.145 HD
ATOM      9  H   UNL     1       3.696  -4.602  22.770  0.00  0.00    +0.145 HD
ATOM     10  C   UNL     1       5.444  -3.575  22.640  0.00  0.00    +0.248 C 
ATOM     11  O   UNL     1       5.527  -3.705  21.425  0.00  0.00    -0.270 OA
ENDBRANCH   1  10
BRANCH   4  12
ATOM     12  N   UNL     1       9.933  -0.528  24.168  0.00  0.00    +0.082 N 
ATOM     13  O   UNL     1      10.267  -0.004  25.235  0.00  0.00    +0.042 OA
ATOM     14  O   UNL     1      10.587  -0.488  23.115  0.00  0.00    -0.576 OA
ENDBRANCH   4  12
BRANCH   6  15
ATOM     15  N   UNL     1       7.720  -4.809  24.241  0.00  0.00    +0.081 N 
ATOM     16  O   UNL     1       8.363  -5.495  23.439  0.00  0.00    +0.041 OA
ATOM     17  O   UNL     1       7.204  -5.224  25.292  0.00  0.00    -0.576 OA
ENDBRANCH   6  15
BRANCH   3  18
ATOM     18  N   UNL     1       7.305   0.860  23.629  0.00  0.00    -0.322 N 
BRANCH  18  19
ATOM     19  C   UNL     1       7.364   1.521  22.293  0.00  0.00    +0.121 C 
BRANCH  19  20
ATOM     20  C   UNL     1       8.025   2.902  22.298  0.00  0.00    +0.127 C 
ATOM     21 CL   UNL     1       9.606   2.837  23.118  0.00  0.00    -0.124 Cl
ENDBRANCH  19  20
ENDBRANCH  18  19
BRANCH  18  22
ATOM     22  C   UNL     1       6.566   1.585  24.706  0.00  0.00    +0.121 C 
BRANCH  22  23
ATOM     23  C   UNL     1       7.368   1.886  25.975  0.00  0.00    +0.127 C 
ATOM     24 CL   UNL     1       7.349   0.525  27.121  0.00  0.00    -0.124 Cl
ENDBRANCH  22  23
ENDBRANCH  18  22
ENDBRANCH   3  18
TORSDOF 8
ENDMDL
