MODEL 1
REMARK VINA RESULT:      -6.4      0.000      0.000
REMARK  Name = 
REMARK  11 active torsions:
REMARK  status: ('A' for Active; 'I' for Inactive)
REMARK    1  A    between atoms: C_1  and  C_2
REMARK    2  A    between atoms: N_4  and  C_5
REMARK    3  A    between atoms: C_8  and  N_10
REMARK    4  A    between atoms: C_13  and  C_15
REMARK    5  A    between atoms: C_15  and  O_16
REMARK    6  A    between atoms: O_16  and  P_17
REMARK    7  A    between atoms: P_17  and  O_18
REMARK    8  A    between atoms: P_17  and  O_20
REMARK    9  A    between atoms: O_20  and  P_21
REMARK   10  A    between atoms: P_21  and  O_22
REMARK   11  A    between atoms: P_21  and  O_23
REMARK                            x       y       z     vdW  Elec       q    Type
REMARK                         _______ _______ _______ _____ _____    ______ ____
ROOT
ATOM      1  C   UNL     1       8.465   0.177  23.037  0.00  0.00    +0.226 C 
ATOM      2  O   UNL     1       7.071  -0.237  22.896  0.00  0.00    -0.349 OA
ATOM      3  C   UNL     1       6.915  -1.574  23.478  0.00  0.00    +0.178 C 
ATOM      4  C   UNL     1       8.335  -2.071  23.768  0.00  0.00    +0.226 C 
ATOM      5  C   UNL     1       9.090  -0.783  24.036  0.00  0.00    +0.091 C 
ENDROOT
BRANCH   1  14
ATOM      6  C   UNL     1       7.689   4.053  26.142  0.00  0.00    +0.051 C 
ATOM      7  C   UNL     1       8.305   3.398  24.948  0.00  0.00    +0.030 A 
ATOM      8  C   UNL     1       9.306   4.197  24.205  0.00  0.00    +0.257 A 
ATOM      9  O   UNL     1       9.622   5.335  24.545  0.00  0.00    -0.267 OA
ATOM     10  N   UNL     1       9.869   3.583  23.128  0.00  0.00    -0.275 N 
ATOM     11  H   UNL     1      10.582   4.095  22.632  0.00  0.00    +0.173 HD
ATOM     12  C   UNL     1       9.640   2.290  22.718  0.00  0.00    +0.331 A 
ATOM     13  O   UNL     1      10.295   1.817  21.798  0.00  0.00    -0.246 OA
ATOM     14  N   UNL     1       8.658   1.585  23.421  0.00  0.00    -0.274 N 
ATOM     15  C   UNL     1       8.037   2.150  24.520  0.00  0.00    +0.101 A 
ENDBRANCH   1  14
BRANCH   4  16
ATOM     16  N   UNL     1       8.356  -2.921  24.960  0.00  0.00    +0.082 NA
ATOM     17  N   UNL     1       9.058  -3.946  24.889  0.00  0.00    -0.014 NA
ATOM     18  N   UNL     1       9.709  -4.878  24.821  0.00  0.00    -0.328 NA
ENDBRANCH   4  16
BRANCH   3  19
ATOM     19  C   UNL     1       6.052  -2.560  22.607  0.00  0.00    +0.206 C 
BRANCH  19  20
ATOM     20  O   UNL     1       5.108  -3.322  23.384  0.00  0.00    -0.284 OA
BRANCH  20  21
ATOM     21  P   UNL     1       4.936  -4.979  23.256  0.00  0.00    +0.483 P 
ATOM     22  O   UNL     1       3.501  -5.234  22.792  0.00  0.00    -0.227 OA
BRANCH  21  23
ATOM     23  O   UNL     1       5.418  -4.870  21.599  0.00  0.00    -0.302 OA
ATOM     24  H   UNL     1       5.663  -3.929  21.476  0.00  0.00    +0.222 HD
ENDBRANCH  21  23
BRANCH  21  25
ATOM     25  O   UNL     1       4.452  -5.089  24.914  0.00  0.00    -0.186 OA
BRANCH  25  26
ATOM     26  P   UNL     1       5.806  -5.569  25.879  0.00  0.00    +0.481 P 
ATOM     27  O   UNL     1       7.017  -6.000  26.742  0.00  0.00    -0.227 OA
BRANCH  26  28
ATOM     28  O   UNL     1       5.995  -3.966  26.161  0.00  0.00    -0.302 OA
ATOM     29  H   UNL     1       6.894  -3.618  25.960  0.00  0.00    +0.222 HD
ENDBRANCH  26  28
BRANCH  26  30
ATOM     30  O   UNL     1       6.613  -5.542  24.450  0.00  0.00    -0.302 OA
ATOM     31  H   UNL     1       6.757  -4.660  24.081  0.00  0.00    +0.222 HD
ENDBRANCH  26  30
ENDBRANCH  25  26
ENDBRANCH  21  25
ENDBRANCH  20  21
ENDBRANCH  19  20
ENDBRANCH   3  19
TORSDOF 10
ENDMDL
MODEL 2
REMARK VINA RESULT:      -6.4      4.056      7.806
REMARK  Name = 
REMARK  11 active torsions:
REMARK  status: ('A' for Active; 'I' for Inactive)
REMARK    1  A    between atoms: C_1  and  C_2
REMARK    2  A    between atoms: N_4  and  C_5
REMARK    3  A    between atoms: C_8  and  N_10
REMARK    4  A    between atoms: C_13  and  C_15
REMARK    5  A    between atoms: C_15  and  O_16
REMARK    6  A    between atoms: O_16  and  P_17
REMARK    7  A    between atoms: P_17  and  O_18
REMARK    8  A    between atoms: P_17  and  O_20
REMARK    9  A    between atoms: O_20  and  P_21
REMARK   10  A    between atoms: P_21  and  O_22
REMARK   11  A    between atoms: P_21  and  O_23
REMARK                            x       y       z     vdW  Elec       q    Type
REMARK                         _______ _______ _______ _____ _____    ______ ____
ROOT
ATOM      1  C   UNL     1       8.755  -2.664  24.380  0.00  0.00    +0.226 C 
ATOM      2  O   UNL     1       9.611  -1.573  24.841  0.00  0.00    -0.349 OA
ATOM      3  C   UNL     1       9.225  -0.344  24.142  0.00  0.00    +0.178 C 
ATOM      4  C   UNL     1       8.249  -0.777  23.043  0.00  0.00    +0.226 C 
ATOM      5  C   UNL     1       7.598  -2.008  23.644  0.00  0.00    +0.091 C 
ENDROOT
BRANCH   1  14
ATOM      6  C   UNL     1       5.368  -4.119  27.797  0.00  0.00    +0.051 C 
ATOM      7  C   UNL     1       6.637  -4.271  27.023  0.00  0.00    +0.030 A 
ATOM      8  C   UNL     1       7.389  -5.529  27.237  0.00  0.00    +0.257 A 
ATOM      9  O   UNL     1       6.999  -6.405  28.004  0.00  0.00    -0.267 OA
ATOM     10  N   UNL     1       8.537  -5.659  26.515  0.00  0.00    -0.275 N 
ATOM     11  H   UNL     1       9.044  -6.526  26.616  0.00  0.00    +0.173 HD
ATOM     12  C   UNL     1       9.012  -4.772  25.578  0.00  0.00    +0.331 A 
ATOM     13  O   UNL     1      10.000  -5.060  24.913  0.00  0.00    -0.246 OA
ATOM     14  N   UNL     1       8.295  -3.581  25.436  0.00  0.00    -0.274 N 
ATOM     15  C   UNL     1       7.126  -3.375  26.146  0.00  0.00    +0.101 A 
ENDBRANCH   1  14
BRANCH   4  16
ATOM     16  N   UNL     1       7.239   0.258  22.806  0.00  0.00    +0.082 NA
ATOM     17  N   UNL     1       6.520   0.552  23.779  0.00  0.00    -0.014 NA
ATOM     18  N   UNL     1       5.871   0.824  24.673  0.00  0.00    -0.328 NA
ENDBRANCH   4  16
BRANCH   3  19
ATOM     19  C   UNL     1      10.440   0.512  23.624  0.00  0.00    +0.206 C 
BRANCH  19  20
ATOM     20  O   UNL     1      10.448   1.855  24.145  0.00  0.00    -0.284 OA
BRANCH  20  21
ATOM     21  P   UNL     1       9.950   3.186  23.267  0.00  0.00    +0.483 P 
ATOM     22  O   UNL     1      11.186   4.065  23.068  0.00  0.00    -0.227 OA
BRANCH  21  23
ATOM     23  O   UNL     1      10.358   2.341  21.814  0.00  0.00    -0.302 OA
ATOM     24  H   UNL     1      10.077   2.943  21.093  0.00  0.00    +0.222 HD
ENDBRANCH  21  23
BRANCH  21  25
ATOM     25  O   UNL     1       9.543   4.033  24.720  0.00  0.00    -0.186 OA
BRANCH  25  26
ATOM     26  P   UNL     1       7.829   3.990  24.952  0.00  0.00    +0.481 P 
ATOM     27  O   UNL     1       6.295   3.951  25.159  0.00  0.00    -0.227 OA
BRANCH  26  28
ATOM     28  O   UNL     1       8.119   2.614  25.795  0.00  0.00    -0.302 OA
ATOM     29  H   UNL     1       7.368   2.310  26.354  0.00  0.00    +0.222 HD
ENDBRANCH  26  28
BRANCH  26  30
ATOM     30  O   UNL     1       7.824   3.243  23.490  0.00  0.00    -0.302 OA
ATOM     31  H   UNL     1       8.700   3.072  23.118  0.00  0.00    +0.222 HD
ENDBRANCH  26  30
ENDBRANCH  25  26
ENDBRANCH  21  25
ENDBRANCH  20  21
ENDBRANCH  19  20
ENDBRANCH   3  19
TORSDOF 10
ENDMDL
MODEL 3
REMARK VINA RESULT:      -6.4      4.175      8.032
REMARK  Name = 
REMARK  11 active torsions:
REMARK  status: ('A' for Active; 'I' for Inactive)
REMARK    1  A    between atoms: C_1  and  C_2
REMARK    2  A    between atoms: N_4  and  C_5
REMARK    3  A    between atoms: C_8  and  N_10
REMARK    4  A    between atoms: C_13  and  C_15
REMARK    5  A    between atoms: C_15  and  O_16
REMARK    6  A    between atoms: O_16  and  P_17
REMARK    7  A    between atoms: P_17  and  O_18
REMARK    8  A    between atoms: P_17  and  O_20
REMARK    9  A    between atoms: O_20  and  P_21
REMARK   10  A    between atoms: P_21  and  O_22
REMARK   11  A    between atoms: P_21  and  O_23
REMARK                            x       y       z     vdW  Elec       q    Type
REMARK                         _______ _______ _______ _____ _____    ______ ____
ROOT
ATOM      1  C   UNL     1       6.964  -4.214  24.897  0.00  0.00    +0.226 C 
ATOM      2  O   UNL     1       6.682  -2.780  24.891  0.00  0.00    -0.349 OA
ATOM      3  C   UNL     1       6.381  -2.366  23.517  0.00  0.00    +0.178 C 
ATOM      4  C   UNL     1       6.731  -3.566  22.632  0.00  0.00    +0.226 C 
ATOM      5  C   UNL     1       6.482  -4.743  23.555  0.00  0.00    +0.091 C 
ENDROOT
BRANCH   1  14
ATOM      6  C   UNL     1       3.211  -6.791  27.029  0.00  0.00    +0.051 C 
ATOM      7  C   UNL     1       4.592  -6.219  26.996  0.00  0.00    +0.030 A 
ATOM      8  C   UNL     1       5.476  -6.577  28.128  0.00  0.00    +0.257 A 
ATOM      9  O   UNL     1       5.107  -7.304  29.047  0.00  0.00    -0.267 OA
ATOM     10  N   UNL     1       6.736  -6.060  28.078  0.00  0.00    -0.275 N 
ATOM     11  H   UNL     1       7.367  -6.323  28.819  0.00  0.00    +0.173 HD
ATOM     12  C   UNL     1       7.264  -5.305  27.058  0.00  0.00    +0.331 A 
ATOM     13  O   UNL     1       8.448  -4.994  27.079  0.00  0.00    -0.246 OA
ATOM     14  N   UNL     1       6.384  -4.956  26.029  0.00  0.00    -0.274 N 
ATOM     15  C   UNL     1       5.087  -5.436  26.020  0.00  0.00    +0.101 A 
ENDBRANCH   1  14
BRANCH   4  16
ATOM     16  N   UNL     1       5.835  -3.639  21.476  0.00  0.00    +0.082 NA
ATOM     17  N   UNL     1       5.881  -4.692  20.815  0.00  0.00    -0.014 NA
ATOM     18  N   UNL     1       5.920  -5.661  20.219  0.00  0.00    -0.328 NA
ENDBRANCH   4  16
BRANCH   3  19
ATOM     19  C   UNL     1       7.075  -1.021  23.083  0.00  0.00    +0.206 C 
BRANCH  19  20
ATOM     20  O   UNL     1       8.142  -1.216  22.136  0.00  0.00    -0.284 OA
BRANCH  20  21
ATOM     21  P   UNL     1       9.453  -0.188  22.001  0.00  0.00    +0.483 P 
ATOM     22  O   UNL     1      10.140  -0.176  23.367  0.00  0.00    -0.227 OA
BRANCH  21  23
ATOM     23  O   UNL     1      10.431  -1.545  21.558  0.00  0.00    -0.302 OA
ATOM     24  H   UNL     1      10.582  -2.023  22.400  0.00  0.00    +0.222 HD
ENDBRANCH  21  23
BRANCH  21  25
ATOM     25  O   UNL     1       8.476   1.169  22.445  0.00  0.00    -0.186 OA
BRANCH  25  26
ATOM     26  P   UNL     1       9.492   2.449  23.014  0.00  0.00    +0.481 P 
ATOM     27  O   UNL     1      10.402   3.594  23.523  0.00  0.00    -0.227 OA
BRANCH  26  28
ATOM     28  O   UNL     1       8.382   3.444  22.332  0.00  0.00    -0.302 OA
ATOM     29  H   UNL     1       8.205   3.269  21.380  0.00  0.00    +0.222 HD
ENDBRANCH  26  28
BRANCH  26  30
ATOM     30  O   UNL     1      10.307   2.192  21.613  0.00  0.00    -0.302 OA
ATOM     31  H   UNL     1      10.997   2.841  21.419  0.00  0.00    +0.222 HD
ENDBRANCH  26  30
ENDBRANCH  25  26
ENDBRANCH  21  25
ENDBRANCH  20  21
ENDBRANCH  19  20
ENDBRANCH   3  19
TORSDOF 10
ENDMDL
MODEL 4
REMARK VINA RESULT:      -6.3      2.829      3.959
REMARK  Name = 
REMARK  11 active torsions:
REMARK  status: ('A' for Active; 'I' for Inactive)
REMARK    1  A    between atoms: C_1  and  C_2
REMARK    2  A    between atoms: N_4  and  C_5
REMARK    3  A    between atoms: C_8  and  N_10
REMARK    4  A    between atoms: C_13  and  C_15
REMARK    5  A    between atoms: C_15  and  O_16
REMARK    6  A    between atoms: O_16  and  P_17
REMARK    7  A    between atoms: P_17  and  O_18
REMARK    8  A    between atoms: P_17  and  O_20
REMARK    9  A    between atoms: O_20  and  P_21
REMARK   10  A    between atoms: P_21  and  O_22
REMARK   11  A    between atoms: P_21  and  O_23
REMARK                            x       y       z     vdW  Elec       q    Type
REMARK                         _______ _______ _______ _____ _____    ______ ____
ROOT
ATOM      1  C   UNL     1       7.280  -1.881  24.802  0.00  0.00    +0.226 C 
ATOM      2  O   UNL     1       7.747  -3.256  24.968  0.00  0.00    -0.349 OA
ATOM      3  C   UNL     1       6.801  -4.158  24.304  0.00  0.00    +0.178 C 
ATOM      4  C   UNL     1       5.593  -3.293  23.928  0.00  0.00    +0.226 C 
ATOM      5  C   UNL     1       6.216  -1.927  23.718  0.00  0.00    +0.091 C 
ENDROOT
BRANCH   1  14
ATOM      6  C   UNL     1       9.581   1.326  21.690  0.00  0.00    +0.051 C 
ATOM      7  C   UNL     1       9.380   0.655  23.010  0.00  0.00    +0.030 A 
ATOM      8  C   UNL     1      10.212   1.151  24.131  0.00  0.00    +0.257 A 
ATOM      9  O   UNL     1      11.023   2.063  23.994  0.00  0.00    -0.267 OA
ATOM     10  N   UNL     1      10.008   0.540  25.331  0.00  0.00    -0.275 N 
ATOM     11  H   UNL     1      10.536   0.889  26.116  0.00  0.00    +0.173 HD
ATOM     12  C   UNL     1       9.072  -0.431  25.599  0.00  0.00    +0.331 A 
ATOM     13  O   UNL     1       8.911  -0.821  26.749  0.00  0.00    -0.246 OA
ATOM     14  N   UNL     1       8.336  -0.899  24.507  0.00  0.00    -0.274 N 
ATOM     15  C   UNL     1       8.498  -0.333  23.255  0.00  0.00    +0.101 A 
ENDBRANCH   1  14
BRANCH   4  16
ATOM     16  N   UNL     1       4.985  -3.763  22.681  0.00  0.00    +0.082 NA
ATOM     17  N   UNL     1       4.153  -4.681  22.791  0.00  0.00    -0.014 NA
ATOM     18  N   UNL     1       3.386  -5.516  22.898  0.00  0.00    -0.328 NA
ENDBRANCH   4  16
BRANCH   3  19
ATOM     19  C   UNL     1       6.439  -5.442  25.139  0.00  0.00    +0.206 C 
BRANCH  19  20
ATOM     20  O   UNL     1       5.467  -5.189  26.172  0.00  0.00    -0.284 OA
BRANCH  20  21
ATOM     21  P   UNL     1       4.379  -6.336  26.713  0.00  0.00    +0.483 P 
ATOM     22  O   UNL     1       2.986  -5.818  26.354  0.00  0.00    -0.227 OA
BRANCH  21  23
ATOM     23  O   UNL     1       4.460  -7.098  25.163  0.00  0.00    -0.302 OA
ATOM     24  H   UNL     1       5.407  -7.324  25.050  0.00  0.00    +0.222 HD
ENDBRANCH  21  23
BRANCH  21  25
ATOM     25  O   UNL     1       4.296  -5.573  28.264  0.00  0.00    -0.186 OA
BRANCH  25  26
ATOM     26  P   UNL     1       5.383  -6.363  29.354  0.00  0.00    +0.481 P 
ATOM     27  O   UNL     1       6.354  -7.071  30.330  0.00  0.00    -0.227 OA
BRANCH  26  28
ATOM     28  O   UNL     1       6.533  -5.410  28.677  0.00  0.00    -0.302 OA
ATOM     29  H   UNL     1       7.436  -5.534  29.047  0.00  0.00    +0.222 HD
ENDBRANCH  26  28
BRANCH  26  30
ATOM     30  O   UNL     1       5.457  -7.505  28.178  0.00  0.00    -0.302 OA
ATOM     31  H   UNL     1       4.801  -8.211  28.255  0.00  0.00    +0.222 HD
ENDBRANCH  26  30
ENDBRANCH  25  26
ENDBRANCH  21  25
ENDBRANCH  20  21
ENDBRANCH  19  20
ENDBRANCH   3  19
TORSDOF 10
ENDMDL
MODEL 5
REMARK VINA RESULT:      -6.2      2.959      4.807
REMARK  Name = 
REMARK  11 active torsions:
REMARK  status: ('A' for Active; 'I' for Inactive)
REMARK    1  A    between atoms: C_1  and  C_2
REMARK    2  A    between atoms: N_4  and  C_5
REMARK    3  A    between atoms: C_8  and  N_10
REMARK    4  A    between atoms: C_13  and  C_15
REMARK    5  A    between atoms: C_15  and  O_16
REMARK    6  A    between atoms: O_16  and  P_17
REMARK    7  A    between atoms: P_17  and  O_18
REMARK    8  A    between atoms: P_17  and  O_20
REMARK    9  A    between atoms: O_20  and  P_21
REMARK   10  A    between atoms: P_21  and  O_22
REMARK   11  A    between atoms: P_21  and  O_23
REMARK                            x       y       z     vdW  Elec       q    Type
REMARK                         _______ _______ _______ _____ _____    ______ ____
ROOT
ATOM      1  C   UNL     1       7.040  -3.858  24.684  0.00  0.00    +0.226 C 
ATOM      2  O   UNL     1       5.902  -3.406  25.482  0.00  0.00    -0.349 OA
ATOM      3  C   UNL     1       5.856  -4.188  26.721  0.00  0.00    +0.178 C 
ATOM      4  C   UNL     1       6.877  -5.316  26.542  0.00  0.00    +0.226 C 
ATOM      5  C   UNL     1       7.904  -4.690  25.618  0.00  0.00    +0.091 C 
ENDROOT
BRANCH   1  14
ATOM      6  C   UNL     1      10.233   0.021  24.845  0.00  0.00    +0.051 C 
ATOM      7  C   UNL     1       9.364  -0.968  24.137  0.00  0.00    +0.030 A 
ATOM      8  C   UNL     1       9.419  -0.948  22.657  0.00  0.00    +0.257 A 
ATOM      9  O   UNL     1      10.137  -0.168  22.037  0.00  0.00    -0.267 OA
ATOM     10  N   UNL     1       8.633  -1.864  22.026  0.00  0.00    -0.275 N 
ATOM     11  H   UNL     1       8.685  -1.894  21.019  0.00  0.00    +0.173 HD
ATOM     12  C   UNL     1       7.859  -2.826  22.632  0.00  0.00    +0.331 A 
ATOM     13  O   UNL     1       7.285  -3.665  21.950  0.00  0.00    -0.246 OA
ATOM     14  N   UNL     1       7.803  -2.784  24.028  0.00  0.00    -0.274 N 
ATOM     15  C   UNL     1       8.567  -1.873  24.736  0.00  0.00    +0.101 A 
ENDBRANCH   1  14
BRANCH   4  16
ATOM     16  N   UNL     1       7.500  -5.662  27.822  0.00  0.00    +0.082 NA
ATOM     17  N   UNL     1       6.903  -6.510  28.509  0.00  0.00    -0.014 NA
ATOM     18  N   UNL     1       6.357  -7.293  29.130  0.00  0.00    -0.328 NA
ENDBRANCH   4  16
BRANCH   3  19
ATOM     19  C   UNL     1       4.415  -4.681  27.119  0.00  0.00    +0.206 C 
BRANCH  19  20
ATOM     20  O   UNL     1       3.685  -5.247  26.014  0.00  0.00    -0.284 OA
BRANCH  20  21
ATOM     21  P   UNL     1       3.109  -6.815  25.997  0.00  0.00    +0.483 P 
ATOM     22  O   UNL     1       4.150  -7.654  25.254  0.00  0.00    -0.227 OA
BRANCH  21  23
ATOM     23  O   UNL     1       3.967  -7.113  27.469  0.00  0.00    -0.302 OA
ATOM     24  H   UNL     1       3.940  -6.257  27.945  0.00  0.00    +0.222 HD
ENDBRANCH  21  23
BRANCH  21  25
ATOM     25  O   UNL     1       2.251  -6.519  24.523  0.00  0.00    -0.186 OA
BRANCH  25  26
ATOM     26  P   UNL     1       3.156  -5.419  23.540  0.00  0.00    +0.481 P 
ATOM     27  O   UNL     1       3.966  -4.435  22.661  0.00  0.00    -0.227 OA
BRANCH  26  28
ATOM     28  O   UNL     1       1.717  -5.092  22.827  0.00  0.00    -0.302 OA
ATOM     29  H   UNL     1       1.692  -4.246  22.324  0.00  0.00    +0.222 HD
ENDBRANCH  26  28
BRANCH  26  30
ATOM     30  O   UNL     1       3.450  -6.749  22.626  0.00  0.00    -0.302 OA
ATOM     31  H   UNL     1       2.671  -7.127  22.195  0.00  0.00    +0.222 HD
ENDBRANCH  26  30
ENDBRANCH  25  26
ENDBRANCH  21  25
ENDBRANCH  20  21
ENDBRANCH  19  20
ENDBRANCH   3  19
TORSDOF 10
ENDMDL
MODEL 6
REMARK VINA RESULT:      -6.2      2.421      3.926
REMARK  Name = 
REMARK  11 active torsions:
REMARK  status: ('A' for Active; 'I' for Inactive)
REMARK    1  A    between atoms: C_1  and  C_2
REMARK    2  A    between atoms: N_4  and  C_5
REMARK    3  A    between atoms: C_8  and  N_10
REMARK    4  A    between atoms: C_13  and  C_15
REMARK    5  A    between atoms: C_15  and  O_16
REMARK    6  A    between atoms: O_16  and  P_17
REMARK    7  A    between atoms: P_17  and  O_18
REMARK    8  A    between atoms: P_17  and  O_20
REMARK    9  A    between atoms: O_20  and  P_21
REMARK   10  A    between atoms: P_21  and  O_22
REMARK   11  A    between atoms: P_21  and  O_23
REMARK                            x       y       z     vdW  Elec       q    Type
REMARK                         _______ _______ _______ _____ _____    ______ ____
ROOT
ATOM      1  C   UNL     1       7.531  -1.858  24.757  0.00  0.00    +0.226 C 
ATOM      2  O   UNL     1       8.206  -2.805  25.642  0.00  0.00    -0.349 OA
ATOM      3  C   UNL     1       8.120  -4.145  25.052  0.00  0.00    +0.178 C 
ATOM      4  C   UNL     1       7.145  -4.022  23.877  0.00  0.00    +0.226 C 
ATOM      5  C   UNL     1       7.336  -2.584  23.435  0.00  0.00    +0.091 C 
ENDROOT
BRANCH   1  14
ATOM      6  C   UNL     1       9.949   1.520  21.928  0.00  0.00    +0.051 C 
ATOM      7  C   UNL     1       9.327   1.040  23.199  0.00  0.00    +0.030 A 
ATOM      8  C   UNL     1       9.269   2.017  24.310  0.00  0.00    +0.257 A 
ATOM      9  O   UNL     1       9.702   3.161  24.203  0.00  0.00    -0.267 OA
ATOM     10  N   UNL     1       8.688   1.569  25.458  0.00  0.00    -0.275 N 
ATOM     11  H   UNL     1       8.602   2.231  26.215  0.00  0.00    +0.173 HD
ATOM     12  C   UNL     1       8.106   0.338  25.648  0.00  0.00    +0.331 A 
ATOM     13  O   UNL     1       7.515   0.097  26.693  0.00  0.00    -0.246 OA
ATOM     14  N   UNL     1       8.219  -0.568  24.589  0.00  0.00    -0.274 N 
ATOM     15  C   UNL     1       8.807  -0.186  23.396  0.00  0.00    +0.101 A 
ENDBRANCH   1  14
BRANCH   4  16
ATOM     16  N   UNL     1       7.519  -4.932  22.792  0.00  0.00    +0.082 NA
ATOM     17  N   UNL     1       6.714  -5.015  21.846  0.00  0.00    -0.014 NA
ATOM     18  N   UNL     1       5.979  -5.081  20.979  0.00  0.00    -0.328 NA
ENDBRANCH   4  16
BRANCH   3  19
ATOM     19  C   UNL     1       7.752  -5.279  26.079  0.00  0.00    +0.206 C 
BRANCH  19  20
ATOM     20  O   UNL     1       6.603  -6.052  25.680  0.00  0.00    -0.284 OA
BRANCH  20  21
ATOM     21  P   UNL     1       5.175  -6.091  26.546  0.00  0.00    +0.483 P 
ATOM     22  O   UNL     1       5.352  -7.154  27.631  0.00  0.00    -0.227 OA
BRANCH  21  23
ATOM     23  O   UNL     1       5.836  -4.918  27.631  0.00  0.00    -0.302 OA
ATOM     24  H   UNL     1       5.778  -4.071  27.141  0.00  0.00    +0.222 HD
ENDBRANCH  21  23
BRANCH  21  25
ATOM     25  O   UNL     1       4.512  -7.266  25.461  0.00  0.00    -0.186 OA
BRANCH  25  26
ATOM     26  P   UNL     1       3.807  -6.462  24.101  0.00  0.00    +0.481 P 
ATOM     27  O   UNL     1       3.176  -5.742  22.884  0.00  0.00    -0.227 OA
BRANCH  26  28
ATOM     28  O   UNL     1       3.042  -7.887  23.833  0.00  0.00    -0.302 OA
ATOM     29  H   UNL     1       3.416  -8.421  23.095  0.00  0.00    +0.222 HD
ENDBRANCH  26  28
BRANCH  26  30
ATOM     30  O   UNL     1       5.187  -6.915  23.337  0.00  0.00    -0.302 OA
ATOM     31  H   UNL     1       5.107  -7.705  22.786  0.00  0.00    +0.222 HD
ENDBRANCH  26  30
ENDBRANCH  25  26
ENDBRANCH  21  25
ENDBRANCH  20  21
ENDBRANCH  19  20
ENDBRANCH   3  19
TORSDOF 10
ENDMDL
MODEL 7
REMARK VINA RESULT:      -6.2      2.552      3.070
REMARK  Name = 
REMARK  11 active torsions:
REMARK  status: ('A' for Active; 'I' for Inactive)
REMARK    1  A    between atoms: C_1  and  C_2
REMARK    2  A    between atoms: N_4  and  C_5
REMARK    3  A    between atoms: C_8  and  N_10
REMARK    4  A    between atoms: C_13  and  C_15
REMARK    5  A    between atoms: C_15  and  O_16
REMARK    6  A    between atoms: O_16  and  P_17
REMARK    7  A    between atoms: P_17  and  O_18
REMARK    8  A    between atoms: P_17  and  O_20
REMARK    9  A    between atoms: O_20  and  P_21
REMARK   10  A    between atoms: P_21  and  O_22
REMARK   11  A    between atoms: P_21  and  O_23
REMARK                            x       y       z     vdW  Elec       q    Type
REMARK                         _______ _______ _______ _____ _____    ______ ____
ROOT
ATOM      1  C   UNL     1       8.588  -2.570  24.284  0.00  0.00    +0.226 C 
ATOM      2  O   UNL     1       7.277  -3.001  23.804  0.00  0.00    -0.349 OA
ATOM      3  C   UNL     1       6.631  -3.799  24.852  0.00  0.00    +0.178 C 
ATOM      4  C   UNL     1       7.709  -4.048  25.912  0.00  0.00    +0.226 C 
ATOM      5  C   UNL     1       8.590  -2.820  25.784  0.00  0.00    +0.091 C 
ENDROOT
BRANCH   1  14
ATOM      6  C   UNL     1       8.304   2.381  25.104  0.00  0.00    +0.051 C 
ATOM      7  C   UNL     1       8.823   1.170  24.400  0.00  0.00    +0.030 A 
ATOM      8  C   UNL     1       9.896   1.399  23.405  0.00  0.00    +0.257 A 
ATOM      9  O   UNL     1      10.343   2.518  23.167  0.00  0.00    -0.267 OA
ATOM     10  N   UNL     1      10.369   0.284  22.781  0.00  0.00    -0.275 N 
ATOM     11  H   UNL     1      11.127   0.413  22.129  0.00  0.00    +0.173 HD
ATOM     12  C   UNL     1       9.988  -1.012  23.036  0.00  0.00    +0.331 A 
ATOM     13  O   UNL     1      10.571  -1.938  22.485  0.00  0.00    -0.246 OA
ATOM     14  N   UNL     1       8.945  -1.182  23.950  0.00  0.00    -0.274 N 
ATOM     15  C   UNL     1       8.409  -0.093  24.615  0.00  0.00    +0.101 A 
ENDBRANCH   1  14
BRANCH   4  16
ATOM     16  N   UNL     1       7.119  -4.103  27.251  0.00  0.00    +0.082 NA
ATOM     17  N   UNL     1       7.071  -5.228  27.781  0.00  0.00    -0.014 NA
ATOM     18  N   UNL     1       7.037  -6.258  28.265  0.00  0.00    -0.328 NA
ENDBRANCH   4  16
BRANCH   3  19
ATOM     19  C   UNL     1       5.931  -5.106  24.326  0.00  0.00    +0.206 C 
BRANCH  19  20
ATOM     20  O   UNL     1       4.553  -5.212  24.731  0.00  0.00    -0.284 OA
BRANCH  20  21
ATOM     21  P   UNL     1       3.786  -6.668  25.021  0.00  0.00    +0.483 P 
ATOM     22  O   UNL     1       2.606  -6.740  24.052  0.00  0.00    -0.227 OA
BRANCH  21  23
ATOM     23  O   UNL     1       4.783  -7.397  23.810  0.00  0.00    -0.302 OA
ATOM     24  H   UNL     1       5.421  -6.695  23.562  0.00  0.00    +0.222 HD
ENDBRANCH  21  23
BRANCH  21  25
ATOM     25  O   UNL     1       2.788  -5.940  26.232  0.00  0.00    -0.186 OA
BRANCH  25  26
ATOM     26  P   UNL     1       3.358  -6.397  27.801  0.00  0.00    +0.481 P 
ATOM     27  O   UNL     1       3.868  -6.807  29.204  0.00  0.00    -0.227 OA
BRANCH  26  28
ATOM     28  O   UNL     1       4.159  -4.966  27.773  0.00  0.00    -0.302 OA
ATOM     29  H   UNL     1       4.684  -4.807  26.955  0.00  0.00    +0.222 HD
ENDBRANCH  26  28
BRANCH  26  30
ATOM     30  O   UNL     1       4.511  -7.203  26.956  0.00  0.00    -0.302 OA
ATOM     31  H   UNL     1       4.430  -8.167  26.975  0.00  0.00    +0.222 HD
ENDBRANCH  26  30
ENDBRANCH  25  26
ENDBRANCH  21  25
ENDBRANCH  20  21
ENDBRANCH  19  20
ENDBRANCH   3  19
TORSDOF 10
ENDMDL
MODEL 8
REMARK VINA RESULT:      -6.1      1.796      2.606
REMARK  Name = 
REMARK  11 active torsions:
REMARK  status: ('A' for Active; 'I' for Inactive)
REMARK    1  A    between atoms: C_1  and  C_2
REMARK    2  A    between atoms: N_4  and  C_5
REMARK    3  A    between atoms: C_8  and  N_10
REMARK    4  A    between atoms: C_13  and  C_15
REMARK    5  A    between atoms: C_15  and  O_16
REMARK    6  A    between atoms: O_16  and  P_17
REMARK    7  A    between atoms: P_17  and  O_18
REMARK    8  A    between atoms: P_17  and  O_20
REMARK    9  A    between atoms: O_20  and  P_21
REMARK   10  A    between atoms: P_21  and  O_22
REMARK   11  A    between atoms: P_21  and  O_23
REMARK                            x       y       z     vdW  Elec       q    Type
REMARK                         _______ _______ _______ _____ _____    ______ ____
ROOT
ATOM      1  C   UNL     1       7.052  -1.271  23.025  0.00  0.00    +0.226 C 
ATOM      2  O   UNL     1       6.170  -1.700  24.109  0.00  0.00    -0.349 OA
ATOM      3  C   UNL     1       6.155  -3.165  24.151  0.00  0.00    +0.178 C 
ATOM      4  C   UNL     1       6.879  -3.627  22.882  0.00  0.00    +0.226 C 
ATOM      5  C   UNL     1       7.858  -2.497  22.629  0.00  0.00    +0.091 C 
ENDROOT
BRANCH   1  14
ATOM      6  C   UNL     1      11.375   0.690  24.677  0.00  0.00    +0.051 C 
ATOM      7  C   UNL     1      10.002   0.780  24.094  0.00  0.00    +0.030 A 
ATOM      8  C   UNL     1       9.560   2.127  23.664  0.00  0.00    +0.257 A 
ATOM      9  O   UNL     1      10.274   3.119  23.774  0.00  0.00    -0.267 OA
ATOM     10  N   UNL     1       8.311   2.191  23.123  0.00  0.00    -0.275 N 
ATOM     11  H   UNL     1       8.005   3.092  22.787  0.00  0.00    +0.173 HD
ATOM     12  C   UNL     1       7.472   1.127  22.887  0.00  0.00    +0.331 A 
ATOM     13  O   UNL     1       6.418   1.304  22.289  0.00  0.00    -0.246 OA
ATOM     14  N   UNL     1       7.910  -0.118  23.345  0.00  0.00    -0.274 N 
ATOM     15  C   UNL     1       9.163  -0.257  23.915  0.00  0.00    +0.101 A 
ENDBRANCH   1  14
BRANCH   4  16
ATOM     16  N   UNL     1       7.607  -4.875  23.124  0.00  0.00    +0.082 NA
ATOM     17  N   UNL     1       8.512  -4.823  23.978  0.00  0.00    -0.014 NA
ATOM     18  N   UNL     1       9.332  -4.772  24.766  0.00  0.00    -0.328 NA
ENDBRANCH   4  16
BRANCH   3  19
ATOM     19  C   UNL     1       4.722  -3.790  24.338  0.00  0.00    +0.206 C 
BRANCH  19  20
ATOM     20  O   UNL     1       4.669  -5.191  24.009  0.00  0.00    -0.284 OA
BRANCH  20  21
ATOM     21  P   UNL     1       4.519  -6.401  25.152  0.00  0.00    +0.483 P 
ATOM     22  O   UNL     1       3.023  -6.550  25.434  0.00  0.00    -0.227 OA
BRANCH  21  23
ATOM     23  O   UNL     1       4.358  -7.550  23.869  0.00  0.00    -0.302 OA
ATOM     24  H   UNL     1       3.816  -8.271  24.252  0.00  0.00    +0.222 HD
ENDBRANCH  21  23
BRANCH  21  25
ATOM     25  O   UNL     1       4.678  -5.252  26.436  0.00  0.00    -0.186 OA
BRANCH  25  26
ATOM     26  P   UNL     1       5.950  -5.747  27.498  0.00  0.00    +0.481 P 
ATOM     27  O   UNL     1       7.089  -6.190  28.450  0.00  0.00    -0.227 OA
BRANCH  26  28
ATOM     28  O   UNL     1       6.821  -5.967  26.126  0.00  0.00    -0.302 OA
ATOM     29  H   UNL     1       6.436  -5.543  25.325  0.00  0.00    +0.222 HD
ENDBRANCH  26  28
BRANCH  26  30
ATOM     30  O   UNL     1       5.214  -7.211  27.417  0.00  0.00    -0.302 OA
ATOM     31  H   UNL     1       5.800  -7.949  27.199  0.00  0.00    +0.222 HD
ENDBRANCH  26  30
ENDBRANCH  25  26
ENDBRANCH  21  25
ENDBRANCH  20  21
ENDBRANCH  19  20
ENDBRANCH   3  19
TORSDOF 10
ENDMDL
MODEL 9
REMARK VINA RESULT:      -6.1      2.025      2.456
REMARK  Name = 
REMARK  11 active torsions:
REMARK  status: ('A' for Active; 'I' for Inactive)
REMARK    1  A    between atoms: C_1  and  C_2
REMARK    2  A    between atoms: N_4  and  C_5
REMARK    3  A    between atoms: C_8  and  N_10
REMARK    4  A    between atoms: C_13  and  C_15
REMARK    5  A    between atoms: C_15  and  O_16
REMARK    6  A    between atoms: O_16  and  P_17
REMARK    7  A    between atoms: P_17  and  O_18
REMARK    8  A    between atoms: P_17  and  O_20
REMARK    9  A    between atoms: O_20  and  P_21
REMARK   10  A    between atoms: P_21  and  O_22
REMARK   11  A    between atoms: P_21  and  O_23
REMARK                            x       y       z     vdW  Elec       q    Type
REMARK                         _______ _______ _______ _____ _____    ______ ____
ROOT
ATOM      1  C   UNL     1       9.113  -1.430  24.137  0.00  0.00    +0.226 C 
ATOM      2  O   UNL     1       8.372  -2.299  23.225  0.00  0.00    -0.349 OA
ATOM      3  C   UNL     1       7.692  -3.334  24.010  0.00  0.00    +0.178 C 
ATOM      4  C   UNL     1       8.247  -3.213  25.432  0.00  0.00    +0.226 C 
ATOM      5  C   UNL     1       8.589  -1.739  25.530  0.00  0.00    +0.091 C 
ENDROOT
BRANCH   1  14
ATOM      6  C   UNL     1       6.651   2.593  22.401  0.00  0.00    +0.051 C 
ATOM      7  C   UNL     1       7.823   1.910  23.028  0.00  0.00    +0.030 A 
ATOM      8  C   UNL     1       8.916   2.788  23.505  0.00  0.00    +0.257 A 
ATOM      9  O   UNL     1       8.870   4.011  23.398  0.00  0.00    -0.267 OA
ATOM     10  N   UNL     1       9.971   2.153  24.087  0.00  0.00    -0.275 N 
ATOM     11  H   UNL     1      10.708   2.735  24.455  0.00  0.00    +0.173 HD
ATOM     12  C   UNL     1      10.077   0.802  24.322  0.00  0.00    +0.331 A 
ATOM     13  O   UNL     1      11.029   0.367  24.957  0.00  0.00    -0.246 OA
ATOM     14  N   UNL     1       9.044   0.005  23.820  0.00  0.00    -0.274 N 
ATOM     15  C   UNL     1       7.945   0.581  23.208  0.00  0.00    +0.101 A 
ENDBRANCH   1  14
BRANCH   4  16
ATOM     16  N   UNL     1       7.223  -3.556  26.422  0.00  0.00    +0.082 NA
ATOM     17  N   UNL     1       7.400  -4.618  27.046  0.00  0.00    -0.014 NA
ATOM     18  N   UNL     1       7.571  -5.587  27.619  0.00  0.00    -0.328 NA
ENDBRANCH   4  16
BRANCH   3  19
ATOM     19  C   UNL     1       7.799  -4.781  23.398  0.00  0.00    +0.206 C 
BRANCH  19  20
ATOM     20  O   UNL     1       6.698  -5.633  23.767  0.00  0.00    -0.284 OA
BRANCH  20  21
ATOM     21  P   UNL     1       5.287  -5.752  22.880  0.00  0.00    +0.483 P 
ATOM     22  O   UNL     1       5.177  -4.465  22.062  0.00  0.00    -0.227 OA
BRANCH  21  23
ATOM     23  O   UNL     1       6.196  -6.457  21.588  0.00  0.00    -0.302 OA
ATOM     24  H   UNL     1       6.200  -5.770  20.888  0.00  0.00    +0.222 HD
ENDBRANCH  21  23
BRANCH  21  25
ATOM     25  O   UNL     1       4.377  -5.046  24.171  0.00  0.00    -0.186 OA
BRANCH  25  26
ATOM     26  P   UNL     1       3.794  -6.296  25.216  0.00  0.00    +0.481 P 
ATOM     27  O   UNL     1       3.271  -7.414  26.150  0.00  0.00    -0.227 OA
BRANCH  26  28
ATOM     28  O   UNL     1       5.195  -6.070  26.037  0.00  0.00    -0.302 OA
ATOM     29  H   UNL     1       5.083  -5.920  27.003  0.00  0.00    +0.222 HD
ENDBRANCH  26  28
BRANCH  26  30
ATOM     30  O   UNL     1       4.461  -7.300  24.102  0.00  0.00    -0.302 OA
ATOM     31  H   UNL     1       4.120  -7.194  23.204  0.00  0.00    +0.222 HD
ENDBRANCH  26  30
ENDBRANCH  25  26
ENDBRANCH  21  25
ENDBRANCH  20  21
ENDBRANCH  19  20
ENDBRANCH   3  19
TORSDOF 10
ENDMDL
