MODEL 1
REMARK VINA RESULT:      -4.1      0.000      0.000
REMARK  Name = 
REMARK  7 active torsions:
REMARK  status: ('A' for Active; 'I' for Inactive)
REMARK    1  A    between atoms: O_1  and  C_2
REMARK    2  A    between atoms: C_2  and  C_4
REMARK    3  A    between atoms: C_2  and  C_10
REMARK    4  A    between atoms: C_4  and  O_6
REMARK    5  A    between atoms: C_4  and  C_7
REMARK    6  A    between atoms: C_7  and  O_8
REMARK    7  A    between atoms: C_10  and  O_11
REMARK                            x       y       z     vdW  Elec       q    Type
REMARK                         _______ _______ _______ _____ _____    ______ ____
ROOT
ATOM      1  C   UNL     1      10.264   0.726  23.585  0.00  0.00    +0.262 C 
ENDROOT
BRANCH   1   2
ATOM      2  O   UNL     1      10.541   0.989  24.973  0.00  0.00    -0.378 OA
ATOM      3  H   UNL     1      10.699   0.119  25.393  0.00  0.00    +0.211 HD
ENDBRANCH   1   2
BRANCH   1   4
ATOM      4  C   UNL     1       9.754   1.982  22.894  0.00  0.00    +0.337 C 
ATOM      5  O   UNL     1       8.981   2.779  23.402  0.00  0.00    -0.248 OA
BRANCH   4   6
ATOM      6  O   UNL     1      10.207   2.070  21.619  0.00  0.00    -0.479 OA
ATOM      7  H   UNL     1      11.112   1.676  21.584  0.00  0.00    +0.295 HD
ENDBRANCH   4   6
ENDBRANCH   1   4
BRANCH   1   8
ATOM      8  C   UNL     1       9.302  -0.444  23.415  0.00  0.00    +0.262 C 
BRANCH   8   9
ATOM      9  C   UNL     1      10.001  -1.688  22.869  0.00  0.00    +0.337 C 
ATOM     10  O   UNL     1      10.288  -2.683  23.512  0.00  0.00    -0.248 OA
BRANCH   9  11
ATOM     11  O   UNL     1      10.280  -1.567  21.544  0.00  0.00    -0.479 OA
ATOM     12  H   UNL     1       9.450  -1.308  21.080  0.00  0.00    +0.295 HD
ENDBRANCH   9  11
ENDBRANCH   8   9
BRANCH   8  13
ATOM     13  O   UNL     1       8.280  -0.062  22.456  0.00  0.00    -0.378 OA
ATOM     14  H   UNL     1       7.878   0.764  22.792  0.00  0.00    +0.211 HD
ENDBRANCH   8  13
ENDBRANCH   1   8
TORSDOF 7
ENDMDL
MODEL 2
REMARK VINA RESULT:      -4.0      1.083      1.868
REMARK  Name = 
REMARK  7 active torsions:
REMARK  status: ('A' for Active; 'I' for Inactive)
REMARK    1  A    between atoms: O_1  and  C_2
REMARK    2  A    between atoms: C_2  and  C_4
REMARK    3  A    between atoms: C_2  and  C_10
REMARK    4  A    between atoms: C_4  and  O_6
REMARK    5  A    between atoms: C_4  and  C_7
REMARK    6  A    between atoms: C_7  and  O_8
REMARK    7  A    between atoms: C_10  and  O_11
REMARK                            x       y       z     vdW  Elec       q    Type
REMARK                         _______ _______ _______ _____ _____    ______ ____
ROOT
ATOM      1  C   UNL     1       8.865   0.692  23.076  0.00  0.00    +0.262 C 
ENDROOT
BRANCH   1   2
ATOM      2  O   UNL     1       7.826  -0.294  22.933  0.00  0.00    -0.378 OA
ATOM      3  H   UNL     1       8.034  -1.008  23.569  0.00  0.00    +0.211 HD
ENDBRANCH   1   2
BRANCH   1   4
ATOM      4  C   UNL     1       8.793   1.713  21.948  0.00  0.00    +0.337 C 
ATOM      5  O   UNL     1       7.754   2.087  21.427  0.00  0.00    -0.248 OA
BRANCH   4   6
ATOM      6  O   UNL     1      10.028   2.101  21.545  0.00  0.00    -0.479 OA
ATOM      7  H   UNL     1      10.256   2.939  22.014  0.00  0.00    +0.295 HD
ENDBRANCH   4   6
ENDBRANCH   1   4
BRANCH   1   8
ATOM      8  C   UNL     1      10.244   0.048  23.168  0.00  0.00    +0.262 C 
BRANCH   8   9
ATOM      9  C   UNL     1      10.216  -1.427  22.771  0.00  0.00    +0.337 C 
ATOM     10  O   UNL     1      10.197  -2.371  23.542  0.00  0.00    -0.248 OA
BRANCH   9  11
ATOM     11  O   UNL     1      10.214  -1.584  21.421  0.00  0.00    -0.479 OA
ATOM     12  H   UNL     1       9.368  -1.219  21.072  0.00  0.00    +0.295 HD
ENDBRANCH   9  11
ENDBRANCH   8   9
BRANCH   8  13
ATOM     13  O   UNL     1      10.693   0.121  24.548  0.00  0.00    -0.378 OA
ATOM     14  H   UNL     1      10.089  -0.447  25.067  0.00  0.00    +0.211 HD
ENDBRANCH   8  13
ENDBRANCH   1   8
TORSDOF 7
ENDMDL
MODEL 3
REMARK VINA RESULT:      -3.9      1.240      3.729
REMARK  Name = 
REMARK  7 active torsions:
REMARK  status: ('A' for Active; 'I' for Inactive)
REMARK    1  A    between atoms: O_1  and  C_2
REMARK    2  A    between atoms: C_2  and  C_4
REMARK    3  A    between atoms: C_2  and  C_10
REMARK    4  A    between atoms: C_4  and  O_6
REMARK    5  A    between atoms: C_4  and  C_7
REMARK    6  A    between atoms: C_7  and  O_8
REMARK    7  A    between atoms: C_10  and  O_11
REMARK                            x       y       z     vdW  Elec       q    Type
REMARK                         _______ _______ _______ _____ _____    ______ ____
ROOT
ATOM      1  C   UNL     1       9.494  -0.671  23.594  0.00  0.00    +0.262 C 
ENDROOT
BRANCH   1   2
ATOM      2  O   UNL     1      10.272  -0.283  24.742  0.00  0.00    -0.378 OA
ATOM      3  H   UNL     1       9.668  -0.325  25.511  0.00  0.00    +0.211 HD
ENDBRANCH   1   2
BRANCH   1   4
ATOM      4  C   UNL     1       9.350  -2.186  23.532  0.00  0.00    +0.337 C 
ATOM      5  O   UNL     1      10.248  -2.971  23.793  0.00  0.00    -0.248 OA
BRANCH   4   6
ATOM      6  O   UNL     1       8.125  -2.554  23.082  0.00  0.00    -0.479 OA
ATOM      7  H   UNL     1       8.228  -3.375  22.543  0.00  0.00    +0.295 HD
ENDBRANCH   4   6
ENDBRANCH   1   4
BRANCH   1   8
ATOM      8  C   UNL     1      10.074  -0.105  22.303  0.00  0.00    +0.262 C 
BRANCH   8   9
ATOM      9  C   UNL     1       9.327   1.144  21.838  0.00  0.00    +0.337 C 
ATOM     10  O   UNL     1       8.119   1.245  21.710  0.00  0.00    -0.248 OA
BRANCH   9  11
ATOM     11  O   UNL     1      10.179   2.169  21.570  0.00  0.00    -0.479 OA
ATOM     12  H   UNL     1      11.093   1.802  21.525  0.00  0.00    +0.295 HD
ENDBRANCH   9  11
ENDBRANCH   8   9
BRANCH   8  13
ATOM     13  O   UNL     1       9.940  -1.107  21.261  0.00  0.00    -0.378 OA
ATOM     14  H   UNL     1       9.265  -1.743  21.571  0.00  0.00    +0.211 HD
ENDBRANCH   8  13
ENDBRANCH   1   8
TORSDOF 7
ENDMDL
MODEL 4
REMARK VINA RESULT:      -3.9      4.535      6.380
REMARK  Name = 
REMARK  7 active torsions:
REMARK  status: ('A' for Active; 'I' for Inactive)
REMARK    1  A    between atoms: O_1  and  C_2
REMARK    2  A    between atoms: C_2  and  C_4
REMARK    3  A    between atoms: C_2  and  C_10
REMARK    4  A    between atoms: C_4  and  O_6
REMARK    5  A    between atoms: C_4  and  C_7
REMARK    6  A    between atoms: C_7  and  O_8
REMARK    7  A    between atoms: C_10  and  O_11
REMARK                            x       y       z     vdW  Elec       q    Type
REMARK                         _______ _______ _______ _____ _____    ______ ____
ROOT
ATOM      1  C   UNL     1       9.090  -5.163  25.262  0.00  0.00    +0.262 C 
ENDROOT
BRANCH   1   2
ATOM      2  O   UNL     1      10.482  -5.515  25.374  0.00  0.00    -0.378 OA
ATOM      3  H   UNL     1      10.617  -6.295  24.798  0.00  0.00    +0.211 HD
ENDBRANCH   1   2
BRANCH   1   4
ATOM      4  C   UNL     1       8.903  -4.038  24.253  0.00  0.00    +0.337 C 
ATOM      5  O   UNL     1       7.885  -3.863  23.602  0.00  0.00    -0.248 OA
BRANCH   4   6
ATOM      6  O   UNL     1      10.031  -3.298  24.114  0.00  0.00    -0.479 OA
ATOM      7  H   UNL     1      10.573  -3.404  24.933  0.00  0.00    +0.295 HD
ENDBRANCH   4   6
ENDBRANCH   1   4
BRANCH   1   8
ATOM      8  C   UNL     1       8.487  -4.814  26.617  0.00  0.00    +0.262 C 
BRANCH   8   9
ATOM      9  C   UNL     1       7.290  -5.699  26.958  0.00  0.00    +0.337 C 
ATOM     10  O   UNL     1       6.352  -5.946  26.218  0.00  0.00    -0.248 OA
BRANCH   9  11
ATOM     11  O   UNL     1       7.380  -6.204  28.217  0.00  0.00    -0.479 OA
ATOM     12  H   UNL     1       8.335  -6.320  28.432  0.00  0.00    +0.295 HD
ENDBRANCH   9  11
ENDBRANCH   8   9
BRANCH   8  13
ATOM     13  O   UNL     1       8.015  -3.441  26.570  0.00  0.00    -0.378 OA
ATOM     14  H   UNL     1       8.057  -3.164  25.633  0.00  0.00    +0.211 HD
ENDBRANCH   8  13
ENDBRANCH   1   8
TORSDOF 7
ENDMDL
MODEL 5
REMARK VINA RESULT:      -3.9      3.406      5.444
REMARK  Name = 
REMARK  7 active torsions:
REMARK  status: ('A' for Active; 'I' for Inactive)
REMARK    1  A    between atoms: O_1  and  C_2
REMARK    2  A    between atoms: C_2  and  C_4
REMARK    3  A    between atoms: C_2  and  C_10
REMARK    4  A    between atoms: C_4  and  O_6
REMARK    5  A    between atoms: C_4  and  C_7
REMARK    6  A    between atoms: C_7  and  O_8
REMARK    7  A    between atoms: C_10  and  O_11
REMARK                            x       y       z     vdW  Elec       q    Type
REMARK                         _______ _______ _______ _____ _____    ______ ____
ROOT
ATOM      1  C   UNL     1       8.395  -3.757  24.112  0.00  0.00    +0.262 C 
ENDROOT
BRANCH   1   2
ATOM      2  O   UNL     1       7.901  -4.161  22.821  0.00  0.00    -0.378 OA
ATOM      3  H   UNL     1       7.162  -4.778  22.989  0.00  0.00    +0.211 HD
ENDBRANCH   1   2
BRANCH   1   4
ATOM      4  C   UNL     1       9.477  -2.696  23.963  0.00  0.00    +0.337 C 
ATOM      5  O   UNL     1      10.306  -2.683  23.067  0.00  0.00    -0.248 OA
BRANCH   4   6
ATOM      6  O   UNL     1       9.451  -1.809  24.988  0.00  0.00    -0.479 OA
ATOM      7  H   UNL     1      10.333  -1.366  25.035  0.00  0.00    +0.295 HD
ENDBRANCH   4   6
ENDBRANCH   1   4
BRANCH   1   8
ATOM      8  C   UNL     1       8.879  -4.949  24.927  0.00  0.00    +0.262 C 
BRANCH   8   9
ATOM      9  C   UNL     1       8.467  -4.847  26.395  0.00  0.00    +0.337 C 
ATOM     10  O   UNL     1       8.459  -3.827  27.063  0.00  0.00    -0.248 OA
BRANCH   9  11
ATOM     11  O   UNL     1       8.096  -6.055  26.898  0.00  0.00    -0.479 OA
ATOM     12  H   UNL     1       7.773  -6.610  26.150  0.00  0.00    +0.295 HD
ENDBRANCH   9  11
ENDBRANCH   8   9
BRANCH   8  13
ATOM     13  O   UNL     1      10.331  -4.977  24.883  0.00  0.00    -0.378 OA
ATOM     14  H   UNL     1      10.576  -5.297  23.991  0.00  0.00    +0.211 HD
ENDBRANCH   8  13
ENDBRANCH   1   8
TORSDOF 7
ENDMDL
MODEL 6
REMARK VINA RESULT:      -3.9      0.832      3.762
REMARK  Name = 
REMARK  7 active torsions:
REMARK  status: ('A' for Active; 'I' for Inactive)
REMARK    1  A    between atoms: O_1  and  C_2
REMARK    2  A    between atoms: C_2  and  C_4
REMARK    3  A    between atoms: C_2  and  C_10
REMARK    4  A    between atoms: C_4  and  O_6
REMARK    5  A    between atoms: C_4  and  C_7
REMARK    6  A    between atoms: C_7  and  O_8
REMARK    7  A    between atoms: C_10  and  O_11
REMARK                            x       y       z     vdW  Elec       q    Type
REMARK                         _______ _______ _______ _____ _____    ______ ____
ROOT
ATOM      1  C   UNL     1       9.201   0.180  22.404  0.00  0.00    +0.262 C 
ENDROOT
BRANCH   1   2
ATOM      2  O   UNL     1       7.999   0.303  23.188  0.00  0.00    -0.378 OA
ATOM      3  H   UNL     1       8.268   0.690  24.045  0.00  0.00    +0.211 HD
ENDBRANCH   1   2
BRANCH   1   4
ATOM      4  C   UNL     1       9.836  -1.188  22.609  0.00  0.00    +0.337 C 
ATOM      5  O   UNL     1      10.048  -1.690  23.701  0.00  0.00    -0.248 OA
BRANCH   4   6
ATOM      6  O   UNL     1      10.202  -1.751  21.430  0.00  0.00    -0.479 OA
ATOM      7  H   UNL     1      11.175  -1.921  21.458  0.00  0.00    +0.295 HD
ENDBRANCH   4   6
ENDBRANCH   1   4
BRANCH   1   8
ATOM      8  C   UNL     1      10.182   1.309  22.698  0.00  0.00    +0.262 C 
BRANCH   8   9
ATOM      9  C   UNL     1       9.919   1.960  24.054  0.00  0.00    +0.337 C 
ATOM     10  O   UNL     1       9.461   3.075  24.232  0.00  0.00    -0.248 OA
BRANCH   9  11
ATOM     11  O   UNL     1      10.260   1.136  25.081  0.00  0.00    -0.479 OA
ATOM     12  H   UNL     1      10.489   1.697  25.859  0.00  0.00    +0.295 HD
ENDBRANCH   9  11
ENDBRANCH   8   9
BRANCH   8  13
ATOM     13  O   UNL     1      10.019   2.335  21.682  0.00  0.00    -0.378 OA
ATOM     14  H   UNL     1       9.926   3.185  22.158  0.00  0.00    +0.211 HD
ENDBRANCH   8  13
ENDBRANCH   1   8
TORSDOF 7
ENDMDL
MODEL 7
REMARK VINA RESULT:      -3.9      1.192      3.642
REMARK  Name = 
REMARK  7 active torsions:
REMARK  status: ('A' for Active; 'I' for Inactive)
REMARK    1  A    between atoms: O_1  and  C_2
REMARK    2  A    between atoms: C_2  and  C_4
REMARK    3  A    between atoms: C_2  and  C_10
REMARK    4  A    between atoms: C_4  and  O_6
REMARK    5  A    between atoms: C_4  and  C_7
REMARK    6  A    between atoms: C_7  and  O_8
REMARK    7  A    between atoms: C_10  and  O_11
REMARK                            x       y       z     vdW  Elec       q    Type
REMARK                         _______ _______ _______ _____ _____    ______ ____
ROOT
ATOM      1  C   UNL     1      10.006  -0.381  22.343  0.00  0.00    +0.262 C 
ENDROOT
BRANCH   1   2
ATOM      2  O   UNL     1      10.217  -1.534  21.507  0.00  0.00    -0.378 OA
ATOM      3  H   UNL     1      10.185  -1.215  20.583  0.00  0.00    +0.211 HD
ENDBRANCH   1   2
BRANCH   1   4
ATOM      4  C   UNL     1      10.181  -0.745  23.811  0.00  0.00    +0.337 C 
ATOM      5  O   UNL     1      10.563   0.033  24.670  0.00  0.00    -0.248 OA
BRANCH   4   6
ATOM      6  O   UNL     1       9.927  -2.059  24.034  0.00  0.00    -0.479 OA
ATOM      7  H   UNL     1       9.325  -2.382  23.321  0.00  0.00    +0.295 HD
ENDBRANCH   4   6
ENDBRANCH   1   4
BRANCH   1   8
ATOM      8  C   UNL     1       8.652   0.265  22.078  0.00  0.00    +0.262 C 
BRANCH   8   9
ATOM      9  C   UNL     1       8.775   1.763  21.801  0.00  0.00    +0.337 C 
ATOM     10  O   UNL     1       7.855   2.563  21.791  0.00  0.00    -0.248 OA
BRANCH   9  11
ATOM     11  O   UNL     1      10.063   2.125  21.558  0.00  0.00    -0.479 OA
ATOM     12  H   UNL     1      10.494   2.316  22.423  0.00  0.00    +0.295 HD
ENDBRANCH   9  11
ENDBRANCH   8   9
BRANCH   8  13
ATOM     13  O   UNL     1       7.827   0.107  23.263  0.00  0.00    -0.378 OA
ATOM     14  H   UNL     1       7.456   0.990  23.464  0.00  0.00    +0.211 HD
ENDBRANCH   8  13
ENDBRANCH   1   8
TORSDOF 7
ENDMDL
MODEL 8
REMARK VINA RESULT:      -3.8      1.123      3.714
REMARK  Name = 
REMARK  7 active torsions:
REMARK  status: ('A' for Active; 'I' for Inactive)
REMARK    1  A    between atoms: O_1  and  C_2
REMARK    2  A    between atoms: C_2  and  C_4
REMARK    3  A    between atoms: C_2  and  C_10
REMARK    4  A    between atoms: C_4  and  O_6
REMARK    5  A    between atoms: C_4  and  C_7
REMARK    6  A    between atoms: C_7  and  O_8
REMARK    7  A    between atoms: C_10  and  O_11
REMARK                            x       y       z     vdW  Elec       q    Type
REMARK                         _______ _______ _______ _____ _____    ______ ____
ROOT
ATOM      1  C   UNL     1       8.584  -0.087  22.538  0.00  0.00    +0.262 C 
ENDROOT
BRANCH   1   2
ATOM      2  O   UNL     1       7.231  -0.201  23.015  0.00  0.00    -0.378 OA
ATOM      3  H   UNL     1       6.657   0.154  22.306  0.00  0.00    +0.211 HD
ENDBRANCH   1   2
BRANCH   1   4
ATOM      4  C   UNL     1       9.184  -1.465  22.295  0.00  0.00    +0.337 C 
ATOM      5  O   UNL     1       8.855  -2.472  22.901  0.00  0.00    -0.248 OA
BRANCH   4   6
ATOM      6  O   UNL     1      10.180  -1.422  21.376  0.00  0.00    -0.479 OA
ATOM      7  H   UNL     1      10.196  -0.517  20.980  0.00  0.00    +0.295 HD
ENDBRANCH   4   6
ENDBRANCH   1   4
BRANCH   1   8
ATOM      8  C   UNL     1       9.444   0.748  23.479  0.00  0.00    +0.262 C 
BRANCH   8   9
ATOM      9  C   UNL     1      10.098   1.929  22.764  0.00  0.00    +0.337 C 
ATOM     10  O   UNL     1      10.729   2.825  23.299  0.00  0.00    -0.248 OA
BRANCH   9  11
ATOM     11  O   UNL     1       9.896   1.877  21.420  0.00  0.00    -0.479 OA
ATOM     12  H   UNL     1       9.388   1.057  21.219  0.00  0.00    +0.295 HD
ENDBRANCH   9  11
ENDBRANCH   8   9
BRANCH   8  13
ATOM     13  O   UNL     1      10.510  -0.094  23.995  0.00  0.00    -0.378 OA
ATOM     14  H   UNL     1      11.344   0.252  23.619  0.00  0.00    +0.211 HD
ENDBRANCH   8  13
ENDBRANCH   1   8
TORSDOF 7
ENDMDL
MODEL 9
REMARK VINA RESULT:      -3.8      1.370      2.198
REMARK  Name = 
REMARK  7 active torsions:
REMARK  status: ('A' for Active; 'I' for Inactive)
REMARK    1  A    between atoms: O_1  and  C_2
REMARK    2  A    between atoms: C_2  and  C_4
REMARK    3  A    between atoms: C_2  and  C_10
REMARK    4  A    between atoms: C_4  and  O_6
REMARK    5  A    between atoms: C_4  and  C_7
REMARK    6  A    between atoms: C_7  and  O_8
REMARK    7  A    between atoms: C_10  and  O_11
REMARK                            x       y       z     vdW  Elec       q    Type
REMARK                         _______ _______ _______ _____ _____    ______ ____
ROOT
ATOM      1  C   UNL     1       9.016  -0.009  21.881  0.00  0.00    +0.262 C 
ENDROOT
BRANCH   1   2
ATOM      2  O   UNL     1       9.699  -0.898  20.978  0.00  0.00    -0.378 OA
ATOM      3  H   UNL     1       9.222  -1.752  21.017  0.00  0.00    +0.211 HD
ENDBRANCH   1   2
BRANCH   1   4
ATOM      4  C   UNL     1       9.957   1.082  22.371  0.00  0.00    +0.337 C 
ATOM      5  O   UNL     1      10.540   1.055  23.444  0.00  0.00    -0.248 OA
BRANCH   4   6
ATOM      6  O   UNL     1      10.013   2.122  21.502  0.00  0.00    -0.479 OA
ATOM      7  H   UNL     1      10.516   1.830  20.704  0.00  0.00    +0.295 HD
ENDBRANCH   4   6
ENDBRANCH   1   4
BRANCH   1   8
ATOM      8  C   UNL     1       8.375  -0.766  23.038  0.00  0.00    +0.262 C 
BRANCH   8   9
ATOM      9  C   UNL     1       8.755  -2.245  23.037  0.00  0.00    +0.337 C 
ATOM     10  O   UNL     1       8.076  -3.155  22.593  0.00  0.00    -0.248 OA
BRANCH   9  11
ATOM     11  O   UNL     1       9.975  -2.451  23.603  0.00  0.00    -0.479 OA
ATOM     12  H   UNL     1      10.015  -1.932  24.440  0.00  0.00    +0.295 HD
ENDBRANCH   9  11
ENDBRANCH   8   9
BRANCH   8  13
ATOM     13  O   UNL     1       6.932  -0.686  22.897  0.00  0.00    -0.378 OA
ATOM     14  H   UNL     1       6.550  -1.154  23.666  0.00  0.00    +0.211 HD
ENDBRANCH   8  13
ENDBRANCH   1   8
TORSDOF 7
ENDMDL
