MODEL 1
REMARK VINA RESULT:      -4.6      0.000      0.000
REMARK  Name = 
REMARK  31 active torsions:
REMARK  status: ('A' for Active; 'I' for Inactive)
REMARK    1  A    between atoms: C_1  and  C_2
REMARK    2  A    between atoms: C_2  and  C_3
REMARK    3  A    between atoms: C_3  and  C_4
REMARK    4  A    between atoms: C_4  and  C_5
REMARK    5  A    between atoms: C_5  and  C_6
REMARK    6  A    between atoms: C_6  and  C_7
REMARK    7  A    between atoms: C_7  and  C_8
REMARK    8  A    between atoms: C_8  and  C_9
REMARK    9  A    between atoms: C_9  and  C_10
REMARK   10  A    between atoms: C_10  and  C_11
REMARK   11  A    between atoms: C_11  and  C_12
REMARK   12  A    between atoms: C_12  and  C_13
REMARK   13  A    between atoms: C_13  and  C_14
REMARK   14  A    between atoms: C_14  and  C_15
REMARK   15  A    between atoms: C_15  and  C_16
REMARK   16  A    between atoms: C_16  and  C_17
REMARK   17  A    between atoms: C_17  and  C_18
REMARK   18  A    between atoms: C_18  and  O_19
REMARK   19  A    between atoms: O_19  and  C_20
REMARK   20  A    between atoms: C_20  and  C_21
REMARK   21  A    between atoms: C_21  and  C_23
REMARK   22  A    between atoms: C_21  and  N_33
REMARK   23  A    between atoms: C_23  and  O_24
REMARK   24  A    between atoms: O_24  and  P_25
REMARK   25  A    between atoms: P_25  and  O_26
REMARK   26  A    between atoms: P_25  and  O_28
REMARK   27  A    between atoms: O_28  and  C_29
REMARK   28  A    between atoms: C_29  and  C_30
REMARK   29  A    between atoms: C_30  and  S_31
REMARK   30  A    between atoms: S_31  and  C_32
REMARK   31  A    between atoms: C_34  and  C_35
REMARK                            x       y       z     vdW  Elec       q    Type
REMARK                         _______ _______ _______ _____ _____    ______ ____
ROOT
ATOM      1  O   UNL     1       5.466  -2.709  25.731  0.00  0.00    -0.378 OA
ENDROOT
BRANCH   1   2
ATOM      2  C   UNL     1       6.487  -3.009  26.681  0.00  0.00    +0.184 C 
BRANCH   2   3
ATOM      3  C   UNL     1       7.425  -4.109  26.135  0.00  0.00    +0.125 C 
BRANCH   3   4
ATOM      4  N   UNL     1       6.930  -4.616  24.849  0.00  0.00    -0.308 N 
ATOM      5  H   UNL     1       5.931  -4.750  24.749  0.00  0.00    +0.149 HD
ATOM      6  C   UNL     1       7.783  -5.151  23.909  0.00  0.00    +0.210 C 
ATOM      7  O   UNL     1       9.001  -5.200  24.046  0.00  0.00    -0.276 OA
ATOM      8  C   UNL     1       7.107  -5.607  22.648  0.00  0.00    +0.109 C 
ENDBRANCH   3   4
BRANCH   3   9
ATOM      9  C   UNL     1       7.560  -5.243  27.168  0.00  0.00    +0.197 C 
BRANCH   9  10
ATOM     10  O   UNL     1       6.758  -5.006  28.329  0.00  0.00    -0.285 OA
BRANCH  10  11
ATOM     11  P   UNL     1       5.727  -6.239  28.689  0.00  0.00    +0.475 P 
ATOM     12  O   UNL     1       6.550  -7.484  29.018  0.00  0.00    -0.227 OA
BRANCH  11  13
ATOM     13  O   UNL     1       5.821  -5.824  30.366  0.00  0.00    -0.302 OA
ATOM     14  H   UNL     1       5.758  -4.845  30.334  0.00  0.00    +0.222 HD
ENDBRANCH  11  13
BRANCH  11  15
ATOM     15  O   UNL     1       5.633  -6.655  27.012  0.00  0.00    -0.286 OA
BRANCH  15  16
ATOM     16  C   UNL     1       4.311  -6.524  26.487  0.00  0.00    +0.183 C 
BRANCH  16  17
ATOM     17  C   UNL     1       4.196  -7.035  25.045  0.00  0.00    +0.097 C 
BRANCH  17  18
ATOM     18  S   UNL     1       3.353  -5.813  23.983  0.00  0.00    -0.162 S 
ATOM     19  C   UNL     1       2.133  -6.896  23.204  0.00  0.00    +0.084 C 
ENDBRANCH  17  18
ENDBRANCH  16  17
ENDBRANCH  15  16
ENDBRANCH  11  15
ENDBRANCH  10  11
ENDBRANCH   9  10
ENDBRANCH   3   9
ENDBRANCH   2   3
ENDBRANCH   1   2
BRANCH   1  20
ATOM     20  C   UNL     1       4.800  -1.482  26.032  0.00  0.00    +0.160 C 
BRANCH  20  21
ATOM     21  C   UNL     1       5.324  -0.973  27.368  0.00  0.00    +0.028 C 
BRANCH  21  22
ATOM     22  C   UNL     1       5.728   0.496  27.267  0.00  0.00    +0.002 C 
BRANCH  22  23
ATOM     23  C   UNL     1       7.219   0.649  27.000  0.00  0.00    +0.000 C 
BRANCH  23  24
ATOM     24  C   UNL     1       7.439   1.519  25.768  0.00  0.00    +0.000 C 
BRANCH  24  25
ATOM     25  C   UNL     1       6.128   2.124  25.287  0.00  0.00    +0.000 C 
BRANCH  25  26
ATOM     26  C   UNL     1       5.997   1.966  23.779  0.00  0.00    -0.000 C 
BRANCH  26  27
ATOM     27  C   UNL     1       7.090   2.748  23.065  0.00  0.00    -0.000 C 
BRANCH  27  28
ATOM     28  C   UNL     1       7.645   1.942  21.899  0.00  0.00    -0.000 C 
BRANCH  28  29
ATOM     29  C   UNL     1       9.167   1.917  21.949  0.00  0.00    -0.000 C 
BRANCH  29  30
ATOM     30  C   UNL     1       9.678   2.788  23.088  0.00  0.00    -0.000 C 
BRANCH  30  31
ATOM     31  C   UNL     1      10.674   2.018  23.943  0.00  0.00    -0.000 C 
BRANCH  31  32
ATOM     32  C   UNL     1      10.626   0.533  23.617  0.00  0.00    -0.000 C 
BRANCH  32  33
ATOM     33  C   UNL     1      10.179  -0.271  24.830  0.00  0.00    -0.000 C 
BRANCH  33  34
ATOM     34  C   UNL     1       9.385  -1.502  24.403  0.00  0.00    -0.000 C 
BRANCH  34  35
ATOM     35  C   UNL     1       9.541  -1.757  22.907  0.00  0.00    -0.000 C 
BRANCH  35  37
ATOM     36  C   UNL     1       7.059  -1.400  23.021  0.00  0.00    +0.004 C 
ATOM     37  C   UNL     1       8.194  -2.059  22.258  0.00  0.00    -0.003 C 
ENDBRANCH  35  37
ENDBRANCH  34  35
ENDBRANCH  33  34
ENDBRANCH  32  33
ENDBRANCH  31  32
ENDBRANCH  30  31
ENDBRANCH  29  30
ENDBRANCH  28  29
ENDBRANCH  27  28
ENDBRANCH  26  27
ENDBRANCH  25  26
ENDBRANCH  24  25
ENDBRANCH  23  24
ENDBRANCH  22  23
ENDBRANCH  21  22
ENDBRANCH  20  21
ENDBRANCH   1  20
TORSDOF 28
ENDMDL
MODEL 2
REMARK VINA RESULT:      -4.5      2.113      4.293
REMARK  Name = 
REMARK  31 active torsions:
REMARK  status: ('A' for Active; 'I' for Inactive)
REMARK    1  A    between atoms: C_1  and  C_2
REMARK    2  A    between atoms: C_2  and  C_3
REMARK    3  A    between atoms: C_3  and  C_4
REMARK    4  A    between atoms: C_4  and  C_5
REMARK    5  A    between atoms: C_5  and  C_6
REMARK    6  A    between atoms: C_6  and  C_7
REMARK    7  A    between atoms: C_7  and  C_8
REMARK    8  A    between atoms: C_8  and  C_9
REMARK    9  A    between atoms: C_9  and  C_10
REMARK   10  A    between atoms: C_10  and  C_11
REMARK   11  A    between atoms: C_11  and  C_12
REMARK   12  A    between atoms: C_12  and  C_13
REMARK   13  A    between atoms: C_13  and  C_14
REMARK   14  A    between atoms: C_14  and  C_15
REMARK   15  A    between atoms: C_15  and  C_16
REMARK   16  A    between atoms: C_16  and  C_17
REMARK   17  A    between atoms: C_17  and  C_18
REMARK   18  A    between atoms: C_18  and  O_19
REMARK   19  A    between atoms: O_19  and  C_20
REMARK   20  A    between atoms: C_20  and  C_21
REMARK   21  A    between atoms: C_21  and  C_23
REMARK   22  A    between atoms: C_21  and  N_33
REMARK   23  A    between atoms: C_23  and  O_24
REMARK   24  A    between atoms: O_24  and  P_25
REMARK   25  A    between atoms: P_25  and  O_26
REMARK   26  A    between atoms: P_25  and  O_28
REMARK   27  A    between atoms: O_28  and  C_29
REMARK   28  A    between atoms: C_29  and  C_30
REMARK   29  A    between atoms: C_30  and  S_31
REMARK   30  A    between atoms: S_31  and  C_32
REMARK   31  A    between atoms: C_34  and  C_35
REMARK                            x       y       z     vdW  Elec       q    Type
REMARK                         _______ _______ _______ _____ _____    ______ ____
ROOT
ATOM      1  O   UNL     1      10.150  -3.059  23.463  0.00  0.00    -0.378 OA
ENDROOT
BRANCH   1   2
ATOM      2  C   UNL     1       9.538  -3.485  24.678  0.00  0.00    +0.184 C 
BRANCH   2   3
ATOM      3  C   UNL     1       8.383  -4.468  24.386  0.00  0.00    +0.125 C 
BRANCH   3   4
ATOM      4  N   UNL     1       7.218  -3.751  23.853  0.00  0.00    -0.308 N 
ATOM      5  H   UNL     1       6.672  -3.193  24.499  0.00  0.00    +0.149 HD
ATOM      6  C   UNL     1       6.713  -4.025  22.602  0.00  0.00    +0.210 C 
ATOM      7  O   UNL     1       7.213  -4.837  21.829  0.00  0.00    -0.276 OA
ATOM      8  C   UNL     1       5.530  -3.186  22.213  0.00  0.00    +0.109 C 
ENDBRANCH   3   4
BRANCH   3   9
ATOM      9  C   UNL     1       8.021  -5.248  25.663  0.00  0.00    +0.197 C 
BRANCH   9  10
ATOM     10  O   UNL     1       6.643  -5.636  25.680  0.00  0.00    -0.285 OA
BRANCH  10  11
ATOM     11  P   UNL     1       5.971  -5.639  27.184  0.00  0.00    +0.475 P 
ATOM     12  O   UNL     1       5.599  -7.076  27.550  0.00  0.00    -0.227 OA
BRANCH  11  13
ATOM     13  O   UNL     1       7.527  -5.944  27.875  0.00  0.00    -0.302 OA
ATOM     14  H   UNL     1       7.309  -6.585  28.585  0.00  0.00    +0.222 HD
ENDBRANCH  11  13
BRANCH  11  15
ATOM     15  O   UNL     1       4.415  -5.335  26.492  0.00  0.00    -0.286 OA
BRANCH  15  16
ATOM     16  C   UNL     1       4.290  -4.005  25.986  0.00  0.00    +0.183 C 
BRANCH  16  17
ATOM     17  C   UNL     1       3.127  -3.236  26.630  0.00  0.00    +0.097 C 
BRANCH  17  18
ATOM     18  S   UNL     1       3.692  -2.299  28.090  0.00  0.00    -0.162 S 
ATOM     19  C   UNL     1       5.228  -1.617  27.423  0.00  0.00    +0.084 C 
ENDBRANCH  17  18
ENDBRANCH  16  17
ENDBRANCH  15  16
ENDBRANCH  11  15
ENDBRANCH  10  11
ENDBRANCH   9  10
ENDBRANCH   3   9
ENDBRANCH   2   3
ENDBRANCH   1   2
BRANCH   1  20
ATOM     20  C   UNL     1       9.990  -1.657  23.246  0.00  0.00    +0.160 C 
BRANCH  20  21
ATOM     21  C   UNL     1       9.319  -1.459  21.895  0.00  0.00    +0.028 C 
BRANCH  21  22
ATOM     22  C   UNL     1       9.427  -0.003  21.445  0.00  0.00    +0.002 C 
BRANCH  22  23
ATOM     23  C   UNL     1      10.353   0.795  22.352  0.00  0.00    +0.000 C 
BRANCH  23  24
ATOM     24  C   UNL     1       9.923   2.258  22.374  0.00  0.00    +0.000 C 
BRANCH  24  25
ATOM     25  C   UNL     1      10.529   2.986  23.565  0.00  0.00    +0.000 C 
BRANCH  25  26
ATOM     26  C   UNL     1       9.545   4.010  24.112  0.00  0.00    -0.000 C 
BRANCH  26  27
ATOM     27  C   UNL     1      10.152   5.406  24.071  0.00  0.00    -0.000 C 
BRANCH  27  28
ATOM     28  C   UNL     1       9.260   6.351  23.277  0.00  0.00    -0.000 C 
BRANCH  28  29
ATOM     29  C   UNL     1       7.793   6.037  23.537  0.00  0.00    -0.000 C 
BRANCH  29  30
ATOM     30  C   UNL     1       7.091   5.655  22.242  0.00  0.00    -0.000 C 
BRANCH  30  31
ATOM     31  C   UNL     1       5.955   4.681  22.518  0.00  0.00    -0.000 C 
BRANCH  31  32
ATOM     32  C   UNL     1       6.408   3.248  22.282  0.00  0.00    -0.000 C 
BRANCH  32  33
ATOM     33  C   UNL     1       6.278   2.424  23.556  0.00  0.00    -0.000 C 
BRANCH  33  34
ATOM     34  C   UNL     1       6.612   0.959  23.292  0.00  0.00    -0.000 C 
BRANCH  34  35
ATOM     35  C   UNL     1       6.825   0.206  24.601  0.00  0.00    -0.000 C 
BRANCH  35  37
ATOM     36  C   UNL     1       8.557  -0.314  26.343  0.00  0.00    +0.004 C 
ATOM     37  C   UNL     1       8.077   0.700  25.320  0.00  0.00    -0.003 C 
ENDBRANCH  35  37
ENDBRANCH  34  35
ENDBRANCH  33  34
ENDBRANCH  32  33
ENDBRANCH  31  32
ENDBRANCH  30  31
ENDBRANCH  29  30
ENDBRANCH  28  29
ENDBRANCH  27  28
ENDBRANCH  26  27
ENDBRANCH  25  26
ENDBRANCH  24  25
ENDBRANCH  23  24
ENDBRANCH  22  23
ENDBRANCH  21  22
ENDBRANCH  20  21
ENDBRANCH   1  20
TORSDOF 28
ENDMDL
MODEL 3
REMARK VINA RESULT:      -4.4      2.530      4.967
REMARK  Name = 
REMARK  31 active torsions:
REMARK  status: ('A' for Active; 'I' for Inactive)
REMARK    1  A    between atoms: C_1  and  C_2
REMARK    2  A    between atoms: C_2  and  C_3
REMARK    3  A    between atoms: C_3  and  C_4
REMARK    4  A    between atoms: C_4  and  C_5
REMARK    5  A    between atoms: C_5  and  C_6
REMARK    6  A    between atoms: C_6  and  C_7
REMARK    7  A    between atoms: C_7  and  C_8
REMARK    8  A    between atoms: C_8  and  C_9
REMARK    9  A    between atoms: C_9  and  C_10
REMARK   10  A    between atoms: C_10  and  C_11
REMARK   11  A    between atoms: C_11  and  C_12
REMARK   12  A    between atoms: C_12  and  C_13
REMARK   13  A    between atoms: C_13  and  C_14
REMARK   14  A    between atoms: C_14  and  C_15
REMARK   15  A    between atoms: C_15  and  C_16
REMARK   16  A    between atoms: C_16  and  C_17
REMARK   17  A    between atoms: C_17  and  C_18
REMARK   18  A    between atoms: C_18  and  O_19
REMARK   19  A    between atoms: O_19  and  C_20
REMARK   20  A    between atoms: C_20  and  C_21
REMARK   21  A    between atoms: C_21  and  C_23
REMARK   22  A    between atoms: C_21  and  N_33
REMARK   23  A    between atoms: C_23  and  O_24
REMARK   24  A    between atoms: O_24  and  P_25
REMARK   25  A    between atoms: P_25  and  O_26
REMARK   26  A    between atoms: P_25  and  O_28
REMARK   27  A    between atoms: O_28  and  C_29
REMARK   28  A    between atoms: C_29  and  C_30
REMARK   29  A    between atoms: C_30  and  S_31
REMARK   30  A    between atoms: S_31  and  C_32
REMARK   31  A    between atoms: C_34  and  C_35
REMARK                            x       y       z     vdW  Elec       q    Type
REMARK                         _______ _______ _______ _____ _____    ______ ____
ROOT
ATOM      1  O   UNL     1      10.188  -2.804  23.434  0.00  0.00    -0.378 OA
ENDROOT
BRANCH   1   2
ATOM      2  C   UNL     1       9.494  -3.157  24.628  0.00  0.00    +0.184 C 
BRANCH   2   3
ATOM      3  C   UNL     1       8.754  -4.502  24.444  0.00  0.00    +0.125 C 
BRANCH   3   4
ATOM      4  N   UNL     1       7.412  -4.279  23.893  0.00  0.00    -0.308 N 
ATOM      5  H   UNL     1       6.786  -3.670  24.407  0.00  0.00    +0.149 HD
ATOM      6  C   UNL     1       6.910  -5.063  22.878  0.00  0.00    +0.210 C 
ATOM      7  O   UNL     1       7.547  -5.958  22.331  0.00  0.00    -0.276 OA
ATOM      8  C   UNL     1       5.528  -4.685  22.428  0.00  0.00    +0.109 C 
ENDBRANCH   3   4
BRANCH   3   9
ATOM      9  C   UNL     1       8.689  -5.253  25.786  0.00  0.00    +0.197 C 
BRANCH   9  10
ATOM     10  O   UNL     1       8.019  -4.488  26.794  0.00  0.00    -0.285 OA
BRANCH  10  11
ATOM     11  P   UNL     1       6.566  -5.116  27.251  0.00  0.00    +0.475 P 
ATOM     12  O   UNL     1       6.178  -6.217  26.264  0.00  0.00    -0.227 OA
BRANCH  11  13
ATOM     13  O   UNL     1       7.385  -6.331  28.171  0.00  0.00    -0.302 OA
ATOM     14  H   UNL     1       6.766  -7.089  28.098  0.00  0.00    +0.222 HD
ENDBRANCH  11  13
BRANCH  11  15
ATOM     15  O   UNL     1       5.748  -3.902  26.329  0.00  0.00    -0.286 OA
BRANCH  15  16
ATOM     16  C   UNL     1       5.913  -2.593  26.878  0.00  0.00    +0.183 C 
BRANCH  16  17
ATOM     17  C   UNL     1       5.479  -1.487  25.906  0.00  0.00    +0.097 C 
BRANCH  17  18
ATOM     18  S   UNL     1       6.917  -0.531  25.318  0.00  0.00    -0.162 S 
ATOM     19  C   UNL     1       7.923  -0.562  26.820  0.00  0.00    +0.084 C 
ENDBRANCH  17  18
ENDBRANCH  16  17
ENDBRANCH  15  16
ENDBRANCH  11  15
ENDBRANCH  10  11
ENDBRANCH   9  10
ENDBRANCH   3   9
ENDBRANCH   2   3
ENDBRANCH   1   2
BRANCH   1  20
ATOM     20  C   UNL     1      10.166  -1.395  23.200  0.00  0.00    +0.160 C 
BRANCH  20  21
ATOM     21  C   UNL     1       9.508  -1.148  21.850  0.00  0.00    +0.028 C 
BRANCH  21  22
ATOM     22  C   UNL     1       9.489   0.344  21.522  0.00  0.00    +0.002 C 
BRANCH  22  23
ATOM     23  C   UNL     1       9.822   1.189  22.743  0.00  0.00    +0.000 C 
BRANCH  23  24
ATOM     24  C   UNL     1      10.485   2.491  22.307  0.00  0.00    +0.000 C 
BRANCH  24  25
ATOM     25  C   UNL     1      10.742   3.398  23.502  0.00  0.00    +0.000 C 
BRANCH  25  26
ATOM     26  C   UNL     1      12.030   4.184  23.298  0.00  0.00    -0.000 C 
BRANCH  26  27
ATOM     27  C   UNL     1      11.757   5.680  23.371  0.00  0.00    -0.000 C 
BRANCH  27  28
ATOM     28  C   UNL     1      10.346   5.939  23.880  0.00  0.00    -0.000 C 
BRANCH  28  29
ATOM     29  C   UNL     1      10.381   6.854  25.096  0.00  0.00    -0.000 C 
BRANCH  29  30
ATOM     30  C   UNL     1       9.333   6.429  26.114  0.00  0.00    -0.000 C 
BRANCH  30  31
ATOM     31  C   UNL     1       7.952   6.910  25.691  0.00  0.00    -0.000 C 
BRANCH  31  32
ATOM     32  C   UNL     1       6.955   5.761  25.709  0.00  0.00    -0.000 C 
BRANCH  32  33
ATOM     33  C   UNL     1       7.652   4.446  26.029  0.00  0.00    -0.000 C 
BRANCH  33  34
ATOM     34  C   UNL     1       7.359   3.401  24.957  0.00  0.00    -0.000 C 
BRANCH  34  35
ATOM     35  C   UNL     1       7.172   4.060  23.594  0.00  0.00    -0.000 C 
BRANCH  35  37
ATOM     36  C   UNL     1       6.300   2.005  22.443  0.00  0.00    +0.004 C 
ATOM     37  C   UNL     1       5.998   3.439  22.841  0.00  0.00    -0.003 C 
ENDBRANCH  35  37
ENDBRANCH  34  35
ENDBRANCH  33  34
ENDBRANCH  32  33
ENDBRANCH  31  32
ENDBRANCH  30  31
ENDBRANCH  29  30
ENDBRANCH  28  29
ENDBRANCH  27  28
ENDBRANCH  26  27
ENDBRANCH  25  26
ENDBRANCH  24  25
ENDBRANCH  23  24
ENDBRANCH  22  23
ENDBRANCH  21  22
ENDBRANCH  20  21
ENDBRANCH   1  20
TORSDOF 28
ENDMDL
MODEL 4
REMARK VINA RESULT:      -4.4      1.300      3.118
REMARK  Name = 
REMARK  31 active torsions:
REMARK  status: ('A' for Active; 'I' for Inactive)
REMARK    1  A    between atoms: C_1  and  C_2
REMARK    2  A    between atoms: C_2  and  C_3
REMARK    3  A    between atoms: C_3  and  C_4
REMARK    4  A    between atoms: C_4  and  C_5
REMARK    5  A    between atoms: C_5  and  C_6
REMARK    6  A    between atoms: C_6  and  C_7
REMARK    7  A    between atoms: C_7  and  C_8
REMARK    8  A    between atoms: C_8  and  C_9
REMARK    9  A    between atoms: C_9  and  C_10
REMARK   10  A    between atoms: C_10  and  C_11
REMARK   11  A    between atoms: C_11  and  C_12
REMARK   12  A    between atoms: C_12  and  C_13
REMARK   13  A    between atoms: C_13  and  C_14
REMARK   14  A    between atoms: C_14  and  C_15
REMARK   15  A    between atoms: C_15  and  C_16
REMARK   16  A    between atoms: C_16  and  C_17
REMARK   17  A    between atoms: C_17  and  C_18
REMARK   18  A    between atoms: C_18  and  O_19
REMARK   19  A    between atoms: O_19  and  C_20
REMARK   20  A    between atoms: C_20  and  C_21
REMARK   21  A    between atoms: C_21  and  C_23
REMARK   22  A    between atoms: C_21  and  N_33
REMARK   23  A    between atoms: C_23  and  O_24
REMARK   24  A    between atoms: O_24  and  P_25
REMARK   25  A    between atoms: P_25  and  O_26
REMARK   26  A    between atoms: P_25  and  O_28
REMARK   27  A    between atoms: O_28  and  C_29
REMARK   28  A    between atoms: C_29  and  C_30
REMARK   29  A    between atoms: C_30  and  S_31
REMARK   30  A    between atoms: S_31  and  C_32
REMARK   31  A    between atoms: C_34  and  C_35
REMARK                            x       y       z     vdW  Elec       q    Type
REMARK                         _______ _______ _______ _____ _____    ______ ____
ROOT
ATOM      1  O   UNL     1       6.526  -1.809  26.031  0.00  0.00    -0.378 OA
ENDROOT
BRANCH   1   2
ATOM      2  C   UNL     1       6.185  -3.113  26.498  0.00  0.00    +0.184 C 
BRANCH   2   3
ATOM      3  C   UNL     1       7.237  -4.145  26.032  0.00  0.00    +0.125 C 
BRANCH   3   4
ATOM      4  N   UNL     1       6.920  -4.629  24.682  0.00  0.00    -0.308 N 
ATOM      5  H   UNL     1       5.944  -4.758  24.445  0.00  0.00    +0.149 HD
ATOM      6  C   UNL     1       7.892  -5.148  23.857  0.00  0.00    +0.210 C 
ATOM      7  O   UNL     1       9.081  -5.204  24.156  0.00  0.00    -0.276 OA
ATOM      8  C   UNL     1       7.393  -5.581  22.508  0.00  0.00    +0.109 C 
ENDBRANCH   3   4
BRANCH   3   9
ATOM      9  C   UNL     1       7.312  -5.308  27.038  0.00  0.00    +0.197 C 
BRANCH   9  10
ATOM     10  O   UNL     1       6.627  -5.005  28.258  0.00  0.00    -0.285 OA
BRANCH  10  11
ATOM     11  P   UNL     1       5.759  -6.266  28.865  0.00  0.00    +0.475 P 
ATOM     12  O   UNL     1       6.716  -7.420  29.161  0.00  0.00    -0.227 OA
BRANCH  11  13
ATOM     13  O   UNL     1       6.065  -5.698  30.471  0.00  0.00    -0.302 OA
ATOM     14  H   UNL     1       6.960  -5.307  30.378  0.00  0.00    +0.222 HD
ENDBRANCH  11  13
BRANCH  11  15
ATOM     15  O   UNL     1       5.455  -6.833  27.260  0.00  0.00    -0.286 OA
BRANCH  15  16
ATOM     16  C   UNL     1       4.059  -6.929  26.967  0.00  0.00    +0.183 C 
BRANCH  16  17
ATOM     17  C   UNL     1       3.555  -5.759  26.110  0.00  0.00    +0.097 C 
BRANCH  17  18
ATOM     18  S   UNL     1       2.165  -6.276  25.048  0.00  0.00    -0.162 S 
ATOM     19  C   UNL     1       2.531  -8.043  24.929  0.00  0.00    +0.084 C 
ENDBRANCH  17  18
ENDBRANCH  16  17
ENDBRANCH  15  16
ENDBRANCH  11  15
ENDBRANCH  10  11
ENDBRANCH   9  10
ENDBRANCH   3   9
ENDBRANCH   2   3
ENDBRANCH   1   2
BRANCH   1  20
ATOM     20  C   UNL     1       7.087  -1.001  27.066  0.00  0.00    +0.160 C 
BRANCH  20  21
ATOM     21  C   UNL     1       7.460   0.347  26.465  0.00  0.00    +0.028 C 
BRANCH  21  22
ATOM     22  C   UNL     1       8.164   0.165  25.122  0.00  0.00    +0.002 C 
BRANCH  22  23
ATOM     23  C   UNL     1       9.606  -0.289  25.303  0.00  0.00    +0.000 C 
BRANCH  23  24
ATOM     24  C   UNL     1      10.002  -1.223  24.165  0.00  0.00    +0.000 C 
BRANCH  24  25
ATOM     25  C   UNL     1       8.786  -1.630  23.346  0.00  0.00    +0.000 C 
BRANCH  25  26
ATOM     26  C   UNL     1       9.073  -1.466  21.861  0.00  0.00    -0.000 C 
BRANCH  26  27
ATOM     27  C   UNL     1       9.666  -0.092  21.582  0.00  0.00    -0.000 C 
BRANCH  27  28
ATOM     28  C   UNL     1       8.562   0.916  21.294  0.00  0.00    -0.000 C 
BRANCH  28  29
ATOM     29  C   UNL     1       8.829   2.220  22.033  0.00  0.00    -0.000 C 
BRANCH  29  30
ATOM     30  C   UNL     1      10.250   2.243  22.578  0.00  0.00    -0.000 C 
BRANCH  30  31
ATOM     31  C   UNL     1      10.305   3.014  23.890  0.00  0.00    -0.000 C 
BRANCH  31  32
ATOM     32  C   UNL     1       9.928   4.472  23.671  0.00  0.00    -0.000 C 
BRANCH  32  33
ATOM     33  C   UNL     1       8.998   4.959  24.773  0.00  0.00    -0.000 C 
BRANCH  33  34
ATOM     34  C   UNL     1       8.165   3.808  25.330  0.00  0.00    -0.000 C 
BRANCH  34  35
ATOM     35  C   UNL     1       6.694   3.978  24.968  0.00  0.00    -0.000 C 
BRANCH  35  37
ATOM     36  C   UNL     1       5.408   4.153  22.819  0.00  0.00    +0.004 C 
ATOM     37  C   UNL     1       6.535   4.735  23.653  0.00  0.00    -0.003 C 
ENDBRANCH  35  37
ENDBRANCH  34  35
ENDBRANCH  33  34
ENDBRANCH  32  33
ENDBRANCH  31  32
ENDBRANCH  30  31
ENDBRANCH  29  30
ENDBRANCH  28  29
ENDBRANCH  27  28
ENDBRANCH  26  27
ENDBRANCH  25  26
ENDBRANCH  24  25
ENDBRANCH  23  24
ENDBRANCH  22  23
ENDBRANCH  21  22
ENDBRANCH  20  21
ENDBRANCH   1  20
TORSDOF 28
ENDMDL
MODEL 5
REMARK VINA RESULT:      -4.4      1.730      4.161
REMARK  Name = 
REMARK  31 active torsions:
REMARK  status: ('A' for Active; 'I' for Inactive)
REMARK    1  A    between atoms: C_1  and  C_2
REMARK    2  A    between atoms: C_2  and  C_3
REMARK    3  A    between atoms: C_3  and  C_4
REMARK    4  A    between atoms: C_4  and  C_5
REMARK    5  A    between atoms: C_5  and  C_6
REMARK    6  A    between atoms: C_6  and  C_7
REMARK    7  A    between atoms: C_7  and  C_8
REMARK    8  A    between atoms: C_8  and  C_9
REMARK    9  A    between atoms: C_9  and  C_10
REMARK   10  A    between atoms: C_10  and  C_11
REMARK   11  A    between atoms: C_11  and  C_12
REMARK   12  A    between atoms: C_12  and  C_13
REMARK   13  A    between atoms: C_13  and  C_14
REMARK   14  A    between atoms: C_14  and  C_15
REMARK   15  A    between atoms: C_15  and  C_16
REMARK   16  A    between atoms: C_16  and  C_17
REMARK   17  A    between atoms: C_17  and  C_18
REMARK   18  A    between atoms: C_18  and  O_19
REMARK   19  A    between atoms: O_19  and  C_20
REMARK   20  A    between atoms: C_20  and  C_21
REMARK   21  A    between atoms: C_21  and  C_23
REMARK   22  A    between atoms: C_21  and  N_33
REMARK   23  A    between atoms: C_23  and  O_24
REMARK   24  A    between atoms: O_24  and  P_25
REMARK   25  A    between atoms: P_25  and  O_26
REMARK   26  A    between atoms: P_25  and  O_28
REMARK   27  A    between atoms: O_28  and  C_29
REMARK   28  A    between atoms: C_29  and  C_30
REMARK   29  A    between atoms: C_30  and  S_31
REMARK   30  A    between atoms: S_31  and  C_32
REMARK   31  A    between atoms: C_34  and  C_35
REMARK                            x       y       z     vdW  Elec       q    Type
REMARK                         _______ _______ _______ _____ _____    ______ ____
ROOT
ATOM      1  O   UNL     1       9.527  -3.194  24.150  0.00  0.00    -0.378 OA
ENDROOT
BRANCH   1   2
ATOM      2  C   UNL     1       8.560  -3.097  25.193  0.00  0.00    +0.184 C 
BRANCH   2   3
ATOM      3  C   UNL     1       7.905  -4.473  25.452  0.00  0.00    +0.125 C 
BRANCH   3   4
ATOM      4  N   UNL     1       6.783  -4.690  24.530  0.00  0.00    -0.308 N 
ATOM      5  H   UNL     1       5.848  -4.507  24.875  0.00  0.00    +0.149 HD
ATOM      6  C   UNL     1       6.946  -5.370  23.344  0.00  0.00    +0.210 C 
ATOM      7  O   UNL     1       8.026  -5.797  22.947  0.00  0.00    -0.276 OA
ATOM      8  C   UNL     1       5.696  -5.487  22.520  0.00  0.00    +0.109 C 
ENDBRANCH   3   4
BRANCH   3   9
ATOM      9  C   UNL     1       7.449  -4.569  26.919  0.00  0.00    +0.197 C 
BRANCH   9  10
ATOM     10  O   UNL     1       7.230  -5.925  27.323  0.00  0.00    -0.285 OA
BRANCH  10  11
ATOM     11  P   UNL     1       5.725  -6.204  27.932  0.00  0.00    +0.475 P 
ATOM     12  O   UNL     1       5.734  -7.546  28.663  0.00  0.00    -0.227 OA
BRANCH  11  13
ATOM     13  O   UNL     1       6.198  -5.470  29.425  0.00  0.00    -0.302 OA
ATOM     14  H   UNL     1       5.840  -4.562  29.325  0.00  0.00    +0.222 HD
ENDBRANCH  11  13
BRANCH  11  15
ATOM     15  O   UNL     1       5.253  -6.938  26.438  0.00  0.00    -0.286 OA
BRANCH  15  16
ATOM     16  C   UNL     1       4.039  -6.391  25.917  0.00  0.00    +0.183 C 
BRANCH  16  17
ATOM     17  C   UNL     1       3.204  -5.681  26.991  0.00  0.00    +0.097 C 
BRANCH  17  18
ATOM     18  S   UNL     1       2.161  -4.378  26.254  0.00  0.00    -0.162 S 
ATOM     19  C   UNL     1       3.440  -3.436  25.389  0.00  0.00    +0.084 C 
ENDBRANCH  17  18
ENDBRANCH  16  17
ENDBRANCH  15  16
ENDBRANCH  11  15
ENDBRANCH  10  11
ENDBRANCH   9  10
ENDBRANCH   3   9
ENDBRANCH   2   3
ENDBRANCH   1   2
BRANCH   1  20
ATOM     20  C   UNL     1       9.235  -2.310  23.067  0.00  0.00    +0.160 C 
BRANCH  20  21
ATOM     21  C   UNL     1      10.284  -1.207  23.059  0.00  0.00    +0.028 C 
BRANCH  21  22
ATOM     22  C   UNL     1      10.107  -0.283  24.262  0.00  0.00    +0.002 C 
BRANCH  22  23
ATOM     23  C   UNL     1      11.151   0.824  24.276  0.00  0.00    +0.000 C 
BRANCH  23  24
ATOM     24  C   UNL     1      10.487   2.168  24.000  0.00  0.00    +0.000 C 
BRANCH  24  25
ATOM     25  C   UNL     1      10.232   2.354  22.511  0.00  0.00    +0.000 C 
BRANCH  25  26
ATOM     26  C   UNL     1       8.775   2.719  22.268  0.00  0.00    -0.000 C 
BRANCH  26  27
ATOM     27  C   UNL     1       8.034   1.553  21.628  0.00  0.00    -0.000 C 
BRANCH  27  28
ATOM     28  C   UNL     1       7.072   0.923  22.626  0.00  0.00    -0.000 C 
BRANCH  28  29
ATOM     29  C   UNL     1       6.756   1.902  23.748  0.00  0.00    -0.000 C 
BRANCH  29  30
ATOM     30  C   UNL     1       6.732   1.186  25.091  0.00  0.00    -0.000 C 
BRANCH  30  31
ATOM     31  C   UNL     1       6.967   2.172  26.226  0.00  0.00    -0.000 C 
BRANCH  31  32
ATOM     32  C   UNL     1       7.774   3.367  25.741  0.00  0.00    -0.000 C 
BRANCH  32  33
ATOM     33  C   UNL     1       6.923   4.629  25.743  0.00  0.00    -0.000 C 
BRANCH  33  34
ATOM     34  C   UNL     1       7.661   5.782  25.068  0.00  0.00    -0.000 C 
BRANCH  34  35
ATOM     35  C   UNL     1       9.153   5.484  24.963  0.00  0.00    -0.000 C 
BRANCH  35  37
ATOM     36  C   UNL     1      11.234   5.821  23.599  0.00  0.00    +0.004 C 
ATOM     37  C   UNL     1       9.770   6.191  23.760  0.00  0.00    -0.003 C 
ENDBRANCH  35  37
ENDBRANCH  34  35
ENDBRANCH  33  34
ENDBRANCH  32  33
ENDBRANCH  31  32
ENDBRANCH  30  31
ENDBRANCH  29  30
ENDBRANCH  28  29
ENDBRANCH  27  28
ENDBRANCH  26  27
ENDBRANCH  25  26
ENDBRANCH  24  25
ENDBRANCH  23  24
ENDBRANCH  22  23
ENDBRANCH  21  22
ENDBRANCH  20  21
ENDBRANCH   1  20
TORSDOF 28
ENDMDL
MODEL 6
REMARK VINA RESULT:      -4.4      1.963      3.994
REMARK  Name = 
REMARK  31 active torsions:
REMARK  status: ('A' for Active; 'I' for Inactive)
REMARK    1  A    between atoms: C_1  and  C_2
REMARK    2  A    between atoms: C_2  and  C_3
REMARK    3  A    between atoms: C_3  and  C_4
REMARK    4  A    between atoms: C_4  and  C_5
REMARK    5  A    between atoms: C_5  and  C_6
REMARK    6  A    between atoms: C_6  and  C_7
REMARK    7  A    between atoms: C_7  and  C_8
REMARK    8  A    between atoms: C_8  and  C_9
REMARK    9  A    between atoms: C_9  and  C_10
REMARK   10  A    between atoms: C_10  and  C_11
REMARK   11  A    between atoms: C_11  and  C_12
REMARK   12  A    between atoms: C_12  and  C_13
REMARK   13  A    between atoms: C_13  and  C_14
REMARK   14  A    between atoms: C_14  and  C_15
REMARK   15  A    between atoms: C_15  and  C_16
REMARK   16  A    between atoms: C_16  and  C_17
REMARK   17  A    between atoms: C_17  and  C_18
REMARK   18  A    between atoms: C_18  and  O_19
REMARK   19  A    between atoms: O_19  and  C_20
REMARK   20  A    between atoms: C_20  and  C_21
REMARK   21  A    between atoms: C_21  and  C_23
REMARK   22  A    between atoms: C_21  and  N_33
REMARK   23  A    between atoms: C_23  and  O_24
REMARK   24  A    between atoms: O_24  and  P_25
REMARK   25  A    between atoms: P_25  and  O_26
REMARK   26  A    between atoms: P_25  and  O_28
REMARK   27  A    between atoms: O_28  and  C_29
REMARK   28  A    between atoms: C_29  and  C_30
REMARK   29  A    between atoms: C_30  and  S_31
REMARK   30  A    between atoms: S_31  and  C_32
REMARK   31  A    between atoms: C_34  and  C_35
REMARK                            x       y       z     vdW  Elec       q    Type
REMARK                         _______ _______ _______ _____ _____    ______ ____
ROOT
ATOM      1  O   UNL     1       6.707  -1.986  25.603  0.00  0.00    -0.378 OA
ENDROOT
BRANCH   1   2
ATOM      2  C   UNL     1       7.225  -2.750  26.689  0.00  0.00    +0.184 C 
BRANCH   2   3
ATOM      3  C   UNL     1       7.788  -4.097  26.181  0.00  0.00    +0.125 C 
BRANCH   3   4
ATOM      4  N   UNL     1       7.210  -4.438  24.876  0.00  0.00    -0.308 N 
ATOM      5  H   UNL     1       6.282  -4.845  24.864  0.00  0.00    +0.149 HD
ATOM      6  C   UNL     1       7.977  -4.467  23.733  0.00  0.00    +0.210 C 
ATOM      7  O   UNL     1       9.167  -4.171  23.705  0.00  0.00    -0.276 OA
ATOM      8  C   UNL     1       7.218  -4.820  22.486  0.00  0.00    +0.109 C 
ENDBRANCH   3   4
BRANCH   3   9
ATOM      9  C   UNL     1       7.517  -5.204  27.218  0.00  0.00    +0.197 C 
BRANCH   9  10
ATOM     10  O   UNL     1       6.452  -6.068  26.809  0.00  0.00    -0.285 OA
BRANCH  10  11
ATOM     11  P   UNL     1       5.313  -6.318  27.974  0.00  0.00    +0.475 P 
ATOM     12  O   UNL     1       5.695  -7.564  28.772  0.00  0.00    -0.227 OA
BRANCH  11  13
ATOM     13  O   UNL     1       6.262  -5.400  29.092  0.00  0.00    -0.302 OA
ATOM     14  H   UNL     1       5.964  -5.764  29.953  0.00  0.00    +0.222 HD
ENDBRANCH  11  13
BRANCH  11  15
ATOM     15  O   UNL     1       4.366  -7.236  26.854  0.00  0.00    -0.286 OA
BRANCH  15  16
ATOM     16  C   UNL     1       3.760  -6.420  25.849  0.00  0.00    +0.183 C 
BRANCH  16  17
ATOM     17  C   UNL     1       3.984  -6.967  24.433  0.00  0.00    +0.097 C 
BRANCH  17  18
ATOM     18  S   UNL     1       3.559  -5.716  23.174  0.00  0.00    -0.162 S 
ATOM     19  C   UNL     1       1.779  -5.602  23.465  0.00  0.00    +0.084 C 
ENDBRANCH  17  18
ENDBRANCH  16  17
ENDBRANCH  15  16
ENDBRANCH  11  15
ENDBRANCH  10  11
ENDBRANCH   9  10
ENDBRANCH   3   9
ENDBRANCH   2   3
ENDBRANCH   1   2
BRANCH   1  20
ATOM     20  C   UNL     1       7.315  -0.696  25.520  0.00  0.00    +0.160 C 
BRANCH  20  21
ATOM     21  C   UNL     1       8.460  -0.774  24.521  0.00  0.00    +0.028 C 
BRANCH  21  22
ATOM     22  C   UNL     1       9.737  -0.181  25.113  0.00  0.00    +0.002 C 
BRANCH  22  23
ATOM     23  C   UNL     1      10.684   0.308  24.026  0.00  0.00    +0.000 C 
BRANCH  23  24
ATOM     24  C   UNL     1      10.093   0.012  22.652  0.00  0.00    +0.000 C 
BRANCH  24  25
ATOM     25  C   UNL     1       9.900   1.293  21.855  0.00  0.00    +0.000 C 
BRANCH  25  26
ATOM     26  C   UNL     1       8.418   1.552  21.626  0.00  0.00    -0.000 C 
BRANCH  26  27
ATOM     27  C   UNL     1       8.011   2.886  22.237  0.00  0.00    -0.000 C 
BRANCH  27  28
ATOM     28  C   UNL     1       7.284   2.666  23.557  0.00  0.00    -0.000 C 
BRANCH  28  29
ATOM     29  C   UNL     1       8.160   3.104  24.722  0.00  0.00    -0.000 C 
BRANCH  29  30
ATOM     30  C   UNL     1       9.190   4.126  24.262  0.00  0.00    -0.000 C 
BRANCH  30  31
ATOM     31  C   UNL     1       9.015   5.436  25.017  0.00  0.00    -0.000 C 
BRANCH  31  32
ATOM     32  C   UNL     1       9.259   6.623  24.096  0.00  0.00    -0.000 C 
BRANCH  32  33
ATOM     33  C   UNL     1       8.432   6.498  22.825  0.00  0.00    -0.000 C 
BRANCH  33  34
ATOM     34  C   UNL     1       7.044   7.102  23.019  0.00  0.00    -0.000 C 
BRANCH  34  35
ATOM     35  C   UNL     1       5.962   6.041  22.844  0.00  0.00    -0.000 C 
BRANCH  35  37
ATOM     36  C   UNL     1       5.288   5.409  25.178  0.00  0.00    +0.004 C 
ATOM     37  C   UNL     1       4.891   6.166  23.924  0.00  0.00    -0.003 C 
ENDBRANCH  35  37
ENDBRANCH  34  35
ENDBRANCH  33  34
ENDBRANCH  32  33
ENDBRANCH  31  32
ENDBRANCH  30  31
ENDBRANCH  29  30
ENDBRANCH  28  29
ENDBRANCH  27  28
ENDBRANCH  26  27
ENDBRANCH  25  26
ENDBRANCH  24  25
ENDBRANCH  23  24
ENDBRANCH  22  23
ENDBRANCH  21  22
ENDBRANCH  20  21
ENDBRANCH   1  20
TORSDOF 28
ENDMDL
MODEL 7
REMARK VINA RESULT:      -4.3      2.358      4.729
REMARK  Name = 
REMARK  31 active torsions:
REMARK  status: ('A' for Active; 'I' for Inactive)
REMARK    1  A    between atoms: C_1  and  C_2
REMARK    2  A    between atoms: C_2  and  C_3
REMARK    3  A    between atoms: C_3  and  C_4
REMARK    4  A    between atoms: C_4  and  C_5
REMARK    5  A    between atoms: C_5  and  C_6
REMARK    6  A    between atoms: C_6  and  C_7
REMARK    7  A    between atoms: C_7  and  C_8
REMARK    8  A    between atoms: C_8  and  C_9
REMARK    9  A    between atoms: C_9  and  C_10
REMARK   10  A    between atoms: C_10  and  C_11
REMARK   11  A    between atoms: C_11  and  C_12
REMARK   12  A    between atoms: C_12  and  C_13
REMARK   13  A    between atoms: C_13  and  C_14
REMARK   14  A    between atoms: C_14  and  C_15
REMARK   15  A    between atoms: C_15  and  C_16
REMARK   16  A    between atoms: C_16  and  C_17
REMARK   17  A    between atoms: C_17  and  C_18
REMARK   18  A    between atoms: C_18  and  O_19
REMARK   19  A    between atoms: O_19  and  C_20
REMARK   20  A    between atoms: C_20  and  C_21
REMARK   21  A    between atoms: C_21  and  C_23
REMARK   22  A    between atoms: C_21  and  N_33
REMARK   23  A    between atoms: C_23  and  O_24
REMARK   24  A    between atoms: O_24  and  P_25
REMARK   25  A    between atoms: P_25  and  O_26
REMARK   26  A    between atoms: P_25  and  O_28
REMARK   27  A    between atoms: O_28  and  C_29
REMARK   28  A    between atoms: C_29  and  C_30
REMARK   29  A    between atoms: C_30  and  S_31
REMARK   30  A    between atoms: S_31  and  C_32
REMARK   31  A    between atoms: C_34  and  C_35
REMARK                            x       y       z     vdW  Elec       q    Type
REMARK                         _______ _______ _______ _____ _____    ______ ____
ROOT
ATOM      1  O   UNL     1       7.613  -3.706  22.552  0.00  0.00    -0.378 OA
ENDROOT
BRANCH   1   2
ATOM      2  C   UNL     1       6.212  -3.583  22.791  0.00  0.00    +0.184 C 
BRANCH   2   3
ATOM      3  C   UNL     1       5.693  -4.797  23.595  0.00  0.00    +0.125 C 
BRANCH   3   4
ATOM      4  N   UNL     1       4.355  -4.524  24.132  0.00  0.00    -0.308 N 
ATOM      5  H   UNL     1       4.292  -4.003  24.999  0.00  0.00    +0.149 HD
ATOM      6  C   UNL     1       3.239  -5.169  23.648  0.00  0.00    +0.210 C 
ATOM      7  O   UNL     1       3.265  -5.969  22.717  0.00  0.00    -0.276 OA
ATOM      8  C   UNL     1       1.952  -4.758  24.303  0.00  0.00    +0.109 C 
ENDBRANCH   3   4
BRANCH   3   9
ATOM      9  C   UNL     1       6.686  -5.145  24.719  0.00  0.00    +0.197 C 
BRANCH   9  10
ATOM     10  O   UNL     1       6.015  -5.490  25.936  0.00  0.00    -0.285 OA
BRANCH  10  11
ATOM     11  P   UNL     1       6.516  -4.620  27.242  0.00  0.00    +0.475 P 
ATOM     12  O   UNL     1       7.919  -4.081  26.962  0.00  0.00    -0.227 OA
BRANCH  11  13
ATOM     13  O   UNL     1       5.896  -3.178  26.514  0.00  0.00    -0.302 OA
ATOM     14  H   UNL     1       6.394  -3.150  25.669  0.00  0.00    +0.222 HD
ENDBRANCH  11  13
BRANCH  11  15
ATOM     15  O   UNL     1       7.136  -6.062  27.968  0.00  0.00    -0.286 OA
BRANCH  15  16
ATOM     16  C   UNL     1       6.339  -6.510  29.067  0.00  0.00    +0.183 C 
BRANCH  16  17
ATOM     17  C   UNL     1       5.053  -5.690  29.234  0.00  0.00    +0.097 C 
BRANCH  17  18
ATOM     18  S   UNL     1       3.584  -6.773  29.252  0.00  0.00    -0.162 S 
ATOM     19  C   UNL     1       3.082  -6.613  27.523  0.00  0.00    +0.084 C 
ENDBRANCH  17  18
ENDBRANCH  16  17
ENDBRANCH  15  16
ENDBRANCH  11  15
ENDBRANCH  10  11
ENDBRANCH   9  10
ENDBRANCH   3   9
ENDBRANCH   2   3
ENDBRANCH   1   2
BRANCH   1  20
ATOM     20  C   UNL     1       8.270  -2.439  22.561  0.00  0.00    +0.160 C 
BRANCH  20  21
ATOM     21  C   UNL     1       8.067  -1.809  23.932  0.00  0.00    +0.028 C 
BRANCH  21  22
ATOM     22  C   UNL     1       9.392  -1.712  24.685  0.00  0.00    +0.002 C 
BRANCH  22  23
ATOM     23  C   UNL     1       9.718  -0.274  25.061  0.00  0.00    +0.000 C 
BRANCH  23  24
ATOM     24  C   UNL     1      10.681   0.324  24.042  0.00  0.00    +0.000 C 
BRANCH  24  25
ATOM     25  C   UNL     1      10.633   1.844  24.073  0.00  0.00    +0.000 C 
BRANCH  25  26
ATOM     26  C   UNL     1      10.272   2.387  22.698  0.00  0.00    -0.000 C 
BRANCH  26  27
ATOM     27  C   UNL     1       9.686   1.284  21.827  0.00  0.00    -0.000 C 
BRANCH  27  28
ATOM     28  C   UNL     1       8.280   1.653  21.377  0.00  0.00    -0.000 C 
BRANCH  28  29
ATOM     29  C   UNL     1       7.258   1.208  22.414  0.00  0.00    -0.000 C 
BRANCH  29  30
ATOM     30  C   UNL     1       6.386   2.380  22.841  0.00  0.00    -0.000 C 
BRANCH  30  31
ATOM     31  C   UNL     1       6.783   3.643  22.089  0.00  0.00    -0.000 C 
BRANCH  31  32
ATOM     32  C   UNL     1       7.365   4.675  23.042  0.00  0.00    -0.000 C 
BRANCH  32  33
ATOM     33  C   UNL     1       7.449   4.117  24.456  0.00  0.00    -0.000 C 
BRANCH  33  34
ATOM     34  C   UNL     1       8.614   4.741  25.218  0.00  0.00    -0.000 C 
BRANCH  34  35
ATOM     35  C   UNL     1       8.524   6.264  25.195  0.00  0.00    -0.000 C 
BRANCH  35  37
ATOM     36  C   UNL     1      10.703   5.890  24.004  0.00  0.00    +0.004 C 
ATOM     37  C   UNL     1       9.852   6.886  24.772  0.00  0.00    -0.003 C 
ENDBRANCH  35  37
ENDBRANCH  34  35
ENDBRANCH  33  34
ENDBRANCH  32  33
ENDBRANCH  31  32
ENDBRANCH  30  31
ENDBRANCH  29  30
ENDBRANCH  28  29
ENDBRANCH  27  28
ENDBRANCH  26  27
ENDBRANCH  25  26
ENDBRANCH  24  25
ENDBRANCH  23  24
ENDBRANCH  22  23
ENDBRANCH  21  22
ENDBRANCH  20  21
ENDBRANCH   1  20
TORSDOF 28
ENDMDL
MODEL 8
REMARK VINA RESULT:      -4.3      4.279      7.984
REMARK  Name = 
REMARK  31 active torsions:
REMARK  status: ('A' for Active; 'I' for Inactive)
REMARK    1  A    between atoms: C_1  and  C_2
REMARK    2  A    between atoms: C_2  and  C_3
REMARK    3  A    between atoms: C_3  and  C_4
REMARK    4  A    between atoms: C_4  and  C_5
REMARK    5  A    between atoms: C_5  and  C_6
REMARK    6  A    between atoms: C_6  and  C_7
REMARK    7  A    between atoms: C_7  and  C_8
REMARK    8  A    between atoms: C_8  and  C_9
REMARK    9  A    between atoms: C_9  and  C_10
REMARK   10  A    between atoms: C_10  and  C_11
REMARK   11  A    between atoms: C_11  and  C_12
REMARK   12  A    between atoms: C_12  and  C_13
REMARK   13  A    between atoms: C_13  and  C_14
REMARK   14  A    between atoms: C_14  and  C_15
REMARK   15  A    between atoms: C_15  and  C_16
REMARK   16  A    between atoms: C_16  and  C_17
REMARK   17  A    between atoms: C_17  and  C_18
REMARK   18  A    between atoms: C_18  and  O_19
REMARK   19  A    between atoms: O_19  and  C_20
REMARK   20  A    between atoms: C_20  and  C_21
REMARK   21  A    between atoms: C_21  and  C_23
REMARK   22  A    between atoms: C_21  and  N_33
REMARK   23  A    between atoms: C_23  and  O_24
REMARK   24  A    between atoms: O_24  and  P_25
REMARK   25  A    between atoms: P_25  and  O_26
REMARK   26  A    between atoms: P_25  and  O_28
REMARK   27  A    between atoms: O_28  and  C_29
REMARK   28  A    between atoms: C_29  and  C_30
REMARK   29  A    between atoms: C_30  and  S_31
REMARK   30  A    between atoms: S_31  and  C_32
REMARK   31  A    between atoms: C_34  and  C_35
REMARK                            x       y       z     vdW  Elec       q    Type
REMARK                         _______ _______ _______ _____ _____    ______ ____
ROOT
ATOM      1  O   UNL     1       9.002   1.260  21.671  0.00  0.00    -0.378 OA
ENDROOT
BRANCH   1   2
ATOM      2  C   UNL     1      10.016   1.896  22.446  0.00  0.00    +0.184 C 
BRANCH   2   3
ATOM      3  C   UNL     1       9.431   3.105  23.212  0.00  0.00    +0.125 C 
BRANCH   3   4
ATOM      4  N   UNL     1      10.502   4.021  23.624  0.00  0.00    -0.308 N 
ATOM      5  H   UNL     1      11.349   3.615  24.005  0.00  0.00    +0.149 HD
ATOM      6  C   UNL     1      10.284   5.374  23.751  0.00  0.00    +0.210 C 
ATOM      7  O   UNL     1       9.215   5.919  23.491  0.00  0.00    -0.276 OA
ATOM      8  C   UNL     1      11.494   6.161  24.167  0.00  0.00    +0.109 C 
ENDBRANCH   3   4
BRANCH   3   9
ATOM      9  C   UNL     1       8.620   2.614  24.425  0.00  0.00    +0.197 C 
BRANCH   9  10
ATOM     10  O   UNL     1       7.210   2.706  24.197  0.00  0.00    -0.285 OA
BRANCH  10  11
ATOM     11  P   UNL     1       6.414   1.273  24.361  0.00  0.00    +0.475 P 
ATOM     12  O   UNL     1       4.922   1.559  24.528  0.00  0.00    -0.227 OA
BRANCH  11  13
ATOM     13  O   UNL     1       6.141   1.234  22.653  0.00  0.00    -0.302 OA
ATOM     14  H   UNL     1       6.929   0.744  22.335  0.00  0.00    +0.222 HD
ENDBRANCH  11  13
BRANCH  11  15
ATOM     15  O   UNL     1       6.687   1.314  26.069  0.00  0.00    -0.286 OA
BRANCH  15  16
ATOM     16  C   UNL     1       6.373   0.073  26.705  0.00  0.00    +0.183 C 
BRANCH  16  17
ATOM     17  C   UNL     1       5.711   0.265  28.076  0.00  0.00    +0.097 C 
BRANCH  17  18
ATOM     18  S   UNL     1       3.911   0.510  27.904  0.00  0.00    -0.162 S 
ATOM     19  C   UNL     1       3.862   2.317  27.896  0.00  0.00    +0.084 C 
ENDBRANCH  17  18
ENDBRANCH  16  17
ENDBRANCH  15  16
ENDBRANCH  11  15
ENDBRANCH  10  11
ENDBRANCH   9  10
ENDBRANCH   3   9
ENDBRANCH   2   3
ENDBRANCH   1   2
BRANCH   1  20
ATOM     20  C   UNL     1       9.330  -0.097  21.374  0.00  0.00    +0.160 C 
BRANCH  20  21
ATOM     21  C   UNL     1      10.041  -0.689  22.583  0.00  0.00    +0.028 C 
BRANCH  21  22
ATOM     22  C   UNL     1       9.130  -1.669  23.321  0.00  0.00    +0.002 C 
BRANCH  22  23
ATOM     23  C   UNL     1       9.157  -1.435  24.825  0.00  0.00    +0.000 C 
BRANCH  23  24
ATOM     24  C   UNL     1       8.938  -2.752  25.559  0.00  0.00    +0.000 C 
BRANCH  24  25
ATOM     25  C   UNL     1       9.319  -3.935  24.681  0.00  0.00    +0.000 C 
BRANCH  25  26
ATOM     26  C   UNL     1       8.835  -5.235  25.309  0.00  0.00    -0.000 C 
BRANCH  26  27
ATOM     27  C   UNL     1       7.767  -4.953  26.357  0.00  0.00    -0.000 C 
BRANCH  27  28
ATOM     28  C   UNL     1       6.489  -5.713  26.032  0.00  0.00    -0.000 C 
BRANCH  28  29
ATOM     29  C   UNL     1       5.307  -5.104  26.773  0.00  0.00    -0.000 C 
BRANCH  29  30
ATOM     30  C   UNL     1       5.444  -3.590  26.843  0.00  0.00    -0.000 C 
BRANCH  30  31
ATOM     31  C   UNL     1       4.282  -2.916  26.127  0.00  0.00    -0.000 C 
BRANCH  31  32
ATOM     32  C   UNL     1       4.370  -3.145  24.626  0.00  0.00    -0.000 C 
BRANCH  32  33
ATOM     33  C   UNL     1       5.614  -2.483  24.051  0.00  0.00    -0.000 C 
BRANCH  33  34
ATOM     34  C   UNL     1       5.724  -2.743  22.551  0.00  0.00    -0.000 C 
BRANCH  34  35
ATOM     35  C   UNL     1       5.629  -4.235  22.250  0.00  0.00    -0.000 C 
BRANCH  35  37
ATOM     36  C   UNL     1       6.955  -6.358  22.058  0.00  0.00    +0.004 C 
ATOM     37  C   UNL     1       7.013  -4.841  22.036  0.00  0.00    -0.003 C 
ENDBRANCH  35  37
ENDBRANCH  34  35
ENDBRANCH  33  34
ENDBRANCH  32  33
ENDBRANCH  31  32
ENDBRANCH  30  31
ENDBRANCH  29  30
ENDBRANCH  28  29
ENDBRANCH  27  28
ENDBRANCH  26  27
ENDBRANCH  25  26
ENDBRANCH  24  25
ENDBRANCH  23  24
ENDBRANCH  22  23
ENDBRANCH  21  22
ENDBRANCH  20  21
ENDBRANCH   1  20
TORSDOF 28
ENDMDL
MODEL 9
REMARK VINA RESULT:      -4.3      5.550      9.271
REMARK  Name = 
REMARK  31 active torsions:
REMARK  status: ('A' for Active; 'I' for Inactive)
REMARK    1  A    between atoms: C_1  and  C_2
REMARK    2  A    between atoms: C_2  and  C_3
REMARK    3  A    between atoms: C_3  and  C_4
REMARK    4  A    between atoms: C_4  and  C_5
REMARK    5  A    between atoms: C_5  and  C_6
REMARK    6  A    between atoms: C_6  and  C_7
REMARK    7  A    between atoms: C_7  and  C_8
REMARK    8  A    between atoms: C_8  and  C_9
REMARK    9  A    between atoms: C_9  and  C_10
REMARK   10  A    between atoms: C_10  and  C_11
REMARK   11  A    between atoms: C_11  and  C_12
REMARK   12  A    between atoms: C_12  and  C_13
REMARK   13  A    between atoms: C_13  and  C_14
REMARK   14  A    between atoms: C_14  and  C_15
REMARK   15  A    between atoms: C_15  and  C_16
REMARK   16  A    between atoms: C_16  and  C_17
REMARK   17  A    between atoms: C_17  and  C_18
REMARK   18  A    between atoms: C_18  and  O_19
REMARK   19  A    between atoms: O_19  and  C_20
REMARK   20  A    between atoms: C_20  and  C_21
REMARK   21  A    between atoms: C_21  and  C_23
REMARK   22  A    between atoms: C_21  and  N_33
REMARK   23  A    between atoms: C_23  and  O_24
REMARK   24  A    between atoms: O_24  and  P_25
REMARK   25  A    between atoms: P_25  and  O_26
REMARK   26  A    between atoms: P_25  and  O_28
REMARK   27  A    between atoms: O_28  and  C_29
REMARK   28  A    between atoms: C_29  and  C_30
REMARK   29  A    between atoms: C_30  and  S_31
REMARK   30  A    between atoms: S_31  and  C_32
REMARK   31  A    between atoms: C_34  and  C_35
REMARK                            x       y       z     vdW  Elec       q    Type
REMARK                         _______ _______ _______ _____ _____    ______ ____
ROOT
ATOM      1  O   UNL     1      10.220  -0.232  22.611  0.00  0.00    -0.378 OA
ENDROOT
BRANCH   1   2
ATOM      2  C   UNL     1       9.904   1.147  22.433  0.00  0.00    +0.184 C 
BRANCH   2   3
ATOM      3  C   UNL     1      10.531   1.994  23.564  0.00  0.00    +0.125 C 
BRANCH   3   4
ATOM      4  N   UNL     1       9.599   2.119  24.691  0.00  0.00    -0.308 N 
ATOM      5  H   UNL     1       9.837   1.645  25.554  0.00  0.00    +0.149 HD
ATOM      6  C   UNL     1       8.328   2.620  24.523  0.00  0.00    +0.210 C 
ATOM      7  O   UNL     1       7.897   3.038  23.452  0.00  0.00    -0.276 OA
ATOM      8  C   UNL     1       7.516   2.689  25.785  0.00  0.00    +0.109 C 
ENDBRANCH   3   4
BRANCH   3   9
ATOM      9  C   UNL     1      10.937   3.376  23.020  0.00  0.00    +0.197 C 
BRANCH   9  10
ATOM     10  O   UNL     1      12.095   3.893  23.685  0.00  0.00    -0.285 OA
BRANCH  10  11
ATOM     11  P   UNL     1      12.453   5.450  23.286  0.00  0.00    +0.475 P 
ATOM     12  O   UNL     1      12.800   6.215  24.563  0.00  0.00    -0.227 OA
BRANCH  11  13
ATOM     13  O   UNL     1      14.127   5.031  23.168  0.00  0.00    -0.302 OA
ATOM     14  H   UNL     1      14.270   5.046  22.198  0.00  0.00    +0.222 HD
ENDBRANCH  11  13
BRANCH  11  15
ATOM     15  O   UNL     1      10.778   5.868  23.405  0.00  0.00    -0.286 OA
BRANCH  15  16
ATOM     16  C   UNL     1      10.428   6.373  24.695  0.00  0.00    +0.183 C 
BRANCH  16  17
ATOM     17  C   UNL     1       8.910   6.468  24.900  0.00  0.00    +0.097 C 
BRANCH  17  18
ATOM     18  S   UNL     1       8.044   6.628  23.302  0.00  0.00    -0.162 S 
ATOM     19  C   UNL     1       6.365   6.222  23.838  0.00  0.00    +0.084 C 
ENDBRANCH  17  18
ENDBRANCH  16  17
ENDBRANCH  15  16
ENDBRANCH  11  15
ENDBRANCH  10  11
ENDBRANCH   9  10
ENDBRANCH   3   9
ENDBRANCH   2   3
ENDBRANCH   1   2
BRANCH   1  20
ATOM     20  C   UNL     1       9.203  -1.085  22.085  0.00  0.00    +0.160 C 
BRANCH  20  21
ATOM     21  C   UNL     1       7.966  -0.943  22.960  0.00  0.00    +0.028 C 
BRANCH  21  22
ATOM     22  C   UNL     1       8.293  -1.262  24.417  0.00  0.00    +0.002 C 
BRANCH  22  23
ATOM     23  C   UNL     1       7.127  -0.933  25.338  0.00  0.00    +0.000 C 
BRANCH  23  24
ATOM     24  C   UNL     1       5.859  -1.611  24.832  0.00  0.00    +0.000 C 
BRANCH  24  25
ATOM     25  C   UNL     1       5.131  -2.320  25.965  0.00  0.00    +0.000 C 
BRANCH  25  26
ATOM     26  C   UNL     1       6.128  -3.038  26.863  0.00  0.00    -0.000 C 
BRANCH  26  27
ATOM     27  C   UNL     1       5.872  -4.539  26.847  0.00  0.00    -0.000 C 
BRANCH  27  28
ATOM     28  C   UNL     1       7.183  -5.300  26.702  0.00  0.00    -0.000 C 
BRANCH  28  29
ATOM     29  C   UNL     1       8.331  -4.334  26.448  0.00  0.00    -0.000 C 
BRANCH  29  30
ATOM     30  C   UNL     1       9.084  -4.720  25.183  0.00  0.00    -0.000 C 
BRANCH  30  31
ATOM     31  C   UNL     1       8.172  -5.478  24.229  0.00  0.00    -0.000 C 
BRANCH  31  32
ATOM     32  C   UNL     1       7.700  -4.571  23.102  0.00  0.00    -0.000 C 
BRANCH  32  33
ATOM     33  C   UNL     1       6.180  -4.558  23.021  0.00  0.00    -0.000 C 
BRANCH  33  34
ATOM     34  C   UNL     1       5.606  -5.933  23.348  0.00  0.00    -0.000 C 
BRANCH  34  35
ATOM     35  C   UNL     1       4.097  -5.958  23.130  0.00  0.00    -0.000 C 
BRANCH  35  37
ATOM     36  C   UNL     1       2.637  -4.956  24.910  0.00  0.00    +0.004 C 
ATOM     37  C   UNL     1       3.445  -4.682  23.655  0.00  0.00    -0.003 C 
ENDBRANCH  35  37
ENDBRANCH  34  35
ENDBRANCH  33  34
ENDBRANCH  32  33
ENDBRANCH  31  32
ENDBRANCH  30  31
ENDBRANCH  29  30
ENDBRANCH  28  29
ENDBRANCH  27  28
ENDBRANCH  26  27
ENDBRANCH  25  26
ENDBRANCH  24  25
ENDBRANCH  23  24
ENDBRANCH  22  23
ENDBRANCH  21  22
ENDBRANCH  20  21
ENDBRANCH   1  20
TORSDOF 28
ENDMDL
