MODEL 1
REMARK VINA RESULT:      -7.2      0.000      0.000
REMARK  Name = 
REMARK  8 active torsions:
REMARK  status: ('A' for Active; 'I' for Inactive)
REMARK    1  A    between atoms: CA_2  and  N_3
REMARK    2  A    between atoms: C_4  and  C_6
REMARK    3  A    between atoms: C_6  and  C_7
REMARK    4  A    between atoms: S_18  and  O_20
REMARK    5  A    between atoms: C_21  and  C_22
REMARK    6  A    between atoms: C_21  and  C_23
REMARK    7  A    between atoms: CA_24  and  C_26
REMARK    8  A    between atoms: C_26  and  O_27
REMARK                            x       y       z     vdW  Elec       q    Type
REMARK                         _______ _______ _______ _____ _____    ______ ____
ROOT
ATOM      1  CA  UNL     1       7.870  -3.815  24.988  0.00  0.00    +0.190 C 
ATOM      2  C   UNL     1       6.514  -4.145  25.639  0.00  0.00    +0.167 C 
ATOM      3  S   UNL     1       4.920  -3.693  25.074  0.00  0.00    -0.121 S 
ATOM      4  H   UNL     1       3.945  -3.865  25.985  0.00  0.00    +0.111 HD
ATOM      5  C   UNL     1       4.709  -4.746  23.636  0.00  0.00    +0.044 C 
ATOM      6  CA  UNL     1       5.416  -6.014  24.191  0.00  0.00    +0.201 C 
ATOM      7  C   UNL     1       5.410  -4.253  22.361  0.00  0.00    +0.025 C 
ATOM      8  C   UNL     1       3.221  -4.856  23.306  0.00  0.00    +0.025 C 
ATOM      9  N   UNL     1       6.587  -5.506  24.983  0.00  0.00    -0.271 N 
ATOM     10  C   UNL     1       7.738  -5.191  24.301  0.00  0.00    +0.240 C 
ATOM     11  O   UNL     1       8.267  -5.736  23.358  0.00  0.00    -0.273 OA
ENDROOT
BRANCH   1  12
ATOM     12  N   UNL     1       7.992  -2.639  24.073  0.00  0.00    -0.301 N 
ATOM     13  H   UNL     1       7.152  -2.311  23.600  0.00  0.00    +0.150 HD
ATOM     14  C   UNL     1       9.190  -2.389  23.421  0.00  0.00    +0.218 C 
ATOM     15  O   UNL     1      10.223  -2.981  23.716  0.00  0.00    -0.275 OA
BRANCH  14  16
ATOM     16  C   UNL     1       9.121  -1.375  22.288  0.00  0.00    +0.130 C 
BRANCH  16  17
ATOM     17  C   UNL     1       9.694  -0.041  22.702  0.00  0.00    -0.039 A 
ATOM     18  C   UNL     1       9.749   1.017  21.781  0.00  0.00    +0.004 A 
ATOM     19  C   UNL     1      10.172   2.286  22.181  0.00  0.00    +0.000 A 
ATOM     20  C   UNL     1      10.550   2.510  23.503  0.00  0.00    +0.000 A 
ATOM     21  C   UNL     1      10.535   1.459  24.417  0.00  0.00    +0.000 A 
ATOM     22  C   UNL     1      10.113   0.187  24.019  0.00  0.00    +0.004 A 
ENDBRANCH  16  17
ENDBRANCH  14  16
ENDBRANCH   1  12
BRANCH   3  23
ATOM     23  O   UNL     1       5.039  -2.178  24.531  0.00  0.00    -0.350 OA
ATOM     24  H   UNL     1       4.843  -1.432  25.128  0.00  0.00    +0.225 HD
ENDBRANCH   3  23
BRANCH   6  25
ATOM     25  C   UNL     1       4.513  -6.876  25.092  0.00  0.00    +0.327 C 
ATOM     26  OXT UNL     1       4.390  -6.718  26.298  0.00  0.00    -0.249 OA
BRANCH  25  27
ATOM     27  O   UNL     1       3.839  -7.847  24.429  0.00  0.00    -0.479 OA
ATOM     28  H   UNL     1       3.053  -8.123  24.943  0.00  0.00    +0.295 HD
ENDBRANCH  25  27
ENDBRANCH   6  25
TORSDOF 6
ENDMDL
MODEL 2
REMARK VINA RESULT:      -7.2      2.509      7.347
REMARK  Name = 
REMARK  8 active torsions:
REMARK  status: ('A' for Active; 'I' for Inactive)
REMARK    1  A    between atoms: CA_2  and  N_3
REMARK    2  A    between atoms: C_4  and  C_6
REMARK    3  A    between atoms: C_6  and  C_7
REMARK    4  A    between atoms: S_18  and  O_20
REMARK    5  A    between atoms: C_21  and  C_22
REMARK    6  A    between atoms: C_21  and  C_23
REMARK    7  A    between atoms: CA_24  and  C_26
REMARK    8  A    between atoms: C_26  and  O_27
REMARK                            x       y       z     vdW  Elec       q    Type
REMARK                         _______ _______ _______ _____ _____    ______ ____
ROOT
ATOM      1  CA  UNL     1       8.011  -2.710  23.059  0.00  0.00    +0.190 C 
ATOM      2  C   UNL     1       7.462  -1.323  22.678  0.00  0.00    +0.167 C 
ATOM      3  S   UNL     1       7.100   0.013  23.751  0.00  0.00    -0.121 S 
ATOM      4  H   UNL     1       6.368   0.989  23.184  0.00  0.00    +0.111 HD
ATOM      5  C   UNL     1       8.735   0.573  24.233  0.00  0.00    +0.044 C 
ATOM      6  CA  UNL     1       9.450   0.353  22.871  0.00  0.00    +0.201 C 
ATOM      7  C   UNL     1       9.408  -0.260  25.335  0.00  0.00    +0.025 C 
ATOM      8  C   UNL     1       8.643   2.005  24.758  0.00  0.00    +0.025 C 
ATOM      9  N   UNL     1       8.875  -0.919  22.318  0.00  0.00    -0.271 N 
ATOM     10  C   UNL     1       9.401  -2.110  22.758  0.00  0.00    +0.240 C 
ATOM     11  O   UNL     1      10.545  -2.419  23.011  0.00  0.00    -0.273 OA
ENDROOT
BRANCH   1  12
ATOM     12  N   UNL     1       7.814  -3.238  24.443  0.00  0.00    -0.301 N 
ATOM     13  H   UNL     1       7.770  -2.567  25.209  0.00  0.00    +0.150 HD
ATOM     14  C   UNL     1       8.268  -4.505  24.774  0.00  0.00    +0.218 C 
ATOM     15  O   UNL     1       8.653  -5.297  23.921  0.00  0.00    -0.275 OA
BRANCH  14  16
ATOM     16  C   UNL     1       8.306  -4.820  26.263  0.00  0.00    +0.130 C 
BRANCH  16  17
ATOM     17  C   UNL     1       7.007  -5.431  26.733  0.00  0.00    -0.039 A 
ATOM     18  C   UNL     1       6.016  -5.778  25.803  0.00  0.00    +0.004 A 
ATOM     19  C   UNL     1       4.859  -6.445  26.213  0.00  0.00    +0.000 A 
ATOM     20  C   UNL     1       4.678  -6.766  27.556  0.00  0.00    +0.000 A 
ATOM     21  C   UNL     1       5.639  -6.393  28.494  0.00  0.00    +0.000 A 
ATOM     22  C   UNL     1       6.796  -5.724  28.087  0.00  0.00    +0.004 A 
ENDBRANCH  16  17
ENDBRANCH  14  16
ENDBRANCH   1  12
BRANCH   3  23
ATOM     23  O   UNL     1       6.418  -0.628  25.065  0.00  0.00    -0.350 OA
ATOM     24  H   UNL     1       6.379  -0.113  25.892  0.00  0.00    +0.225 HD
ENDBRANCH   3  23
BRANCH   6  25
ATOM     25  C   UNL     1       9.232   1.502  21.870  0.00  0.00    +0.327 C 
ATOM     26  OXT UNL     1       8.186   1.705  21.270  0.00  0.00    -0.249 OA
BRANCH  25  27
ATOM     27  O   UNL     1      10.314   2.302  21.704  0.00  0.00    -0.479 OA
ATOM     28  H   UNL     1      10.719   2.142  20.828  0.00  0.00    +0.295 HD
ENDBRANCH  25  27
ENDBRANCH   6  25
TORSDOF 6
ENDMDL
MODEL 3
REMARK VINA RESULT:      -7.2      1.676      2.041
REMARK  Name = 
REMARK  8 active torsions:
REMARK  status: ('A' for Active; 'I' for Inactive)
REMARK    1  A    between atoms: CA_2  and  N_3
REMARK    2  A    between atoms: C_4  and  C_6
REMARK    3  A    between atoms: C_6  and  C_7
REMARK    4  A    between atoms: S_18  and  O_20
REMARK    5  A    between atoms: C_21  and  C_22
REMARK    6  A    between atoms: C_21  and  C_23
REMARK    7  A    between atoms: CA_24  and  C_26
REMARK    8  A    between atoms: C_26  and  O_27
REMARK                            x       y       z     vdW  Elec       q    Type
REMARK                         _______ _______ _______ _____ _____    ______ ____
ROOT
ATOM      1  CA  UNL     1       8.423  -4.431  24.134  0.00  0.00    +0.190 C 
ATOM      2  C   UNL     1       7.369  -5.352  24.776  0.00  0.00    +0.167 C 
ATOM      3  S   UNL     1       6.053  -4.892  25.836  0.00  0.00    -0.121 S 
ATOM      4  H   UNL     1       5.473  -5.927  26.472  0.00  0.00    +0.111 HD
ATOM      5  C   UNL     1       4.929  -4.059  24.714  0.00  0.00    +0.044 C 
ATOM      6  CA  UNL     1       5.142  -4.973  23.475  0.00  0.00    +0.201 C 
ATOM      7  C   UNL     1       5.301  -2.606  24.381  0.00  0.00    +0.025 C 
ATOM      8  C   UNL     1       3.532  -4.025  25.333  0.00  0.00    +0.025 C 
ATOM      9  N   UNL     1       6.606  -5.306  23.471  0.00  0.00    -0.271 N 
ATOM     10  C   UNL     1       7.474  -4.395  22.917  0.00  0.00    +0.240 C 
ATOM     11  O   UNL     1       7.354  -3.690  21.939  0.00  0.00    -0.273 OA
ENDROOT
BRANCH   1  12
ATOM     12  N   UNL     1       8.737  -3.109  24.756  0.00  0.00    -0.301 N 
ATOM     13  H   UNL     1       8.002  -2.642  25.284  0.00  0.00    +0.150 HD
ATOM     14  C   UNL     1       9.688  -2.280  24.180  0.00  0.00    +0.218 C 
ATOM     15  O   UNL     1      10.431  -2.672  23.287  0.00  0.00    -0.275 OA
BRANCH  14  16
ATOM     16  C   UNL     1       9.707  -0.848  24.694  0.00  0.00    +0.130 C 
BRANCH  16  17
ATOM     17  C   UNL     1       9.189   0.121  23.657  0.00  0.00    -0.039 A 
ATOM     18  C   UNL     1      10.089   0.839  22.854  0.00  0.00    +0.004 A 
ATOM     19  C   UNL     1       9.624   1.652  21.818  0.00  0.00    +0.000 A 
ATOM     20  C   UNL     1       8.257   1.761  21.578  0.00  0.00    +0.000 A 
ATOM     21  C   UNL     1       7.352   1.082  22.392  0.00  0.00    +0.000 A 
ATOM     22  C   UNL     1       7.815   0.269  23.431  0.00  0.00    +0.004 A 
ENDBRANCH  16  17
ENDBRANCH  14  16
ENDBRANCH   1  12
BRANCH   3  23
ATOM     23  O   UNL     1       6.640  -3.767  26.832  0.00  0.00    -0.350 OA
ATOM     24  H   UNL     1       6.161  -2.926  26.950  0.00  0.00    +0.225 HD
ENDBRANCH   3  23
BRANCH   6  25
ATOM     25  C   UNL     1       4.313  -6.270  23.518  0.00  0.00    +0.327 C 
ATOM     26  OXT UNL     1       4.551  -7.216  24.255  0.00  0.00    -0.249 OA
BRANCH  25  27
ATOM     27  O   UNL     1       3.264  -6.282  22.659  0.00  0.00    -0.479 OA
ATOM     28  H   UNL     1       2.857  -7.172  22.638  0.00  0.00    +0.295 HD
ENDBRANCH  25  27
ENDBRANCH   6  25
TORSDOF 6
ENDMDL
MODEL 4
REMARK VINA RESULT:      -7.2      1.848      2.227
REMARK  Name = 
REMARK  8 active torsions:
REMARK  status: ('A' for Active; 'I' for Inactive)
REMARK    1  A    between atoms: CA_2  and  N_3
REMARK    2  A    between atoms: C_4  and  C_6
REMARK    3  A    between atoms: C_6  and  C_7
REMARK    4  A    between atoms: S_18  and  O_20
REMARK    5  A    between atoms: C_21  and  C_22
REMARK    6  A    between atoms: C_21  and  C_23
REMARK    7  A    between atoms: CA_24  and  C_26
REMARK    8  A    between atoms: C_26  and  O_27
REMARK                            x       y       z     vdW  Elec       q    Type
REMARK                         _______ _______ _______ _____ _____    ______ ____
ROOT
ATOM      1  CA  UNL     1       9.128  -3.280  24.116  0.00  0.00    +0.190 C 
ATOM      2  C   UNL     1       8.670  -3.385  25.582  0.00  0.00    +0.167 C 
ATOM      3  S   UNL     1       7.319  -2.568  26.339  0.00  0.00    -0.121 S 
ATOM      4  H   UNL     1       7.330  -2.620  27.684  0.00  0.00    +0.111 HD
ATOM      5  C   UNL     1       5.908  -3.420  25.631  0.00  0.00    +0.044 C 
ATOM      6  CA  UNL     1       6.514  -4.850  25.596  0.00  0.00    +0.201 C 
ATOM      7  C   UNL     1       5.518  -2.966  24.216  0.00  0.00    +0.025 C 
ATOM      8  C   UNL     1       4.684  -3.194  26.518  0.00  0.00    +0.025 C 
ATOM      9  N   UNL     1       7.955  -4.666  25.214  0.00  0.00    -0.271 N 
ATOM     10  C   UNL     1       8.256  -4.532  23.880  0.00  0.00    +0.240 C 
ATOM     11  O   UNL     1       7.789  -5.085  22.909  0.00  0.00    -0.273 OA
ENDROOT
BRANCH   1  12
ATOM     12  N   UNL     1       8.771  -2.075  23.306  0.00  0.00    -0.301 N 
ATOM     13  H   UNL     1       7.790  -1.929  23.072  0.00  0.00    +0.150 HD
ATOM     14  C   UNL     1       9.692  -1.539  22.419  0.00  0.00    +0.218 C 
ATOM     15  O   UNL     1      10.866  -1.892  22.412  0.00  0.00    -0.275 OA
BRANCH  14  16
ATOM     16  C   UNL     1       9.134  -0.527  21.427  0.00  0.00    +0.130 C 
BRANCH  16  17
ATOM     17  C   UNL     1       9.115   0.867  22.008  0.00  0.00    -0.039 A 
ATOM     18  C   UNL     1       8.047   1.732  21.726  0.00  0.00    +0.004 A 
ATOM     19  C   UNL     1       7.962   2.981  22.345  0.00  0.00    +0.000 A 
ATOM     20  C   UNL     1       8.945   3.381  23.246  0.00  0.00    +0.000 A 
ATOM     21  C   UNL     1      10.029   2.545  23.507  0.00  0.00    +0.000 A 
ATOM     22  C   UNL     1      10.118   1.296  22.887  0.00  0.00    +0.004 A 
ENDBRANCH  16  17
ENDBRANCH  14  16
ENDBRANCH   1  12
BRANCH   3  23
ATOM     23  O   UNL     1       7.304  -1.066  25.750  0.00  0.00    -0.350 OA
ATOM     24  H   UNL     1       7.928  -0.402  26.097  0.00  0.00    +0.225 HD
ENDBRANCH   3  23
BRANCH   6  25
ATOM     25  C   UNL     1       6.423  -5.589  26.943  0.00  0.00    +0.327 C 
ATOM     26  OXT UNL     1       7.076  -5.298  27.935  0.00  0.00    -0.249 OA
BRANCH  25  27
ATOM     27  O   UNL     1       5.532  -6.612  26.953  0.00  0.00    -0.479 OA
ATOM     28  H   UNL     1       5.412  -6.945  27.865  0.00  0.00    +0.295 HD
ENDBRANCH  25  27
ENDBRANCH   6  25
TORSDOF 6
ENDMDL
MODEL 5
REMARK VINA RESULT:      -7.2      1.764      2.441
REMARK  Name = 
REMARK  8 active torsions:
REMARK  status: ('A' for Active; 'I' for Inactive)
REMARK    1  A    between atoms: CA_2  and  N_3
REMARK    2  A    between atoms: C_4  and  C_6
REMARK    3  A    between atoms: C_6  and  C_7
REMARK    4  A    between atoms: S_18  and  O_20
REMARK    5  A    between atoms: C_21  and  C_22
REMARK    6  A    between atoms: C_21  and  C_23
REMARK    7  A    between atoms: CA_24  and  C_26
REMARK    8  A    between atoms: C_26  and  O_27
REMARK                            x       y       z     vdW  Elec       q    Type
REMARK                         _______ _______ _______ _____ _____    ______ ____
ROOT
ATOM      1  CA  UNL     1       6.264  -2.894  25.647  0.00  0.00    +0.190 C 
ATOM      2  C   UNL     1       5.257  -3.143  24.510  0.00  0.00    +0.167 C 
ATOM      3  S   UNL     1       5.606  -3.430  22.818  0.00  0.00    -0.121 S 
ATOM      4  H   UNL     1       4.534  -3.327  22.011  0.00  0.00    +0.111 HD
ATOM      5  C   UNL     1       6.289  -5.089  22.843  0.00  0.00    +0.044 C 
ATOM      6  CA  UNL     1       5.370  -5.685  23.945  0.00  0.00    +0.201 C 
ATOM      7  C   UNL     1       7.763  -5.178  23.266  0.00  0.00    +0.025 C 
ATOM      8  C   UNL     1       6.195  -5.693  21.442  0.00  0.00    +0.025 C 
ATOM      9  N   UNL     1       5.189  -4.588  24.953  0.00  0.00    -0.271 N 
ATOM     10  C   UNL     1       6.170  -4.413  25.900  0.00  0.00    +0.240 C 
ATOM     11  O   UNL     1       6.833  -5.228  26.504  0.00  0.00    -0.273 OA
ENDROOT
BRANCH   1  12
ATOM     12  N   UNL     1       7.627  -2.367  25.336  0.00  0.00    -0.301 N 
ATOM     13  H   UNL     1       8.423  -2.991  25.465  0.00  0.00    +0.150 HD
ATOM     14  C   UNL     1       7.894  -1.012  25.464  0.00  0.00    +0.218 C 
ATOM     15  O   UNL     1       7.000  -0.191  25.634  0.00  0.00    -0.275 OA
BRANCH  14  16
ATOM     16  C   UNL     1       9.366  -0.628  25.433  0.00  0.00    +0.130 C 
BRANCH  16  17
ATOM     17  C   UNL     1       9.695   0.214  24.223  0.00  0.00    -0.039 A 
ATOM     18  C   UNL     1       9.554  -0.322  22.934  0.00  0.00    +0.004 A 
ATOM     19  C   UNL     1       9.746   0.479  21.806  0.00  0.00    +0.000 A 
ATOM     20  C   UNL     1      10.087   1.821  21.954  0.00  0.00    +0.000 A 
ATOM     21  C   UNL     1      10.265   2.355  23.229  0.00  0.00    +0.000 A 
ATOM     22  C   UNL     1      10.076   1.556  24.359  0.00  0.00    +0.004 A 
ENDBRANCH  16  17
ENDBRANCH  14  16
ENDBRANCH   1  12
BRANCH   3  23
ATOM     23  O   UNL     1       6.811  -2.432  22.425  0.00  0.00    -0.350 OA
ATOM     24  H   UNL     1       6.754  -1.487  22.658  0.00  0.00    +0.225 HD
ENDBRANCH   3  23
BRANCH   6  25
ATOM     25  C   UNL     1       3.997  -6.140  23.419  0.00  0.00    +0.327 C 
ATOM     26  OXT UNL     1       3.182  -5.400  22.887  0.00  0.00    -0.249 OA
BRANCH  25  27
ATOM     27  O   UNL     1       3.753  -7.463  23.586  0.00  0.00    -0.479 OA
ATOM     28  H   UNL     1       3.193  -7.606  24.376  0.00  0.00    +0.295 HD
ENDBRANCH  25  27
ENDBRANCH   6  25
TORSDOF 6
ENDMDL
MODEL 6
REMARK VINA RESULT:      -7.1      3.570      7.943
REMARK  Name = 
REMARK  8 active torsions:
REMARK  status: ('A' for Active; 'I' for Inactive)
REMARK    1  A    between atoms: CA_2  and  N_3
REMARK    2  A    between atoms: C_4  and  C_6
REMARK    3  A    between atoms: C_6  and  C_7
REMARK    4  A    between atoms: S_18  and  O_20
REMARK    5  A    between atoms: C_21  and  C_22
REMARK    6  A    between atoms: C_21  and  C_23
REMARK    7  A    between atoms: CA_24  and  C_26
REMARK    8  A    between atoms: C_26  and  O_27
REMARK                            x       y       z     vdW  Elec       q    Type
REMARK                         _______ _______ _______ _____ _____    ______ ____
ROOT
ATOM      1  CA  UNL     1      10.086  -0.120  22.810  0.00  0.00    +0.190 C 
ATOM      2  C   UNL     1       9.857   1.272  22.192  0.00  0.00    +0.167 C 
ATOM      3  S   UNL     1       8.402   2.244  22.261  0.00  0.00    -0.121 S 
ATOM      4  H   UNL     1       8.390   3.276  21.397  0.00  0.00    +0.111 HD
ATOM      5  C   UNL     1       8.381   2.783  23.973  0.00  0.00    +0.044 C 
ATOM      6  CA  UNL     1       9.911   2.987  24.154  0.00  0.00    +0.201 C 
ATOM      7  C   UNL     1       7.854   1.744  24.974  0.00  0.00    +0.025 C 
ATOM      8  C   UNL     1       7.485   4.014  24.103  0.00  0.00    +0.025 C 
ATOM      9  N   UNL     1      10.558   1.866  23.394  0.00  0.00    -0.271 N 
ATOM     10  C   UNL     1      10.671   0.645  24.016  0.00  0.00    +0.240 C 
ATOM     11  O   UNL     1      10.925   0.371  25.169  0.00  0.00    -0.273 OA
ENDROOT
BRANCH   1  12
ATOM     12  N   UNL     1       8.920  -1.007  23.104  0.00  0.00    -0.301 N 
ATOM     13  H   UNL     1       8.036  -0.568  23.357  0.00  0.00    +0.150 HD
ATOM     14  C   UNL     1       9.129  -2.282  23.609  0.00  0.00    +0.218 C 
ATOM     15  O   UNL     1      10.244  -2.791  23.639  0.00  0.00    -0.275 OA
BRANCH  14  16
ATOM     16  C   UNL     1       7.894  -2.977  24.166  0.00  0.00    +0.130 C 
BRANCH  16  17
ATOM     17  C   UNL     1       7.287  -3.923  23.157  0.00  0.00    -0.039 A 
ATOM     18  C   UNL     1       6.394  -3.440  22.189  0.00  0.00    +0.004 A 
ATOM     19  C   UNL     1       5.913  -4.281  21.183  0.00  0.00    +0.000 A 
ATOM     20  C   UNL     1       6.315  -5.613  21.137  0.00  0.00    +0.000 A 
ATOM     21  C   UNL     1       7.173  -6.113  22.114  0.00  0.00    +0.000 A 
ATOM     22  C   UNL     1       7.654  -5.275  23.124  0.00  0.00    +0.004 A 
ENDBRANCH  16  17
ENDBRANCH  14  16
ENDBRANCH   1  12
BRANCH   3  23
ATOM     23  O   UNL     1       7.164   1.228  22.074  0.00  0.00    -0.350 OA
ATOM     24  H   UNL     1       7.256   0.295  22.345  0.00  0.00    +0.225 HD
ENDBRANCH   3  23
BRANCH   6  25
ATOM     25  C   UNL     1      10.418   4.339  23.621  0.00  0.00    +0.327 C 
ATOM     26  OXT UNL     1       9.975   5.426  23.965  0.00  0.00    -0.249 OA
BRANCH  25  27
ATOM     27  O   UNL     1      11.427   4.234  22.721  0.00  0.00    -0.479 OA
ATOM     28  H   UNL     1      11.882   5.094  22.624  0.00  0.00    +0.295 HD
ENDBRANCH  25  27
ENDBRANCH   6  25
TORSDOF 6
ENDMDL
MODEL 7
REMARK VINA RESULT:      -7.0      1.865      3.154
REMARK  Name = 
REMARK  8 active torsions:
REMARK  status: ('A' for Active; 'I' for Inactive)
REMARK    1  A    between atoms: CA_2  and  N_3
REMARK    2  A    between atoms: C_4  and  C_6
REMARK    3  A    between atoms: C_6  and  C_7
REMARK    4  A    between atoms: S_18  and  O_20
REMARK    5  A    between atoms: C_21  and  C_22
REMARK    6  A    between atoms: C_21  and  C_23
REMARK    7  A    between atoms: CA_24  and  C_26
REMARK    8  A    between atoms: C_26  and  O_27
REMARK                            x       y       z     vdW  Elec       q    Type
REMARK                         _______ _______ _______ _____ _____    ______ ____
ROOT
ATOM      1  CA  UNL     1       8.021  -2.665  22.663  0.00  0.00    +0.190 C 
ATOM      2  C   UNL     1       7.786  -4.138  23.049  0.00  0.00    +0.167 C 
ATOM      3  S   UNL     1       8.394  -4.982  24.458  0.00  0.00    -0.121 S 
ATOM      4  H   UNL     1       8.274  -6.320  24.389  0.00  0.00    +0.111 HD
ATOM      5  C   UNL     1       7.414  -4.272  25.783  0.00  0.00    +0.044 C 
ATOM      6  CA  UNL     1       6.071  -4.139  25.012  0.00  0.00    +0.201 C 
ATOM      7  C   UNL     1       7.889  -2.897  26.278  0.00  0.00    +0.025 C 
ATOM      8  C   UNL     1       7.444  -5.209  26.990  0.00  0.00    +0.025 C 
ATOM      9  N   UNL     1       6.448  -3.722  23.620  0.00  0.00    -0.271 N 
ATOM     10  C   UNL     1       6.687  -2.389  23.387  0.00  0.00    +0.240 C 
ATOM     11  O   UNL     1       6.131  -1.404  23.822  0.00  0.00    -0.273 OA
ENDROOT
BRANCH   1  12
ATOM     12  N   UNL     1       9.213  -1.936  23.191  0.00  0.00    -0.301 N 
ATOM     13  H   UNL     1       9.432  -2.030  24.182  0.00  0.00    +0.150 HD
ATOM     14  C   UNL     1       9.629  -0.757  22.590  0.00  0.00    +0.218 C 
ATOM     15  O   UNL     1       9.176  -0.388  21.512  0.00  0.00    -0.275 OA
BRANCH  14  16
ATOM     16  C   UNL     1      10.637   0.063  23.382  0.00  0.00    +0.130 C 
BRANCH  16  17
ATOM     17  C   UNL     1      10.037   1.359  23.871  0.00  0.00    -0.039 A 
ATOM     18  C   UNL     1      10.521   2.585  23.389  0.00  0.00    +0.004 A 
ATOM     19  C   UNL     1       9.902   3.784  23.747  0.00  0.00    +0.000 A 
ATOM     20  C   UNL     1       8.797   3.772  24.594  0.00  0.00    +0.000 A 
ATOM     21  C   UNL     1       8.329   2.564  25.108  0.00  0.00    +0.000 A 
ATOM     22  C   UNL     1       8.948   1.362  24.753  0.00  0.00    +0.004 A 
ENDBRANCH  16  17
ENDBRANCH  14  16
ENDBRANCH   1  12
BRANCH   3  23
ATOM     23  O   UNL     1       9.910  -4.477  24.674  0.00  0.00    -0.350 OA
ATOM     24  H   UNL     1      10.340  -4.589  25.543  0.00  0.00    +0.225 HD
ENDBRANCH   3  23
BRANCH   6  25
ATOM     25  C   UNL     1       5.258  -5.445  24.963  0.00  0.00    +0.327 C 
ATOM     26  OXT UNL     1       5.376  -6.298  24.095  0.00  0.00    -0.249 OA
BRANCH  25  27
ATOM     27  O   UNL     1       4.383  -5.589  25.988  0.00  0.00    -0.479 OA
ATOM     28  H   UNL     1       4.865  -5.657  26.836  0.00  0.00    +0.295 HD
ENDBRANCH  25  27
ENDBRANCH   6  25
TORSDOF 6
ENDMDL
MODEL 8
REMARK VINA RESULT:      -7.0      1.651      2.132
REMARK  Name = 
REMARK  8 active torsions:
REMARK  status: ('A' for Active; 'I' for Inactive)
REMARK    1  A    between atoms: CA_2  and  N_3
REMARK    2  A    between atoms: C_4  and  C_6
REMARK    3  A    between atoms: C_6  and  C_7
REMARK    4  A    between atoms: S_18  and  O_20
REMARK    5  A    between atoms: C_21  and  C_22
REMARK    6  A    between atoms: C_21  and  C_23
REMARK    7  A    between atoms: CA_24  and  C_26
REMARK    8  A    between atoms: C_26  and  O_27
REMARK                            x       y       z     vdW  Elec       q    Type
REMARK                         _______ _______ _______ _____ _____    ______ ____
ROOT
ATOM      1  CA  UNL     1       8.456  -3.270  26.055  0.00  0.00    +0.190 C 
ATOM      2  C   UNL     1       6.941  -3.546  26.055  0.00  0.00    +0.167 C 
ATOM      3  S   UNL     1       5.761  -3.019  24.874  0.00  0.00    -0.121 S 
ATOM      4  H   UNL     1       4.484  -3.157  25.276  0.00  0.00    +0.111 HD
ATOM      5  C   UNL     1       6.149  -4.049  23.457  0.00  0.00    +0.044 C 
ATOM      6  CA  UNL     1       6.504  -5.351  24.227  0.00  0.00    +0.201 C 
ATOM      7  C   UNL     1       7.346  -3.576  22.619  0.00  0.00    +0.025 C 
ATOM      8  C   UNL     1       4.943  -4.091  22.519  0.00  0.00    +0.025 C 
ATOM      9  N   UNL     1       7.240  -4.903  25.456  0.00  0.00    -0.271 N 
ATOM     10  C   UNL     1       8.583  -4.632  25.342  0.00  0.00    +0.240 C 
ATOM     11  O   UNL     1       9.445  -5.192  24.701  0.00  0.00    -0.273 OA
ENDROOT
BRANCH   1  12
ATOM     12  N   UNL     1       9.001  -2.092  25.314  0.00  0.00    -0.301 N 
ATOM     13  H   UNL     1       9.624  -2.268  24.527  0.00  0.00    +0.150 HD
ATOM     14  C   UNL     1       9.179  -0.882  25.967  0.00  0.00    +0.218 C 
ATOM     15  O   UNL     1       8.721  -0.678  27.086  0.00  0.00    -0.275 OA
BRANCH  14  16
ATOM     16  C   UNL     1      10.021   0.146  25.226  0.00  0.00    +0.130 C 
BRANCH  16  17
ATOM     17  C   UNL     1       9.388   0.537  23.911  0.00  0.00    -0.039 A 
ATOM     18  C   UNL     1       8.235   1.336  23.897  0.00  0.00    +0.004 A 
ATOM     19  C   UNL     1       7.705   1.798  22.689  0.00  0.00    +0.000 A 
ATOM     20  C   UNL     1       8.318   1.460  21.485  0.00  0.00    +0.000 A 
ATOM     21  C   UNL     1       9.443   0.637  21.485  0.00  0.00    +0.000 A 
ATOM     22  C   UNL     1       9.974   0.172  22.692  0.00  0.00    +0.004 A 
ENDBRANCH  16  17
ENDBRANCH  14  16
ENDBRANCH   1  12
BRANCH   3  23
ATOM     23  O   UNL     1       6.155  -1.507  24.477  0.00  0.00    -0.350 OA
ATOM     24  H   UNL     1       6.557  -1.322  23.607  0.00  0.00    +0.225 HD
ENDBRANCH   3  23
BRANCH   6  25
ATOM     25  C   UNL     1       5.273  -6.182  24.631  0.00  0.00    +0.327 C 
ATOM     26  OXT UNL     1       4.631  -6.009  25.657  0.00  0.00    -0.249 OA
BRANCH  25  27
ATOM     27  O   UNL     1       4.936  -7.142  23.735  0.00  0.00    -0.479 OA
ATOM     28  H   UNL     1       5.633  -7.829  23.699  0.00  0.00    +0.295 HD
ENDBRANCH  25  27
ENDBRANCH   6  25
TORSDOF 6
ENDMDL
MODEL 9
REMARK VINA RESULT:      -6.9      2.106      3.162
REMARK  Name = 
REMARK  8 active torsions:
REMARK  status: ('A' for Active; 'I' for Inactive)
REMARK    1  A    between atoms: CA_2  and  N_3
REMARK    2  A    between atoms: C_4  and  C_6
REMARK    3  A    between atoms: C_6  and  C_7
REMARK    4  A    between atoms: S_18  and  O_20
REMARK    5  A    between atoms: C_21  and  C_22
REMARK    6  A    between atoms: C_21  and  C_23
REMARK    7  A    between atoms: CA_24  and  C_26
REMARK    8  A    between atoms: C_26  and  O_27
REMARK                            x       y       z     vdW  Elec       q    Type
REMARK                         _______ _______ _______ _____ _____    ______ ____
ROOT
ATOM      1  CA  UNL     1       8.942  -1.197  25.229  0.00  0.00    +0.190 C 
ATOM      2  C   UNL     1       7.595  -1.876  25.537  0.00  0.00    +0.167 C 
ATOM      3  S   UNL     1       6.145  -1.865  24.555  0.00  0.00    -0.121 S 
ATOM      4  H   UNL     1       5.043  -2.291  25.199  0.00  0.00    +0.111 HD
ATOM      5  C   UNL     1       6.599  -2.937  23.189  0.00  0.00    +0.044 C 
ATOM      6  CA  UNL     1       7.436  -3.970  23.993  0.00  0.00    +0.201 C 
ATOM      7  C   UNL     1       7.460  -2.275  22.102  0.00  0.00    +0.025 C 
ATOM      8  C   UNL     1       5.330  -3.440  22.500  0.00  0.00    +0.025 C 
ATOM      9  N   UNL     1       8.185  -3.168  25.018  0.00  0.00    -0.271 N 
ATOM     10  C   UNL     1       9.354  -2.558  24.631  0.00  0.00    +0.240 C 
ATOM     11  O   UNL     1      10.235  -2.944  23.893  0.00  0.00    -0.273 OA
ENDROOT
BRANCH   1  12
ATOM     12  N   UNL     1       8.995  -0.031  24.296  0.00  0.00    -0.301 N 
ATOM     13  H   UNL     1       8.401  -0.054  23.468  0.00  0.00    +0.150 HD
ATOM     14  C   UNL     1      10.156   0.719  24.187  0.00  0.00    +0.218 C 
ATOM     15  O   UNL     1      11.086   0.588  24.975  0.00  0.00    -0.275 OA
BRANCH  14  16
ATOM     16  C   UNL     1      10.215   1.669  22.999  0.00  0.00    +0.130 C 
BRANCH  16  17
ATOM     17  C   UNL     1      10.349   3.106  23.444  0.00  0.00    -0.039 A 
ATOM     18  C   UNL     1      11.555   3.794  23.245  0.00  0.00    +0.004 A 
ATOM     19  C   UNL     1      11.656   5.153  23.549  0.00  0.00    +0.000 A 
ATOM     20  C   UNL     1      10.556   5.837  24.062  0.00  0.00    +0.000 A 
ATOM     21  C   UNL     1       9.364   5.156  24.298  0.00  0.00    +0.000 A 
ATOM     22  C   UNL     1       9.260   3.795  23.996  0.00  0.00    +0.004 A 
ENDBRANCH  16  17
ENDBRANCH  14  16
ENDBRANCH   1  12
BRANCH   3  23
ATOM     23  O   UNL     1       6.010  -0.374  23.955  0.00  0.00    -0.350 OA
ATOM     24  H   UNL     1       5.438  -0.211  23.183  0.00  0.00    +0.225 HD
ENDBRANCH   3  23
BRANCH   6  25
ATOM     25  C   UNL     1       6.581  -5.042  24.693  0.00  0.00    +0.327 C 
ATOM     26  OXT UNL     1       5.830  -5.813  24.112  0.00  0.00    -0.249 OA
BRANCH  25  27
ATOM     27  O   UNL     1       6.731  -5.075  26.040  0.00  0.00    -0.479 OA
ATOM     28  H   UNL     1       7.622  -4.753  26.288  0.00  0.00    +0.295 HD
ENDBRANCH  25  27
ENDBRANCH   6  25
TORSDOF 6
ENDMDL
