MODEL 1
REMARK VINA RESULT:      -6.2      0.000      0.000
REMARK  Name = 
REMARK  13 active torsions:
REMARK  status: ('A' for Active; 'I' for Inactive)
REMARK    1  A    between atoms: C_1  and  C_2
REMARK    2  A    between atoms: C_2  and  C_3
REMARK    3  A    between atoms: C_2  and  N_4
REMARK    4  A    between atoms: N_4  and  C_5
REMARK    5  A    between atoms: N_4  and  C_23
REMARK    6  A    between atoms: C_5  and  C_6
REMARK    7  A    between atoms: C_6  and  C_7
REMARK    8  A    between atoms: C_7  and  C_9
REMARK    9  A    between atoms: C_7  and  C_15
REMARK   10  A    between atoms: C_16  and  O_17
REMARK   11  A    between atoms: C_20  and  C_21
REMARK   12  A    between atoms: C_23  and  C_24
REMARK   13  A    between atoms: C_23  and  C_25
REMARK                            x       y       z     vdW  Elec       q    Type
REMARK                         _______ _______ _______ _____ _____    ______ ____
ROOT
ATOM      1  C   UNL     1       7.719  -2.106  23.178  0.00  0.00    +0.054 C 
ENDROOT
BRANCH   1   2
ATOM      2  C   UNL     1       8.435  -0.752  23.042  0.00  0.00    +0.002 A 
ATOM      3  C   UNL     1       8.167   0.300  23.945  0.00  0.00    +0.011 A 
ATOM      4  C   UNL     1       8.812   1.539  23.895  0.00  0.00    -0.050 A 
ATOM      5  C   UNL     1       8.410   2.591  24.884  0.00  0.00    +0.044 C 
ATOM      6  C   UNL     1       9.783   1.756  22.923  0.00  0.00    +0.007 A 
ATOM      7  C   UNL     1      10.098   0.734  22.026  0.00  0.00    +0.046 A 
ATOM      8  C   UNL     1       9.440  -0.496  22.094  0.00  0.00    +0.121 A 
BRANCH   8   9
ATOM      9  O   UNL     1       9.852  -1.455  21.215  0.00  0.00    -0.506 OA
ATOM     10  H   UNL     1      10.479  -2.014  21.706  0.00  0.00    +0.292 HD
ENDBRANCH   8   9
ENDBRANCH   1   2
BRANCH   1  11
ATOM     11  C   UNL     1       8.118  -2.913  24.429  0.00  0.00    -0.040 A 
ATOM     12  C   UNL     1       7.250  -2.984  25.529  0.00  0.00    +0.004 A 
ATOM     13  C   UNL     1       7.525  -3.847  26.595  0.00  0.00    +0.000 A 
ATOM     14  C   UNL     1       8.674  -4.638  26.587  0.00  0.00    +0.000 A 
ATOM     15  C   UNL     1       9.561  -4.558  25.522  0.00  0.00    +0.000 A 
ATOM     16  C   UNL     1       9.282  -3.707  24.456  0.00  0.00    +0.004 A 
ENDBRANCH   1  11
BRANCH   1  17
ATOM     17  C   UNL     1       6.176  -2.126  22.955  0.00  0.00    +0.028 C 
BRANCH  17  18
ATOM     18  C   UNL     1       5.611  -3.334  22.184  0.00  0.00    +0.086 C 
BRANCH  18  19
ATOM     19  N   UNL     1       5.456  -4.598  22.960  0.00  0.00    -0.297 NA
BRANCH  19  21
ATOM     20  C   UNL     1       6.117  -5.516  20.683  0.00  0.00    +0.024 C 
ATOM     21  C   UNL     1       6.031  -5.764  22.213  0.00  0.00    +0.051 C 
ATOM     22  C   UNL     1       7.454  -6.175  22.623  0.00  0.00    +0.024 C 
ENDBRANCH  19  21
BRANCH  19  23
ATOM     23  C   UNL     1       4.064  -4.732  23.493  0.00  0.00    +0.051 C 
ATOM     24  C   UNL     1       4.026  -4.751  25.042  0.00  0.00    +0.024 C 
ATOM     25  C   UNL     1       3.317  -6.007  23.069  0.00  0.00    +0.024 C 
ENDBRANCH  19  23
ENDBRANCH  18  19
ENDBRANCH  17  18
ENDBRANCH   1  17
TORSDOF 8
ENDMDL
MODEL 2
REMARK VINA RESULT:      -6.2      1.803      3.963
REMARK  Name = 
REMARK  13 active torsions:
REMARK  status: ('A' for Active; 'I' for Inactive)
REMARK    1  A    between atoms: C_1  and  C_2
REMARK    2  A    between atoms: C_2  and  C_3
REMARK    3  A    between atoms: C_2  and  N_4
REMARK    4  A    between atoms: N_4  and  C_5
REMARK    5  A    between atoms: N_4  and  C_23
REMARK    6  A    between atoms: C_5  and  C_6
REMARK    7  A    between atoms: C_6  and  C_7
REMARK    8  A    between atoms: C_7  and  C_9
REMARK    9  A    between atoms: C_7  and  C_15
REMARK   10  A    between atoms: C_16  and  O_17
REMARK   11  A    between atoms: C_20  and  C_21
REMARK   12  A    between atoms: C_23  and  C_24
REMARK   13  A    between atoms: C_23  and  C_25
REMARK                            x       y       z     vdW  Elec       q    Type
REMARK                         _______ _______ _______ _____ _____    ______ ____
ROOT
ATOM      1  C   UNL     1       7.725  -2.276  23.714  0.00  0.00    +0.054 C 
ENDROOT
BRANCH   1   2
ATOM      2  C   UNL     1       8.006  -1.005  22.895  0.00  0.00    +0.002 A 
ATOM      3  C   UNL     1       7.182   0.134  23.027  0.00  0.00    +0.011 A 
ATOM      4  C   UNL     1       7.409   1.330  22.338  0.00  0.00    -0.050 A 
ATOM      5  C   UNL     1       6.438   2.456  22.530  0.00  0.00    +0.044 C 
ATOM      6  C   UNL     1       8.508   1.423  21.491  0.00  0.00    +0.007 A 
ATOM      7  C   UNL     1       9.363   0.330  21.352  0.00  0.00    +0.046 A 
ATOM      8  C   UNL     1       9.117  -0.855  22.049  0.00  0.00    +0.121 A 
BRANCH   8   9
ATOM      9  O   UNL     1      10.036  -1.852  21.897  0.00  0.00    -0.506 OA
ATOM     10  H   UNL     1      10.379  -1.762  20.991  0.00  0.00    +0.292 HD
ENDBRANCH   8   9
ENDBRANCH   1   2
BRANCH   1  11
ATOM     11  C   UNL     1       7.376  -3.514  22.867  0.00  0.00    -0.040 A 
ATOM     12  C   UNL     1       7.919  -4.767  23.189  0.00  0.00    +0.004 A 
ATOM     13  C   UNL     1       7.479  -5.922  22.535  0.00  0.00    +0.000 A 
ATOM     14  C   UNL     1       6.505  -5.843  21.540  0.00  0.00    +0.000 A 
ATOM     15  C   UNL     1       5.979  -4.608  21.183  0.00  0.00    +0.000 A 
ATOM     16  C   UNL     1       6.409  -3.460  21.842  0.00  0.00    +0.004 A 
ENDBRANCH   1  11
BRANCH   1  17
ATOM     17  C   UNL     1       8.729  -2.631  24.853  0.00  0.00    +0.028 C 
BRANCH  17  18
ATOM     18  C   UNL     1       8.134  -2.797  26.265  0.00  0.00    +0.086 C 
BRANCH  18  19
ATOM     19  N   UNL     1       6.665  -3.041  26.336  0.00  0.00    -0.297 NA
BRANCH  19  21
ATOM     20  C   UNL     1       6.806  -0.599  27.029  0.00  0.00    +0.024 C 
ATOM     21  C   UNL     1       5.960  -1.900  27.005  0.00  0.00    +0.051 C 
ATOM     22  C   UNL     1       4.623  -1.484  26.371  0.00  0.00    +0.024 C 
ENDBRANCH  19  21
BRANCH  19  23
ATOM     23  C   UNL     1       6.375  -4.423  26.829  0.00  0.00    +0.051 C 
ATOM     24  C   UNL     1       7.661  -5.268  27.005  0.00  0.00    +0.024 C 
ATOM     25  C   UNL     1       5.473  -5.271  25.919  0.00  0.00    +0.024 C 
ENDBRANCH  19  23
ENDBRANCH  18  19
ENDBRANCH  17  18
ENDBRANCH   1  17
TORSDOF 8
ENDMDL
MODEL 3
REMARK VINA RESULT:      -6.0      1.429      2.082
REMARK  Name = 
REMARK  13 active torsions:
REMARK  status: ('A' for Active; 'I' for Inactive)
REMARK    1  A    between atoms: C_1  and  C_2
REMARK    2  A    between atoms: C_2  and  C_3
REMARK    3  A    between atoms: C_2  and  N_4
REMARK    4  A    between atoms: N_4  and  C_5
REMARK    5  A    between atoms: N_4  and  C_23
REMARK    6  A    between atoms: C_5  and  C_6
REMARK    7  A    between atoms: C_6  and  C_7
REMARK    8  A    between atoms: C_7  and  C_9
REMARK    9  A    between atoms: C_7  and  C_15
REMARK   10  A    between atoms: C_16  and  O_17
REMARK   11  A    between atoms: C_20  and  C_21
REMARK   12  A    between atoms: C_23  and  C_24
REMARK   13  A    between atoms: C_23  and  C_25
REMARK                            x       y       z     vdW  Elec       q    Type
REMARK                         _______ _______ _______ _____ _____    ______ ____
ROOT
ATOM      1  C   UNL     1       7.918  -2.810  22.572  0.00  0.00    +0.054 C 
ENDROOT
BRANCH   1   2
ATOM      2  C   UNL     1       8.190  -1.309  22.371  0.00  0.00    +0.002 A 
ATOM      3  C   UNL     1       7.243  -0.344  22.777  0.00  0.00    +0.011 A 
ATOM      4  C   UNL     1       7.450   1.033  22.655  0.00  0.00    -0.050 A 
ATOM      5  C   UNL     1       6.351   1.958  23.083  0.00  0.00    +0.044 C 
ATOM      6  C   UNL     1       8.652   1.492  22.126  0.00  0.00    +0.007 A 
ATOM      7  C   UNL     1       9.626   0.572  21.737  0.00  0.00    +0.046 A 
ATOM      8  C   UNL     1       9.398  -0.800  21.867  0.00  0.00    +0.121 A 
BRANCH   8   9
ATOM      9  O   UNL     1      10.428  -1.623  21.515  0.00  0.00    -0.506 OA
ATOM     10  H   UNL     1      10.028  -2.342  20.996  0.00  0.00    +0.292 HD
ENDBRANCH   8   9
ENDBRANCH   1   2
BRANCH   1  11
ATOM     11  C   UNL     1       8.306  -3.346  23.963  0.00  0.00    -0.040 A 
ATOM     12  C   UNL     1       8.397  -2.472  25.057  0.00  0.00    +0.004 A 
ATOM     13  C   UNL     1       8.581  -2.971  26.350  0.00  0.00    +0.000 A 
ATOM     14  C   UNL     1       8.692  -4.343  26.570  0.00  0.00    +0.000 A 
ATOM     15  C   UNL     1       8.637  -5.222  25.497  0.00  0.00    +0.000 A 
ATOM     16  C   UNL     1       8.443  -4.727  24.211  0.00  0.00    +0.004 A 
ENDBRANCH   1  11
BRANCH   1  17
ATOM     17  C   UNL     1       6.527  -3.352  22.121  0.00  0.00    +0.028 C 
BRANCH  17  18
ATOM     18  C   UNL     1       5.348  -3.097  23.079  0.00  0.00    +0.086 C 
BRANCH  18  19
ATOM     19  N   UNL     1       5.029  -4.193  24.038  0.00  0.00    -0.297 NA
BRANCH  19  21
ATOM     20  C   UNL     1       4.632  -6.701  23.911  0.00  0.00    +0.024 C 
ATOM     21  C   UNL     1       4.267  -5.294  23.365  0.00  0.00    +0.051 C 
ATOM     22  C   UNL     1       2.738  -5.212  23.487  0.00  0.00    +0.024 C 
ENDBRANCH  19  21
BRANCH  19  23
ATOM     23  C   UNL     1       4.475  -3.644  25.314  0.00  0.00    +0.051 C 
ATOM     24  C   UNL     1       4.776  -2.134  25.486  0.00  0.00    +0.024 C 
ATOM     25  C   UNL     1       5.010  -4.296  26.599  0.00  0.00    +0.024 C 
ENDBRANCH  19  23
ENDBRANCH  18  19
ENDBRANCH  17  18
ENDBRANCH   1  17
TORSDOF 8
ENDMDL
MODEL 4
REMARK VINA RESULT:      -6.0      1.138      2.111
REMARK  Name = 
REMARK  13 active torsions:
REMARK  status: ('A' for Active; 'I' for Inactive)
REMARK    1  A    between atoms: C_1  and  C_2
REMARK    2  A    between atoms: C_2  and  C_3
REMARK    3  A    between atoms: C_2  and  N_4
REMARK    4  A    between atoms: N_4  and  C_5
REMARK    5  A    between atoms: N_4  and  C_23
REMARK    6  A    between atoms: C_5  and  C_6
REMARK    7  A    between atoms: C_6  and  C_7
REMARK    8  A    between atoms: C_7  and  C_9
REMARK    9  A    between atoms: C_7  and  C_15
REMARK   10  A    between atoms: C_16  and  O_17
REMARK   11  A    between atoms: C_20  and  C_21
REMARK   12  A    between atoms: C_23  and  C_24
REMARK   13  A    between atoms: C_23  and  C_25
REMARK                            x       y       z     vdW  Elec       q    Type
REMARK                         _______ _______ _______ _____ _____    ______ ____
ROOT
ATOM      1  C   UNL     1       7.464  -2.154  22.919  0.00  0.00    +0.054 C 
ENDROOT
BRANCH   1   2
ATOM      2  C   UNL     1       8.060  -0.780  22.570  0.00  0.00    +0.002 A 
ATOM      3  C   UNL     1       7.385   0.409  22.923  0.00  0.00    +0.011 A 
ATOM      4  C   UNL     1       7.894   1.686  22.667  0.00  0.00    -0.050 A 
ATOM      5  C   UNL     1       7.063   2.872  23.052  0.00  0.00    +0.044 C 
ATOM      6  C   UNL     1       9.135   1.807  22.051  0.00  0.00    +0.007 A 
ATOM      7  C   UNL     1       9.847   0.658  21.708  0.00  0.00    +0.046 A 
ATOM      8  C   UNL     1       9.319  -0.608  21.973  0.00  0.00    +0.121 A 
BRANCH   8   9
ATOM      9  O   UNL     1      10.110  -1.674  21.657  0.00  0.00    -0.506 OA
ATOM     10  H   UNL     1      11.027  -1.367  21.768  0.00  0.00    +0.292 HD
ENDBRANCH   8   9
ENDBRANCH   1   2
BRANCH   1  11
ATOM     11  C   UNL     1       8.107  -2.834  24.144  0.00  0.00    -0.040 A 
ATOM     12  C   UNL     1       8.100  -2.193  25.391  0.00  0.00    +0.004 A 
ATOM     13  C   UNL     1       8.526  -2.869  26.539  0.00  0.00    +0.000 A 
ATOM     14  C   UNL     1       8.979  -4.185  26.457  0.00  0.00    +0.000 A 
ATOM     15  C   UNL     1       9.024  -4.826  25.226  0.00  0.00    +0.000 A 
ATOM     16  C   UNL     1       8.590  -4.157  24.085  0.00  0.00    +0.004 A 
ENDBRANCH   1  11
BRANCH   1  17
ATOM     17  C   UNL     1       5.910  -2.274  22.952  0.00  0.00    +0.028 C 
BRANCH  17  18
ATOM     18  C   UNL     1       5.316  -3.623  22.503  0.00  0.00    +0.086 C 
BRANCH  18  19
ATOM     19  N   UNL     1       4.648  -4.433  23.561  0.00  0.00    -0.297 NA
BRANCH  19  21
ATOM     20  C   UNL     1       2.877  -3.542  25.153  0.00  0.00    +0.024 C 
ATOM     21  C   UNL     1       4.383  -3.609  24.786  0.00  0.00    +0.051 C 
ATOM     22  C   UNL     1       5.077  -4.091  26.070  0.00  0.00    +0.024 C 
ENDBRANCH  19  21
BRANCH  19  23
ATOM     23  C   UNL     1       5.336  -5.748  23.744  0.00  0.00    +0.051 C 
ATOM     24  C   UNL     1       6.082  -6.206  22.465  0.00  0.00    +0.024 C 
ATOM     25  C   UNL     1       4.419  -6.928  24.103  0.00  0.00    +0.024 C 
ENDBRANCH  19  23
ENDBRANCH  18  19
ENDBRANCH  17  18
ENDBRANCH   1  17
TORSDOF 8
ENDMDL
MODEL 5
REMARK VINA RESULT:      -6.0      2.504      6.473
REMARK  Name = 
REMARK  13 active torsions:
REMARK  status: ('A' for Active; 'I' for Inactive)
REMARK    1  A    between atoms: C_1  and  C_2
REMARK    2  A    between atoms: C_2  and  C_3
REMARK    3  A    between atoms: C_2  and  N_4
REMARK    4  A    between atoms: N_4  and  C_5
REMARK    5  A    between atoms: N_4  and  C_23
REMARK    6  A    between atoms: C_5  and  C_6
REMARK    7  A    between atoms: C_6  and  C_7
REMARK    8  A    between atoms: C_7  and  C_9
REMARK    9  A    between atoms: C_7  and  C_15
REMARK   10  A    between atoms: C_16  and  O_17
REMARK   11  A    between atoms: C_20  and  C_21
REMARK   12  A    between atoms: C_23  and  C_24
REMARK   13  A    between atoms: C_23  and  C_25
REMARK                            x       y       z     vdW  Elec       q    Type
REMARK                         _______ _______ _______ _____ _____    ______ ____
ROOT
ATOM      1  C   UNL     1       7.540  -3.372  25.315  0.00  0.00    +0.054 C 
ENDROOT
BRANCH   1   2
ATOM      2  C   UNL     1       6.759  -4.033  26.463  0.00  0.00    +0.002 A 
ATOM      3  C   UNL     1       5.482  -3.558  26.833  0.00  0.00    +0.011 A 
ATOM      4  C   UNL     1       4.709  -4.141  27.842  0.00  0.00    -0.050 A 
ATOM      5  C   UNL     1       3.386  -3.519  28.173  0.00  0.00    +0.044 C 
ATOM      6  C   UNL     1       5.201  -5.257  28.511  0.00  0.00    +0.007 A 
ATOM      7  C   UNL     1       6.447  -5.775  28.158  0.00  0.00    +0.046 A 
ATOM      8  C   UNL     1       7.203  -5.176  27.148  0.00  0.00    +0.121 A 
BRANCH   8   9
ATOM      9  O   UNL     1       8.383  -5.784  26.831  0.00  0.00    -0.506 OA
ATOM     10  H   UNL     1       8.891  -5.130  26.321  0.00  0.00    +0.292 HD
ENDBRANCH   8   9
ENDBRANCH   1   2
BRANCH   1  11
ATOM     11  C   UNL     1       7.192  -3.911  23.914  0.00  0.00    -0.040 A 
ATOM     12  C   UNL     1       7.713  -5.139  23.480  0.00  0.00    +0.004 A 
ATOM     13  C   UNL     1       7.270  -5.715  22.285  0.00  0.00    +0.000 A 
ATOM     14  C   UNL     1       6.315  -5.070  21.500  0.00  0.00    +0.000 A 
ATOM     15  C   UNL     1       5.811  -3.839  21.897  0.00  0.00    +0.000 A 
ATOM     16  C   UNL     1       6.244  -3.269  23.091  0.00  0.00    +0.004 A 
ENDBRANCH   1  11
BRANCH   1  17
ATOM     17  C   UNL     1       7.637  -1.816  25.318  0.00  0.00    +0.028 C 
BRANCH  17  18
ATOM     18  C   UNL     1       8.860  -1.203  24.609  0.00  0.00    +0.086 C 
BRANCH  18  19
ATOM     19  N   UNL     1       8.586  -0.063  23.689  0.00  0.00    -0.297 NA
BRANCH  19  21
ATOM     20  C   UNL     1       9.174   0.576  21.300  0.00  0.00    +0.024 C 
ATOM     21  C   UNL     1       8.609  -0.507  22.257  0.00  0.00    +0.051 C 
ATOM     22  C   UNL     1       9.448  -1.761  21.967  0.00  0.00    +0.024 C 
ENDBRANCH  19  21
BRANCH  19  23
ATOM     23  C   UNL     1       9.405   1.133  24.059  0.00  0.00    +0.051 C 
ATOM     24  C   UNL     1      10.721   0.746  24.780  0.00  0.00    +0.024 C 
ATOM     25  C   UNL     1       8.721   2.131  25.006  0.00  0.00    +0.024 C 
ENDBRANCH  19  23
ENDBRANCH  18  19
ENDBRANCH  17  18
ENDBRANCH   1  17
TORSDOF 8
ENDMDL
MODEL 6
REMARK VINA RESULT:      -5.7      1.928      3.823
REMARK  Name = 
REMARK  13 active torsions:
REMARK  status: ('A' for Active; 'I' for Inactive)
REMARK    1  A    between atoms: C_1  and  C_2
REMARK    2  A    between atoms: C_2  and  C_3
REMARK    3  A    between atoms: C_2  and  N_4
REMARK    4  A    between atoms: N_4  and  C_5
REMARK    5  A    between atoms: N_4  and  C_23
REMARK    6  A    between atoms: C_5  and  C_6
REMARK    7  A    between atoms: C_6  and  C_7
REMARK    8  A    between atoms: C_7  and  C_9
REMARK    9  A    between atoms: C_7  and  C_15
REMARK   10  A    between atoms: C_16  and  O_17
REMARK   11  A    between atoms: C_20  and  C_21
REMARK   12  A    between atoms: C_23  and  C_24
REMARK   13  A    between atoms: C_23  and  C_25
REMARK                            x       y       z     vdW  Elec       q    Type
REMARK                         _______ _______ _______ _____ _____    ______ ____
ROOT
ATOM      1  C   UNL     1       7.503  -2.405  23.744  0.00  0.00    +0.054 C 
ENDROOT
BRANCH   1   2
ATOM      2  C   UNL     1       8.228  -1.264  23.011  0.00  0.00    +0.002 A 
ATOM      3  C   UNL     1       7.576  -0.036  22.765  0.00  0.00    +0.011 A 
ATOM      4  C   UNL     1       8.194   1.050  22.138  0.00  0.00    -0.050 A 
ATOM      5  C   UNL     1       7.383   2.287  21.895  0.00  0.00    +0.044 C 
ATOM      6  C   UNL     1       9.524   0.937  21.748  0.00  0.00    +0.007 A 
ATOM      7  C   UNL     1      10.214  -0.250  21.995  0.00  0.00    +0.046 A 
ATOM      8  C   UNL     1       9.576  -1.323  22.623  0.00  0.00    +0.121 A 
BRANCH   8   9
ATOM      9  O   UNL     1      10.344  -2.422  22.876  0.00  0.00    -0.506 OA
ATOM     10  H   UNL     1      11.154  -2.089  23.299  0.00  0.00    +0.292 HD
ENDBRANCH   8   9
ENDBRANCH   1   2
BRANCH   1  11
ATOM     11  C   UNL     1       7.240  -3.652  22.877  0.00  0.00    -0.040 A 
ATOM     12  C   UNL     1       7.845  -4.876  23.198  0.00  0.00    +0.004 A 
ATOM     13  C   UNL     1       7.483  -6.046  22.523  0.00  0.00    +0.000 A 
ATOM     14  C   UNL     1       6.526  -6.010  21.509  0.00  0.00    +0.000 A 
ATOM     15  C   UNL     1       5.939  -4.802  21.155  0.00  0.00    +0.000 A 
ATOM     16  C   UNL     1       6.292  -3.640  21.833  0.00  0.00    +0.004 A 
ENDBRANCH   1  11
BRANCH   1  17
ATOM     17  C   UNL     1       8.030  -2.797  25.158  0.00  0.00    +0.028 C 
BRANCH  17  18
ATOM     18  C   UNL     1       7.272  -2.202  26.361  0.00  0.00    +0.086 C 
BRANCH  18  19
ATOM     19  N   UNL     1       6.259  -3.088  27.005  0.00  0.00    -0.297 NA
BRANCH  19  21
ATOM     20  C   UNL     1       6.619  -5.512  27.680  0.00  0.00    +0.024 C 
ATOM     21  C   UNL     1       6.394  -4.501  26.524  0.00  0.00    +0.051 C 
ATOM     22  C   UNL     1       5.188  -5.055  25.750  0.00  0.00    +0.024 C 
ENDBRANCH  19  21
BRANCH  19  23
ATOM     23  C   UNL     1       4.899  -2.466  26.961  0.00  0.00    +0.051 C 
ATOM     24  C   UNL     1       4.920  -1.046  26.342  0.00  0.00    +0.024 C 
ATOM     25  C   UNL     1       4.214  -2.286  28.325  0.00  0.00    +0.024 C 
ENDBRANCH  19  23
ENDBRANCH  18  19
ENDBRANCH  17  18
ENDBRANCH   1  17
TORSDOF 8
ENDMDL
MODEL 7
REMARK VINA RESULT:      -5.6      3.418      6.537
REMARK  Name = 
REMARK  13 active torsions:
REMARK  status: ('A' for Active; 'I' for Inactive)
REMARK    1  A    between atoms: C_1  and  C_2
REMARK    2  A    between atoms: C_2  and  C_3
REMARK    3  A    between atoms: C_2  and  N_4
REMARK    4  A    between atoms: N_4  and  C_5
REMARK    5  A    between atoms: N_4  and  C_23
REMARK    6  A    between atoms: C_5  and  C_6
REMARK    7  A    between atoms: C_6  and  C_7
REMARK    8  A    between atoms: C_7  and  C_9
REMARK    9  A    between atoms: C_7  and  C_15
REMARK   10  A    between atoms: C_16  and  O_17
REMARK   11  A    between atoms: C_20  and  C_21
REMARK   12  A    between atoms: C_23  and  C_24
REMARK   13  A    between atoms: C_23  and  C_25
REMARK                            x       y       z     vdW  Elec       q    Type
REMARK                         _______ _______ _______ _____ _____    ______ ____
ROOT
ATOM      1  C   UNL     1       9.236   2.422  24.348  0.00  0.00    +0.054 C 
ENDROOT
BRANCH   1   2
ATOM      2  C   UNL     1       9.363   1.198  23.425  0.00  0.00    +0.002 A 
ATOM      3  C   UNL     1       9.637  -0.081  23.958  0.00  0.00    +0.011 A 
ATOM      4  C   UNL     1       9.728  -1.236  23.174  0.00  0.00    -0.050 A 
ATOM      5  C   UNL     1      10.065  -2.529  23.851  0.00  0.00    +0.044 C 
ATOM      6  C   UNL     1       9.521  -1.139  21.802  0.00  0.00    +0.007 A 
ATOM      7  C   UNL     1       9.222   0.102  21.238  0.00  0.00    +0.046 A 
ATOM      8  C   UNL     1       9.138   1.242  22.040  0.00  0.00    +0.121 A 
BRANCH   8   9
ATOM      9  O   UNL     1       8.784   2.401  21.412  0.00  0.00    -0.506 OA
ATOM     10  H   UNL     1       9.319   3.101  21.824  0.00  0.00    +0.292 HD
ENDBRANCH   8   9
ENDBRANCH   1   2
BRANCH   1  11
ATOM     11  C   UNL     1      10.071   3.639  23.908  0.00  0.00    -0.040 A 
ATOM     12  C   UNL     1       9.554   4.937  24.043  0.00  0.00    +0.004 A 
ATOM     13  C   UNL     1      10.365   6.052  23.806  0.00  0.00    +0.000 A 
ATOM     14  C   UNL     1      11.694   5.891  23.418  0.00  0.00    +0.000 A 
ATOM     15  C   UNL     1      12.215   4.615  23.248  0.00  0.00    +0.000 A 
ATOM     16  C   UNL     1      11.412   3.505  23.493  0.00  0.00    +0.004 A 
ENDBRANCH   1  11
BRANCH   1  17
ATOM     17  C   UNL     1       7.800   2.844  24.783  0.00  0.00    +0.028 C 
BRANCH  17  18
ATOM     18  C   UNL     1       6.749   1.720  24.865  0.00  0.00    +0.086 C 
BRANCH  18  19
ATOM     19  N   UNL     1       6.710   0.946  26.139  0.00  0.00    -0.297 NA
BRANCH  19  21
ATOM     20  C   UNL     1       6.073  -0.787  24.391  0.00  0.00    +0.024 C 
ATOM     21  C   UNL     1       6.294  -0.473  25.895  0.00  0.00    +0.051 C 
ATOM     22  C   UNL     1       7.285  -1.545  26.376  0.00  0.00    +0.024 C 
ENDBRANCH  19  21
BRANCH  19  23
ATOM     23  C   UNL     1       5.991   1.708  27.206  0.00  0.00    +0.051 C 
ATOM     24  C   UNL     1       6.380   1.235  28.630  0.00  0.00    +0.024 C 
ATOM     25  C   UNL     1       4.458   1.608  27.167  0.00  0.00    +0.024 C 
ENDBRANCH  19  23
ENDBRANCH  18  19
ENDBRANCH  17  18
ENDBRANCH   1  17
TORSDOF 8
ENDMDL
MODEL 8
REMARK VINA RESULT:      -5.5      2.417      5.929
REMARK  Name = 
REMARK  13 active torsions:
REMARK  status: ('A' for Active; 'I' for Inactive)
REMARK    1  A    between atoms: C_1  and  C_2
REMARK    2  A    between atoms: C_2  and  C_3
REMARK    3  A    between atoms: C_2  and  N_4
REMARK    4  A    between atoms: N_4  and  C_5
REMARK    5  A    between atoms: N_4  and  C_23
REMARK    6  A    between atoms: C_5  and  C_6
REMARK    7  A    between atoms: C_6  and  C_7
REMARK    8  A    between atoms: C_7  and  C_9
REMARK    9  A    between atoms: C_7  and  C_15
REMARK   10  A    between atoms: C_16  and  O_17
REMARK   11  A    between atoms: C_20  and  C_21
REMARK   12  A    between atoms: C_23  and  C_24
REMARK   13  A    between atoms: C_23  and  C_25
REMARK                            x       y       z     vdW  Elec       q    Type
REMARK                         _______ _______ _______ _____ _____    ______ ____
ROOT
ATOM      1  C   UNL     1       5.526  -2.053  24.235  0.00  0.00    +0.054 C 
ENDROOT
BRANCH   1   2
ATOM      2  C   UNL     1       6.357  -3.262  23.776  0.00  0.00    +0.002 A 
ATOM      3  C   UNL     1       7.336  -3.828  24.622  0.00  0.00    +0.011 A 
ATOM      4  C   UNL     1       8.096  -4.949  24.275  0.00  0.00    -0.050 A 
ATOM      5  C   UNL     1       9.135  -5.430  25.243  0.00  0.00    +0.044 C 
ATOM      6  C   UNL     1       7.876  -5.560  23.046  0.00  0.00    +0.007 A 
ATOM      7  C   UNL     1       6.900  -5.049  22.190  0.00  0.00    +0.046 A 
ATOM      8  C   UNL     1       6.153  -3.928  22.556  0.00  0.00    +0.121 A 
BRANCH   8   9
ATOM      9  O   UNL     1       5.182  -3.533  21.683  0.00  0.00    -0.506 OA
ATOM     10  H   UNL     1       4.379  -3.404  22.217  0.00  0.00    +0.292 HD
ENDBRANCH   8   9
ENDBRANCH   1   2
BRANCH   1  11
ATOM     11  C   UNL     1       4.704  -2.295  25.516  0.00  0.00    -0.040 A 
ATOM     12  C   UNL     1       3.612  -3.175  25.498  0.00  0.00    +0.004 A 
ATOM     13  C   UNL     1       2.967  -3.530  26.687  0.00  0.00    +0.000 A 
ATOM     14  C   UNL     1       3.391  -3.003  27.906  0.00  0.00    +0.000 A 
ATOM     15  C   UNL     1       4.450  -2.105  27.940  0.00  0.00    +0.000 A 
ATOM     16  C   UNL     1       5.098  -1.759  26.759  0.00  0.00    +0.004 A 
ENDBRANCH   1  11
BRANCH   1  17
ATOM     17  C   UNL     1       6.238  -0.666  24.270  0.00  0.00    +0.028 C 
BRANCH  17  18
ATOM     18  C   UNL     1       7.093  -0.303  23.040  0.00  0.00    +0.086 C 
BRANCH  18  19
ATOM     19  N   UNL     1       8.461   0.221  23.320  0.00  0.00    -0.297 NA
BRANCH  19  21
ATOM     20  C   UNL     1       9.979   1.917  22.188  0.00  0.00    +0.024 C 
ATOM     21  C   UNL     1       8.603   1.637  22.849  0.00  0.00    +0.051 C 
ATOM     22  C   UNL     1       7.569   2.095  21.808  0.00  0.00    +0.024 C 
ENDBRANCH  19  21
BRANCH  19  23
ATOM     23  C   UNL     1       9.507  -0.760  22.898  0.00  0.00    +0.051 C 
ATOM     24  C   UNL     1       9.008  -1.710  21.780  0.00  0.00    +0.024 C 
ATOM     25  C   UNL     1      10.017  -1.697  24.005  0.00  0.00    +0.024 C 
ENDBRANCH  19  23
ENDBRANCH  18  19
ENDBRANCH  17  18
ENDBRANCH   1  17
TORSDOF 8
ENDMDL
MODEL 9
REMARK VINA RESULT:      -5.5      3.601      6.892
REMARK  Name = 
REMARK  13 active torsions:
REMARK  status: ('A' for Active; 'I' for Inactive)
REMARK    1  A    between atoms: C_1  and  C_2
REMARK    2  A    between atoms: C_2  and  C_3
REMARK    3  A    between atoms: C_2  and  N_4
REMARK    4  A    between atoms: N_4  and  C_5
REMARK    5  A    between atoms: N_4  and  C_23
REMARK    6  A    between atoms: C_5  and  C_6
REMARK    7  A    between atoms: C_6  and  C_7
REMARK    8  A    between atoms: C_7  and  C_9
REMARK    9  A    between atoms: C_7  and  C_15
REMARK   10  A    between atoms: C_16  and  O_17
REMARK   11  A    between atoms: C_20  and  C_21
REMARK   12  A    between atoms: C_23  and  C_24
REMARK   13  A    between atoms: C_23  and  C_25
REMARK                            x       y       z     vdW  Elec       q    Type
REMARK                         _______ _______ _______ _____ _____    ______ ____
ROOT
ATOM      1  C   UNL     1       9.209   2.452  24.331  0.00  0.00    +0.054 C 
ENDROOT
BRANCH   1   2
ATOM      2  C   UNL     1       9.344   1.223  23.416  0.00  0.00    +0.002 A 
ATOM      3  C   UNL     1       9.617  -0.053  23.958  0.00  0.00    +0.011 A 
ATOM      4  C   UNL     1       9.714  -1.212  23.182  0.00  0.00    -0.050 A 
ATOM      5  C   UNL     1      10.049  -2.501  23.869  0.00  0.00    +0.044 C 
ATOM      6  C   UNL     1       9.516  -1.123  21.808  0.00  0.00    +0.007 A 
ATOM      7  C   UNL     1       9.219   0.113  21.235  0.00  0.00    +0.046 A 
ATOM      8  C   UNL     1       9.128   1.259  22.029  0.00  0.00    +0.121 A 
BRANCH   8   9
ATOM      9  O   UNL     1       8.776   2.413  21.392  0.00  0.00    -0.506 OA
ATOM     10  H   UNL     1       9.467   2.570  20.726  0.00  0.00    +0.292 HD
ENDBRANCH   8   9
ENDBRANCH   1   2
BRANCH   1  11
ATOM     11  C   UNL     1      10.074   3.656  23.910  0.00  0.00    -0.040 A 
ATOM     12  C   UNL     1       9.595   4.963  24.080  0.00  0.00    +0.004 A 
ATOM     13  C   UNL     1      10.433   6.060  23.860  0.00  0.00    +0.000 A 
ATOM     14  C   UNL     1      11.754   5.872  23.454  0.00  0.00    +0.000 A 
ATOM     15  C   UNL     1      12.237   4.586  23.249  0.00  0.00    +0.000 A 
ATOM     16  C   UNL     1      11.406   3.493  23.478  0.00  0.00    +0.004 A 
ENDBRANCH   1  11
BRANCH   1  17
ATOM     17  C   UNL     1       7.768   2.897  24.724  0.00  0.00    +0.028 C 
BRANCH  17  18
ATOM     18  C   UNL     1       7.188   2.281  26.013  0.00  0.00    +0.086 C 
BRANCH  18  19
ATOM     19  N   UNL     1       5.849   1.638  25.891  0.00  0.00    -0.297 NA
BRANCH  19  21
ATOM     20  C   UNL     1       3.498   1.527  26.852  0.00  0.00    +0.024 C 
ATOM     21  C   UNL     1       4.857   2.276  26.815  0.00  0.00    +0.051 C 
ATOM     22  C   UNL     1       5.290   2.372  28.287  0.00  0.00    +0.024 C 
ENDBRANCH  19  21
BRANCH  19  23
ATOM     23  C   UNL     1       5.966   0.147  25.920  0.00  0.00    +0.051 C 
ATOM     24  C   UNL     1       7.234  -0.330  26.673  0.00  0.00    +0.024 C 
ATOM     25  C   UNL     1       6.051  -0.534  24.545  0.00  0.00    +0.024 C 
ENDBRANCH  19  23
ENDBRANCH  18  19
ENDBRANCH  17  18
ENDBRANCH   1  17
TORSDOF 8
ENDMDL
