MODEL 1
REMARK VINA RESULT:      -7.2      0.000      0.000
REMARK  Name = 
REMARK  4 active torsions:
REMARK  status: ('A' for Active; 'I' for Inactive)
REMARK    1  A    between atoms: O_1  and  C_2
REMARK    2  A    between atoms: C_8  and  C_11
REMARK    3  A    between atoms: C_15  and  O_16
REMARK    4  A    between atoms: C_18  and  O_19
REMARK                            x       y       z     vdW  Elec       q    Type
REMARK                         _______ _______ _______ _____ _____    ______ ____
ROOT
ATOM      1  C   UNL     1       7.499  -4.641  27.004  0.00  0.00    +0.120 A 
ATOM      2  C   UNL     1       6.887  -3.404  26.837  0.00  0.00    +0.046 A 
ATOM      3  C   UNL     1       7.375  -2.482  25.898  0.00  0.00    +0.017 A 
ATOM      4  C   UNL     1       8.519  -2.811  25.146  0.00  0.00    +0.049 A 
ATOM      5  C   UNL     1       9.365  -2.208  24.156  0.00  0.00    +0.125 A 
ATOM      6  N   UNL     1      10.319  -3.082  23.775  0.00  0.00    -0.077 NA
ATOM      7  O   UNL     1      10.138  -4.223  24.522  0.00  0.00    -0.354 OA
ATOM      8  C   UNL     1       9.074  -4.066  25.344  0.00  0.00    +0.171 A 
ATOM      9  C   UNL     1       8.611  -5.019  26.254  0.00  0.00    +0.095 A 
ENDROOT
BRANCH   5  10
ATOM     10  C   UNL     1       9.337  -0.870  23.541  0.00  0.00    +0.047 A 
ATOM     11  C   UNL     1       9.576  -0.633  22.175  0.00  0.00    +0.130 A 
ATOM     12  C   UNL     1       9.474   0.654  21.635  0.00  0.00    +0.092 A 
ATOM     13  C   UNL     1       9.100   1.715  22.448  0.00  0.00    +0.134 A 
ATOM     14  C   UNL     1       8.855   1.512  23.803  0.00  0.00    +0.060 A 
ATOM     15 BR   UNL     1       8.322   2.947  24.917  0.00  0.00    -0.047 Br
ATOM     16  C   UNL     1       8.982   0.231  24.348  0.00  0.00    +0.032 A 
BRANCH  11  17
ATOM     17  O   UNL     1       9.865  -1.663  21.324  0.00  0.00    -0.506 OA
ATOM     18  H   UNL     1       9.803  -2.508  21.801  0.00  0.00    +0.292 HD
ENDBRANCH  11  17
BRANCH  13  19
ATOM     19  O   UNL     1       8.966   2.938  21.851  0.00  0.00    -0.506 OA
ATOM     20  H   UNL     1       8.224   3.396  22.288  0.00  0.00    +0.292 HD
ENDBRANCH  13  19
ENDBRANCH   5  10
BRANCH   1  21
ATOM     21  O   UNL     1       6.967  -5.480  27.940  0.00  0.00    -0.507 OA
ATOM     22  H   UNL     1       7.583  -5.551  28.689  0.00  0.00    +0.292 HD
ENDBRANCH   1  21
TORSDOF 4
ENDMDL
MODEL 2
REMARK VINA RESULT:      -7.1      1.643      1.661
REMARK  Name = 
REMARK  4 active torsions:
REMARK  status: ('A' for Active; 'I' for Inactive)
REMARK    1  A    between atoms: O_1  and  C_2
REMARK    2  A    between atoms: C_8  and  C_11
REMARK    3  A    between atoms: C_15  and  O_16
REMARK    4  A    between atoms: C_18  and  O_19
REMARK                            x       y       z     vdW  Elec       q    Type
REMARK                         _______ _______ _______ _____ _____    ______ ____
ROOT
ATOM      1  C   UNL     1       7.944  -5.088  26.459  0.00  0.00    +0.120 A 
ATOM      2  C   UNL     1       8.197  -3.764  26.801  0.00  0.00    +0.046 A 
ATOM      3  C   UNL     1       8.216  -2.760  25.820  0.00  0.00    +0.017 A 
ATOM      4  C   UNL     1       8.011  -3.115  24.473  0.00  0.00    +0.049 A 
ATOM      5  C   UNL     1       7.987  -2.481  23.186  0.00  0.00    +0.125 A 
ATOM      6  N   UNL     1       7.680  -3.387  22.235  0.00  0.00    -0.077 NA
ATOM      7  O   UNL     1       7.543  -4.600  22.867  0.00  0.00    -0.354 OA
ATOM      8  C   UNL     1       7.745  -4.448  24.198  0.00  0.00    +0.171 A 
ATOM      9  C   UNL     1       7.699  -5.474  25.143  0.00  0.00    +0.095 A 
ENDROOT
BRANCH   5  10
ATOM     10  C   UNL     1       8.228  -1.083  22.788  0.00  0.00    +0.047 A 
ATOM     11  C   UNL     1       9.329  -0.670  22.018  0.00  0.00    +0.130 A 
ATOM     12  C   UNL     1       9.473   0.663  21.617  0.00  0.00    +0.092 A 
ATOM     13  C   UNL     1       8.500   1.593  21.955  0.00  0.00    +0.134 A 
ATOM     14  C   UNL     1       7.397   1.214  22.716  0.00  0.00    +0.060 A 
ATOM     15 BR   UNL     1       6.051   2.468  23.163  0.00  0.00    -0.047 Br
ATOM     16  C   UNL     1       7.267  -0.112  23.137  0.00  0.00    +0.032 A 
BRANCH  11  17
ATOM     17  O   UNL     1      10.267  -1.570  21.594  0.00  0.00    -0.506 OA
ATOM     18  H   UNL     1      10.091  -1.813  20.669  0.00  0.00    +0.292 HD
ENDBRANCH  11  17
BRANCH  13  19
ATOM     19  O   UNL     1       8.670   2.868  21.489  0.00  0.00    -0.506 OA
ATOM     20  H   UNL     1       7.852   3.118  21.019  0.00  0.00    +0.292 HD
ENDBRANCH  13  19
ENDBRANCH   5  10
BRANCH   1  21
ATOM     21  O   UNL     1       7.946  -6.005  27.470  0.00  0.00    -0.507 OA
ATOM     22  H   UNL     1       8.604  -6.692  27.274  0.00  0.00    +0.292 HD
ENDBRANCH   1  21
TORSDOF 4
ENDMDL
MODEL 3
REMARK VINA RESULT:      -6.9      2.635      2.654
REMARK  Name = 
REMARK  4 active torsions:
REMARK  status: ('A' for Active; 'I' for Inactive)
REMARK    1  A    between atoms: O_1  and  C_2
REMARK    2  A    between atoms: C_8  and  C_11
REMARK    3  A    between atoms: C_15  and  O_16
REMARK    4  A    between atoms: C_18  and  O_19
REMARK                            x       y       z     vdW  Elec       q    Type
REMARK                         _______ _______ _______ _____ _____    ______ ____
ROOT
ATOM      1  C   UNL     1       5.374  -5.672  23.229  0.00  0.00    +0.120 A 
ATOM      2  C   UNL     1       4.905  -4.498  22.649  0.00  0.00    +0.046 A 
ATOM      3  C   UNL     1       5.742  -3.379  22.516  0.00  0.00    +0.017 A 
ATOM      4  C   UNL     1       7.059  -3.446  23.012  0.00  0.00    +0.049 A 
ATOM      5  C   UNL     1       8.204  -2.591  23.138  0.00  0.00    +0.125 A 
ATOM      6  N   UNL     1       9.229  -3.276  23.685  0.00  0.00    -0.077 NA
ATOM      7  O   UNL     1       8.765  -4.542  23.954  0.00  0.00    -0.354 OA
ATOM      8  C   UNL     1       7.473  -4.649  23.563  0.00  0.00    +0.171 A 
ATOM      9  C   UNL     1       6.681  -5.791  23.698  0.00  0.00    +0.095 A 
ENDROOT
BRANCH   5  10
ATOM     10  C   UNL     1       8.404  -1.177  22.777  0.00  0.00    +0.047 A 
ATOM     11  C   UNL     1       9.482  -0.714  22.002  0.00  0.00    +0.130 A 
ATOM     12  C   UNL     1       9.585   0.634  21.638  0.00  0.00    +0.092 A 
ATOM     13  C   UNL     1       8.595   1.529  22.018  0.00  0.00    +0.134 A 
ATOM     14  C   UNL     1       7.515   1.100  22.785  0.00  0.00    +0.060 A 
ATOM     15 BR   UNL     1       6.146   2.306  23.291  0.00  0.00    -0.047 Br
ATOM     16  C   UNL     1       7.424  -0.241  23.170  0.00  0.00    +0.032 A 
BRANCH  11  17
ATOM     17  O   UNL     1      10.434  -1.576  21.537  0.00  0.00    -0.506 OA
ATOM     18  H   UNL     1      10.771  -2.117  22.271  0.00  0.00    +0.292 HD
ENDBRANCH  11  17
BRANCH  13  19
ATOM     19  O   UNL     1       8.725   2.820  21.588  0.00  0.00    -0.506 OA
ATOM     20  H   UNL     1       9.426   3.237  22.124  0.00  0.00    +0.292 HD
ENDBRANCH  13  19
ENDBRANCH   5  10
BRANCH   1  21
ATOM     21  O   UNL     1       4.498  -6.714  23.324  0.00  0.00    -0.507 OA
ATOM     22  H   UNL     1       4.691  -7.218  24.133  0.00  0.00    +0.292 HD
ENDBRANCH   1  21
TORSDOF 4
ENDMDL
MODEL 4
REMARK VINA RESULT:      -6.7      1.890      6.136
REMARK  Name = 
REMARK  4 active torsions:
REMARK  status: ('A' for Active; 'I' for Inactive)
REMARK    1  A    between atoms: O_1  and  C_2
REMARK    2  A    between atoms: C_8  and  C_11
REMARK    3  A    between atoms: C_15  and  O_16
REMARK    4  A    between atoms: C_18  and  O_19
REMARK                            x       y       z     vdW  Elec       q    Type
REMARK                         _______ _______ _______ _____ _____    ______ ____
ROOT
ATOM      1  C   UNL     1      10.143   1.893  22.924  0.00  0.00    +0.120 A 
ATOM      2  C   UNL     1      10.030   1.569  24.272  0.00  0.00    +0.046 A 
ATOM      3  C   UNL     1       9.595   0.296  24.670  0.00  0.00    +0.017 A 
ATOM      4  C   UNL     1       9.239  -0.646  23.685  0.00  0.00    +0.049 A 
ATOM      5  C   UNL     1       8.725  -1.983  23.613  0.00  0.00    +0.125 A 
ATOM      6  N   UNL     1       8.632  -2.369  22.323  0.00  0.00    -0.077 NA
ATOM      7  O   UNL     1       9.036  -1.301  21.556  0.00  0.00    -0.354 OA
ATOM      8  C   UNL     1       9.391  -0.270  22.359  0.00  0.00    +0.171 A 
ATOM      9  C   UNL     1       9.837   0.977  21.919  0.00  0.00    +0.095 A 
ENDROOT
BRANCH   5  10
ATOM     10  C   UNL     1       8.318  -2.925  24.669  0.00  0.00    +0.047 A 
ATOM     11  C   UNL     1       9.093  -4.026  25.074  0.00  0.00    +0.130 A 
ATOM     12  C   UNL     1       8.683  -4.852  26.128  0.00  0.00    +0.092 A 
ATOM     13  C   UNL     1       7.509  -4.566  26.812  0.00  0.00    +0.134 A 
ATOM     14  C   UNL     1       6.721  -3.482  26.435  0.00  0.00    +0.060 A 
ATOM     15 BR   UNL     1       5.130  -3.067  27.373  0.00  0.00    -0.047 Br
ATOM     16  C   UNL     1       7.118  -2.672  25.366  0.00  0.00    +0.032 A 
BRANCH  11  17
ATOM     17  O   UNL     1      10.296  -4.294  24.484  0.00  0.00    -0.506 OA
ATOM     18  H   UNL     1      10.824  -3.480  24.436  0.00  0.00    +0.292 HD
ENDBRANCH  11  17
BRANCH  13  19
ATOM     19  O   UNL     1       7.190  -5.376  27.865  0.00  0.00    -0.506 OA
ATOM     20  H   UNL     1       7.726  -6.187  27.782  0.00  0.00    +0.292 HD
ENDBRANCH  13  19
ENDBRANCH   5  10
BRANCH   1  21
ATOM     21  O   UNL     1      10.570   3.153  22.618  0.00  0.00    -0.507 OA
ATOM     22  H   UNL     1      10.197   3.779  23.261  0.00  0.00    +0.292 HD
ENDBRANCH   1  21
TORSDOF 4
ENDMDL
MODEL 5
REMARK VINA RESULT:      -6.6      3.690      6.488
REMARK  Name = 
REMARK  4 active torsions:
REMARK  status: ('A' for Active; 'I' for Inactive)
REMARK    1  A    between atoms: O_1  and  C_2
REMARK    2  A    between atoms: C_8  and  C_11
REMARK    3  A    between atoms: C_15  and  O_16
REMARK    4  A    between atoms: C_18  and  O_19
REMARK                            x       y       z     vdW  Elec       q    Type
REMARK                         _______ _______ _______ _____ _____    ______ ____
ROOT
ATOM      1  C   UNL     1       9.356  -0.041  22.792  0.00  0.00    +0.120 A 
ATOM      2  C   UNL     1       7.995  -0.267  22.616  0.00  0.00    +0.046 A 
ATOM      3  C   UNL     1       7.423  -1.501  22.963  0.00  0.00    +0.017 A 
ATOM      4  C   UNL     1       8.251  -2.525  23.461  0.00  0.00    +0.049 A 
ATOM      5  C   UNL     1       8.135  -3.891  23.883  0.00  0.00    +0.125 A 
ATOM      6  N   UNL     1       9.331  -4.340  24.314  0.00  0.00    -0.077 NA
ATOM      7  O   UNL     1      10.229  -3.313  24.144  0.00  0.00    -0.354 OA
ATOM      8  C   UNL     1       9.596  -2.232  23.630  0.00  0.00    +0.171 A 
ATOM      9  C   UNL     1      10.203  -1.015  23.317  0.00  0.00    +0.095 A 
ENDROOT
BRANCH   5  10
ATOM     10  C   UNL     1       6.978  -4.803  23.914  0.00  0.00    +0.047 A 
ATOM     11  C   UNL     1       6.406  -5.377  22.766  0.00  0.00    +0.130 A 
ATOM     12  C   UNL     1       5.346  -6.286  22.863  0.00  0.00    +0.092 A 
ATOM     13  C   UNL     1       4.867  -6.657  24.112  0.00  0.00    +0.134 A 
ATOM     14  C   UNL     1       5.414  -6.106  25.267  0.00  0.00    +0.060 A 
ATOM     15 BR   UNL     1       4.785  -6.620  26.978  0.00  0.00    -0.047 Br
ATOM     16  C   UNL     1       6.456  -5.178  25.170  0.00  0.00    +0.032 A 
BRANCH  11  17
ATOM     17  O   UNL     1       6.902  -5.104  21.522  0.00  0.00    -0.506 OA
ATOM     18  H   UNL     1       6.175  -4.846  20.930  0.00  0.00    +0.292 HD
ENDBRANCH  11  17
BRANCH  13  19
ATOM     19  O   UNL     1       3.866  -7.588  24.143  0.00  0.00    -0.506 OA
ATOM     20  H   UNL     1       3.197  -7.319  23.486  0.00  0.00    +0.292 HD
ENDBRANCH  13  19
ENDBRANCH   5  10
BRANCH   1  21
ATOM     21  O   UNL     1       9.837   1.184  22.428  0.00  0.00    -0.507 OA
ATOM     22  H   UNL     1       9.945   1.208  21.463  0.00  0.00    +0.292 HD
ENDBRANCH   1  21
TORSDOF 4
ENDMDL
MODEL 6
REMARK VINA RESULT:      -6.5      2.817      6.415
REMARK  Name = 
REMARK  4 active torsions:
REMARK  status: ('A' for Active; 'I' for Inactive)
REMARK    1  A    between atoms: O_1  and  C_2
REMARK    2  A    between atoms: C_8  and  C_11
REMARK    3  A    between atoms: C_15  and  O_16
REMARK    4  A    between atoms: C_18  and  O_19
REMARK                            x       y       z     vdW  Elec       q    Type
REMARK                         _______ _______ _______ _____ _____    ______ ____
ROOT
ATOM      1  C   UNL     1       8.950   1.004  22.079  0.00  0.00    +0.120 A 
ATOM      2  C   UNL     1       7.675   0.641  22.498  0.00  0.00    +0.046 A 
ATOM      3  C   UNL     1       7.453  -0.589  23.137  0.00  0.00    +0.017 A 
ATOM      4  C   UNL     1       8.534  -1.472  23.317  0.00  0.00    +0.049 A 
ATOM      5  C   UNL     1       8.773  -2.785  23.845  0.00  0.00    +0.125 A 
ATOM      6  N   UNL     1      10.088  -3.075  23.772  0.00  0.00    -0.077 NA
ATOM      7  O   UNL     1      10.703  -2.000  23.175  0.00  0.00    -0.354 OA
ATOM      8  C   UNL     1       9.784  -1.046  22.894  0.00  0.00    +0.171 A 
ATOM      9  C   UNL     1      10.053   0.175  22.273  0.00  0.00    +0.095 A 
ENDROOT
BRANCH   5  10
ATOM     10  C   UNL     1       7.853  -3.784  24.416  0.00  0.00    +0.047 A 
ATOM     11  C   UNL     1       7.959  -4.285  25.725  0.00  0.00    +0.130 A 
ATOM     12  C   UNL     1       7.017  -5.187  26.233  0.00  0.00    +0.092 A 
ATOM     13  C   UNL     1       5.939  -5.574  25.449  0.00  0.00    +0.134 A 
ATOM     14  C   UNL     1       5.806  -5.094  24.149  0.00  0.00    +0.060 A 
ATOM     15 BR   UNL     1       4.329  -5.596  23.077  0.00  0.00    -0.047 Br
ATOM     16  C   UNL     1       6.761  -4.212  23.633  0.00  0.00    +0.032 A 
BRANCH  11  17
ATOM     17  O   UNL     1       8.958  -3.866  26.559  0.00  0.00    -0.506 OA
ATOM     18  H   UNL     1       8.579  -3.342  27.285  0.00  0.00    +0.292 HD
ENDBRANCH  11  17
BRANCH  13  19
ATOM     19  O   UNL     1       5.025  -6.415  26.020  0.00  0.00    -0.506 OA
ATOM     20  H   UNL     1       5.424  -7.305  26.046  0.00  0.00    +0.292 HD
ENDBRANCH  13  19
ENDBRANCH   5  10
BRANCH   1  21
ATOM     21  O   UNL     1       9.084   2.215  21.463  0.00  0.00    -0.507 OA
ATOM     22  H   UNL     1       9.427   2.860  22.104  0.00  0.00    +0.292 HD
ENDBRANCH   1  21
TORSDOF 4
ENDMDL
MODEL 7
REMARK VINA RESULT:      -6.3      2.721      3.904
REMARK  Name = 
REMARK  4 active torsions:
REMARK  status: ('A' for Active; 'I' for Inactive)
REMARK    1  A    between atoms: O_1  and  C_2
REMARK    2  A    between atoms: C_8  and  C_11
REMARK    3  A    between atoms: C_15  and  O_16
REMARK    4  A    between atoms: C_18  and  O_19
REMARK                            x       y       z     vdW  Elec       q    Type
REMARK                         _______ _______ _______ _____ _____    ______ ____
ROOT
ATOM      1  C   UNL     1       4.292  -7.181  25.492  0.00  0.00    +0.120 A 
ATOM      2  C   UNL     1       4.608  -6.600  24.269  0.00  0.00    +0.046 A 
ATOM      3  C   UNL     1       5.622  -5.633  24.175  0.00  0.00    +0.017 A 
ATOM      4  C   UNL     1       6.294  -5.230  25.345  0.00  0.00    +0.049 A 
ATOM      5  C   UNL     1       7.311  -4.295  25.731  0.00  0.00    +0.125 A 
ATOM      6  N   UNL     1       7.564  -4.413  27.051  0.00  0.00    -0.077 NA
ATOM      7  O   UNL     1       6.709  -5.374  27.538  0.00  0.00    -0.354 OA
ATOM      8  C   UNL     1       5.946  -5.859  26.531  0.00  0.00    +0.171 A 
ATOM      9  C   UNL     1       4.959  -6.837  26.666  0.00  0.00    +0.095 A 
ENDROOT
BRANCH   5  10
ATOM     10  C   UNL     1       8.064  -3.300  24.948  0.00  0.00    +0.047 A 
ATOM     11  C   UNL     1       9.392  -3.482  24.526  0.00  0.00    +0.130 A 
ATOM     12  C   UNL     1      10.036  -2.527  23.729  0.00  0.00    +0.092 A 
ATOM     13  C   UNL     1       9.347  -1.395  23.317  0.00  0.00    +0.134 A 
ATOM     14  C   UNL     1       8.030  -1.188  23.717  0.00  0.00    +0.060 A 
ATOM     15 BR   UNL     1       7.071   0.341  23.143  0.00  0.00    -0.047 Br
ATOM     16  C   UNL     1       7.395  -2.129  24.534  0.00  0.00    +0.032 A 
BRANCH  11  17
ATOM     17  O   UNL     1      10.079  -4.620  24.840  0.00  0.00    -0.506 OA
ATOM     18  H   UNL     1       9.457  -5.360  24.940  0.00  0.00    +0.292 HD
ENDBRANCH  11  17
BRANCH  13  19
ATOM     19  O   UNL     1      10.012  -0.526  22.497  0.00  0.00    -0.506 OA
ATOM     20  H   UNL     1      10.225  -1.007  21.675  0.00  0.00    +0.292 HD
ENDBRANCH  13  19
ENDBRANCH   5  10
BRANCH   1  21
ATOM     21  O   UNL     1       3.292  -8.112  25.501  0.00  0.00    -0.507 OA
ATOM     22  H   UNL     1       3.332  -8.628  24.678  0.00  0.00    +0.292 HD
ENDBRANCH   1  21
TORSDOF 4
ENDMDL
MODEL 8
REMARK VINA RESULT:      -6.3      3.081      3.710
REMARK  Name = 
REMARK  4 active torsions:
REMARK  status: ('A' for Active; 'I' for Inactive)
REMARK    1  A    between atoms: O_1  and  C_2
REMARK    2  A    between atoms: C_8  and  C_11
REMARK    3  A    between atoms: C_15  and  O_16
REMARK    4  A    between atoms: C_18  and  O_19
REMARK                            x       y       z     vdW  Elec       q    Type
REMARK                         _______ _______ _______ _____ _____    ______ ____
ROOT
ATOM      1  C   UNL     1       6.246  -5.660  21.597  0.00  0.00    +0.120 A 
ATOM      2  C   UNL     1       5.939  -4.325  21.359  0.00  0.00    +0.046 A 
ATOM      3  C   UNL     1       6.630  -3.300  22.024  0.00  0.00    +0.017 A 
ATOM      4  C   UNL     1       7.619  -3.641  22.968  0.00  0.00    +0.049 A 
ATOM      5  C   UNL     1       8.508  -2.979  23.878  0.00  0.00    +0.125 A 
ATOM      6  N   UNL     1       9.278  -3.890  24.509  0.00  0.00    -0.077 NA
ATOM      7  O   UNL     1       8.884  -5.128  24.059  0.00  0.00    -0.354 OA
ATOM      8  C   UNL     1       7.892  -4.988  23.148  0.00  0.00    +0.171 A 
ATOM      9  C   UNL     1       7.244  -6.038  22.495  0.00  0.00    +0.095 A 
ENDROOT
BRANCH   5  10
ATOM     10  C   UNL     1       8.688  -1.552  24.195  0.00  0.00    +0.047 A 
ATOM     11  C   UNL     1       8.583  -1.021  25.493  0.00  0.00    +0.130 A 
ATOM     12  C   UNL     1       8.826   0.335  25.742  0.00  0.00    +0.092 A 
ATOM     13  C   UNL     1       9.208   1.170  24.702  0.00  0.00    +0.134 A 
ATOM     14  C   UNL     1       9.322   0.673  23.406  0.00  0.00    +0.060 A 
ATOM     15 BR   UNL     1       9.865   1.796  21.982  0.00  0.00    -0.047 Br
ATOM     16  C   UNL     1       9.055  -0.676  23.153  0.00  0.00    +0.032 A 
BRANCH  11  17
ATOM     17  O   UNL     1       8.290  -1.825  26.559  0.00  0.00    -0.506 OA
ATOM     18  H   UNL     1       9.073  -2.350  26.797  0.00  0.00    +0.292 HD
ENDBRANCH  11  17
BRANCH  13  19
ATOM     19  O   UNL     1       9.483   2.471  25.018  0.00  0.00    -0.506 OA
ATOM     20  H   UNL     1       9.264   3.013  24.237  0.00  0.00    +0.292 HD
ENDBRANCH  13  19
ENDBRANCH   5  10
BRANCH   1  21
ATOM     21  O   UNL     1       5.528  -6.598  20.913  0.00  0.00    -0.507 OA
ATOM     22  H   UNL     1       4.687  -6.752  21.375  0.00  0.00    +0.292 HD
ENDBRANCH   1  21
TORSDOF 4
ENDMDL
MODEL 9
REMARK VINA RESULT:      -6.1      2.723      6.279
REMARK  Name = 
REMARK  4 active torsions:
REMARK  status: ('A' for Active; 'I' for Inactive)
REMARK    1  A    between atoms: O_1  and  C_2
REMARK    2  A    between atoms: C_8  and  C_11
REMARK    3  A    between atoms: C_15  and  O_16
REMARK    4  A    between atoms: C_18  and  O_19
REMARK                            x       y       z     vdW  Elec       q    Type
REMARK                         _______ _______ _______ _____ _____    ______ ____
ROOT
ATOM      1  C   UNL     1       9.907   2.961  23.334  0.00  0.00    +0.120 A 
ATOM      2  C   UNL     1       9.384   2.397  24.492  0.00  0.00    +0.046 A 
ATOM      3  C   UNL     1       8.977   1.054  24.516  0.00  0.00    +0.017 A 
ATOM      4  C   UNL     1       9.070   0.289  23.337  0.00  0.00    +0.049 A 
ATOM      5  C   UNL     1       8.752  -1.036  22.888  0.00  0.00    +0.125 A 
ATOM      6  N   UNL     1       9.136  -1.188  21.604  0.00  0.00    -0.077 NA
ATOM      7  O   UNL     1       9.659   0.016  21.197  0.00  0.00    -0.354 OA
ATOM      8  C   UNL     1       9.616   0.902  22.220  0.00  0.00    +0.171 A 
ATOM      9  C   UNL     1      10.051   2.227  22.158  0.00  0.00    +0.095 A 
ENDROOT
BRANCH   5  10
ATOM     10  C   UNL     1       8.115  -2.169  23.582  0.00  0.00    +0.047 A 
ATOM     11  C   UNL     1       6.761  -2.514  23.433  0.00  0.00    +0.130 A 
ATOM     12  C   UNL     1       6.227  -3.641  24.070  0.00  0.00    +0.092 A 
ATOM     13  C   UNL     1       7.049  -4.455  24.836  0.00  0.00    +0.134 A 
ATOM     14  C   UNL     1       8.395  -4.140  25.001  0.00  0.00    +0.060 A 
ATOM     15 BR   UNL     1       9.533  -5.254  26.025  0.00  0.00    -0.047 Br
ATOM     16  C   UNL     1       8.923  -3.000  24.386  0.00  0.00    +0.032 A 
BRANCH  11  17
ATOM     17  O   UNL     1       5.936  -1.788  22.621  0.00  0.00    -0.506 OA
ATOM     18  H   UNL     1       5.047  -2.181  22.623  0.00  0.00    +0.292 HD
ENDBRANCH  11  17
BRANCH  13  19
ATOM     19  O   UNL     1       6.481  -5.569  25.389  0.00  0.00    -0.506 OA
ATOM     20  H   UNL     1       5.993  -5.283  26.184  0.00  0.00    +0.292 HD
ENDBRANCH  13  19
ENDBRANCH   5  10
BRANCH   1  21
ATOM     21  O   UNL     1      10.279   4.273  23.391  0.00  0.00    -0.507 OA
ATOM     22  H   UNL     1      11.034   4.363  23.996  0.00  0.00    +0.292 HD
ENDBRANCH   1  21
TORSDOF 4
ENDMDL
