MODEL 1
REMARK VINA RESULT:      -6.9      0.000      0.000
REMARK  Name = 
REMARK  16 active torsions:
REMARK  status: ('A' for Active; 'I' for Inactive)
REMARK    1  A    between atoms: C_2  and  C_3
REMARK    2  A    between atoms: C_2  and  N_10
REMARK    3  A    between atoms: C_2  and  P_19
REMARK    4  A    between atoms: C_3  and  C_4
REMARK    5  A    between atoms: C_11  and  C_13
REMARK    6  A    between atoms: C_13  and  C_14
REMARK    7  A    between atoms: C_14  and  C_15
REMARK    8  A    between atoms: C_15  and  C_16
REMARK    9  A    between atoms: C_16  and  O_17
REMARK   10  A    between atoms: P_19  and  O_20
REMARK   11  A    between atoms: P_19  and  O_22
REMARK   12  A    between atoms: O_22  and  C_23
REMARK   13  A    between atoms: C_23  and  C_24
REMARK   14  A    between atoms: N_26  and  C_27
REMARK   15  A    between atoms: C_27  and  C_28
REMARK   16  A    between atoms: C_28  and  C_29
REMARK                            x       y       z     vdW  Elec       q    Type
REMARK                         _______ _______ _______ _____ _____    ______ ____
ROOT
ATOM      1  C   UNL     1       8.775   2.313  23.914  0.00  0.00    +0.192 C 
ENDROOT
BRANCH   1   2
ATOM      2  N   UNL     1       9.405   3.610  24.145  0.00  0.00    -0.301 N 
ATOM      3  H   UNL     1      10.010   3.989  23.428  0.00  0.00    +0.150 HD
ATOM      4  C   UNL     1       8.794   4.469  25.032  0.00  0.00    +0.214 C 
ATOM      5  O   UNL     1       7.840   4.139  25.732  0.00  0.00    -0.276 OA
BRANCH   4   6
ATOM      6  C   UNL     1       9.386   5.856  25.049  0.00  0.00    +0.096 C 
BRANCH   6   7
ATOM      7  C   UNL     1      10.238   6.075  23.803  0.00  0.00    +0.020 C 
BRANCH   7   8
ATOM      8  C   UNL     1      11.723   6.109  24.145  0.00  0.00    +0.121 C 
BRANCH   8   9
ATOM      9  C   UNL     1      12.494   5.004  23.459  0.00  0.00    +0.305 C 
ATOM     10  O   UNL     1      11.989   3.969  23.055  0.00  0.00    -0.251 OA
BRANCH   9  11
ATOM     11  O   UNL     1      13.818   5.259  23.358  0.00  0.00    -0.481 OA
ATOM     12  H   UNL     1      14.385   4.464  23.364  0.00  0.00    +0.295 HD
ENDBRANCH   9  11
ENDBRANCH   8   9
ENDBRANCH   7   8
ENDBRANCH   6   7
ENDBRANCH   4   6
ENDBRANCH   1   2
BRANCH   1  13
ATOM     13  P   UNL     1       8.569   2.081  22.134  0.00  0.00    +0.351 P 
ATOM     14  O   UNL     1       7.538   2.890  21.409  0.00  0.00    -0.257 OA
BRANCH  13  15
ATOM     15  O   UNL     1      10.029   2.384  21.528  0.00  0.00    -0.323 OA
ATOM     16  H   UNL     1      10.645   2.763  22.183  0.00  0.00    +0.220 HD
ENDBRANCH  13  15
BRANCH  13  17
ATOM     17  O   UNL     1       8.374   0.494  22.025  0.00  0.00    -0.297 OA
BRANCH  17  18
ATOM     18  C   UNL     1       9.292  -0.297  21.303  0.00  0.00    +0.265 C 
BRANCH  18  19
ATOM     19  C   UNL     1       9.486  -1.550  22.129  0.00  0.00    +0.239 C 
ATOM     20  N   UNL     1       8.328  -2.209  22.504  0.00  0.00    -0.313 N 
ATOM     21  H   UNL     1       7.456  -1.696  22.472  0.00  0.00    +0.149 HD
ATOM     22  O   UNL     1      10.608  -1.931  22.463  0.00  0.00    -0.273 OA
BRANCH  20  23
ATOM     23  C   UNL     1       8.473  -3.261  23.488  0.00  0.00    +0.109 C 
BRANCH  23  24
ATOM     24  C   UNL     1       7.475  -4.408  23.362  0.00  0.00    +0.054 C 
BRANCH  24  25
ATOM     25  C   UNL     1       7.086  -4.849  24.754  0.00  0.00    -0.046 A 
ATOM     26  C   UNL     1       8.078  -5.097  25.715  0.00  0.00    +0.004 A 
ATOM     27  C   UNL     1       7.728  -5.340  27.043  0.00  0.00    +0.000 A 
ATOM     28  C   UNL     1       6.388  -5.341  27.424  0.00  0.00    +0.000 A 
ATOM     29  C   UNL     1       5.394  -5.113  26.473  0.00  0.00    +0.000 A 
ATOM     30  C   UNL     1       5.740  -4.870  25.144  0.00  0.00    +0.004 A 
ENDBRANCH  24  25
ENDBRANCH  23  24
ENDBRANCH  20  23
ENDBRANCH  18  19
ENDBRANCH  17  18
ENDBRANCH  13  17
ENDBRANCH   1  13
BRANCH   1  31
ATOM     31  C   UNL     1       9.507   1.153  24.613  0.00  0.00    +0.070 C 
BRANCH  31  32
ATOM     32  C   UNL     1       8.547   0.279  25.392  0.00  0.00    -0.045 A 
ATOM     33  C   UNL     1       7.163   0.406  25.218  0.00  0.00    +0.004 A 
ATOM     34  C   UNL     1       6.296  -0.525  25.790  0.00  0.00    +0.000 A 
ATOM     35  C   UNL     1       6.802  -1.579  26.549  0.00  0.00    +0.000 A 
ATOM     36  C   UNL     1       8.170  -1.670  26.787  0.00  0.00    +0.000 A 
ATOM     37  C   UNL     1       9.037  -0.734  26.229  0.00  0.00    +0.004 A 
ENDBRANCH  31  32
ENDBRANCH   1  31
TORSDOF 16
ENDMDL
MODEL 2
REMARK VINA RESULT:      -6.8      3.193      5.471
REMARK  Name = 
REMARK  16 active torsions:
REMARK  status: ('A' for Active; 'I' for Inactive)
REMARK    1  A    between atoms: C_2  and  C_3
REMARK    2  A    between atoms: C_2  and  N_10
REMARK    3  A    between atoms: C_2  and  P_19
REMARK    4  A    between atoms: C_3  and  C_4
REMARK    5  A    between atoms: C_11  and  C_13
REMARK    6  A    between atoms: C_13  and  C_14
REMARK    7  A    between atoms: C_14  and  C_15
REMARK    8  A    between atoms: C_15  and  C_16
REMARK    9  A    between atoms: C_16  and  O_17
REMARK   10  A    between atoms: P_19  and  O_20
REMARK   11  A    between atoms: P_19  and  O_22
REMARK   12  A    between atoms: O_22  and  C_23
REMARK   13  A    between atoms: C_23  and  C_24
REMARK   14  A    between atoms: N_26  and  C_27
REMARK   15  A    between atoms: C_27  and  C_28
REMARK   16  A    between atoms: C_28  and  C_29
REMARK                            x       y       z     vdW  Elec       q    Type
REMARK                         _______ _______ _______ _____ _____    ______ ____
ROOT
ATOM      1  C   UNL     1       8.665  -1.776  24.552  0.00  0.00    +0.192 C 
ENDROOT
BRANCH   1   2
ATOM      2  N   UNL     1       8.518  -1.035  23.302  0.00  0.00    -0.301 N 
ATOM      3  H   UNL     1       7.887  -0.244  23.280  0.00  0.00    +0.150 HD
ATOM      4  C   UNL     1       9.555  -1.093  22.398  0.00  0.00    +0.214 C 
ATOM      5  O   UNL     1      10.517  -1.845  22.533  0.00  0.00    -0.276 OA
BRANCH   4   6
ATOM      6  C   UNL     1       9.415  -0.136  21.241  0.00  0.00    +0.096 C 
BRANCH   6   7
ATOM      7  C   UNL     1       9.300   1.294  21.758  0.00  0.00    +0.020 C 
BRANCH   7   8
ATOM      8  C   UNL     1       7.951   1.907  21.402  0.00  0.00    +0.121 C 
BRANCH   8   9
ATOM      9  C   UNL     1       7.031   2.000  22.599  0.00  0.00    +0.305 C 
ATOM     10  O   UNL     1       6.921   2.995  23.299  0.00  0.00    -0.251 OA
BRANCH   9  11
ATOM     11  O   UNL     1       6.354   0.856  22.844  0.00  0.00    -0.481 OA
ATOM     12  H   UNL     1       6.920   0.085  23.043  0.00  0.00    +0.295 HD
ENDBRANCH   9  11
ENDBRANCH   8   9
ENDBRANCH   7   8
ENDBRANCH   6   7
ENDBRANCH   4   6
ENDBRANCH   1   2
BRANCH   1  13
ATOM     13  P   UNL     1       8.879  -0.593  25.902  0.00  0.00    +0.351 P 
ATOM     14  O   UNL     1       8.950  -1.101  27.309  0.00  0.00    -0.257 OA
BRANCH  13  15
ATOM     15  O   UNL     1      10.239   0.184  25.531  0.00  0.00    -0.323 OA
ATOM     16  H   UNL     1      10.755  -0.259  24.831  0.00  0.00    +0.220 HD
ENDBRANCH  13  15
BRANCH  13  17
ATOM     17  O   UNL     1       7.693   0.448  25.624  0.00  0.00    -0.297 OA
BRANCH  17  18
ATOM     18  C   UNL     1       6.700   0.685  26.598  0.00  0.00    +0.265 C 
BRANCH  18  19
ATOM     19  C   UNL     1       5.534  -0.201  26.214  0.00  0.00    +0.239 C 
ATOM     20  N   UNL     1       5.218  -1.202  27.115  0.00  0.00    -0.313 N 
ATOM     21  H   UNL     1       5.919  -1.472  27.794  0.00  0.00    +0.149 HD
ATOM     22  O   UNL     1       4.934  -0.046  25.151  0.00  0.00    -0.273 OA
BRANCH  20  23
ATOM     23  C   UNL     1       4.276  -2.204  26.663  0.00  0.00    +0.109 C 
BRANCH  23  24
ATOM     24  C   UNL     1       4.659  -3.646  26.983  0.00  0.00    +0.054 C 
BRANCH  24  25
ATOM     25  C   UNL     1       4.420  -4.483  25.748  0.00  0.00    -0.046 A 
ATOM     26  C   UNL     1       4.961  -5.774  25.659  0.00  0.00    +0.004 A 
ATOM     27  C   UNL     1       4.610  -6.614  24.603  0.00  0.00    +0.000 A 
ATOM     28  C   UNL     1       3.720  -6.175  23.626  0.00  0.00    +0.000 A 
ATOM     29  C   UNL     1       3.190  -4.886  23.695  0.00  0.00    +0.000 A 
ATOM     30  C   UNL     1       3.540  -4.043  24.750  0.00  0.00    +0.004 A 
ENDBRANCH  24  25
ENDBRANCH  23  24
ENDBRANCH  20  23
ENDBRANCH  18  19
ENDBRANCH  17  18
ENDBRANCH  13  17
ENDBRANCH   1  13
BRANCH   1  31
ATOM     31  C   UNL     1       7.533  -2.792  24.788  0.00  0.00    +0.070 C 
BRANCH  31  32
ATOM     32  C   UNL     1       7.284  -3.641  23.560  0.00  0.00    -0.045 A 
ATOM     33  C   UNL     1       7.853  -4.915  23.444  0.00  0.00    +0.004 A 
ATOM     34  C   UNL     1       7.469  -5.764  22.406  0.00  0.00    +0.000 A 
ATOM     35  C   UNL     1       6.526  -5.342  21.470  0.00  0.00    +0.000 A 
ATOM     36  C   UNL     1       6.010  -4.051  21.535  0.00  0.00    +0.000 A 
ATOM     37  C   UNL     1       6.403  -3.197  22.563  0.00  0.00    +0.004 A 
ENDBRANCH  31  32
ENDBRANCH   1  31
TORSDOF 16
ENDMDL
MODEL 3
REMARK VINA RESULT:      -6.7      3.440      6.112
REMARK  Name = 
REMARK  16 active torsions:
REMARK  status: ('A' for Active; 'I' for Inactive)
REMARK    1  A    between atoms: C_2  and  C_3
REMARK    2  A    between atoms: C_2  and  N_10
REMARK    3  A    between atoms: C_2  and  P_19
REMARK    4  A    between atoms: C_3  and  C_4
REMARK    5  A    between atoms: C_11  and  C_13
REMARK    6  A    between atoms: C_13  and  C_14
REMARK    7  A    between atoms: C_14  and  C_15
REMARK    8  A    between atoms: C_15  and  C_16
REMARK    9  A    between atoms: C_16  and  O_17
REMARK   10  A    between atoms: P_19  and  O_20
REMARK   11  A    between atoms: P_19  and  O_22
REMARK   12  A    between atoms: O_22  and  C_23
REMARK   13  A    between atoms: C_23  and  C_24
REMARK   14  A    between atoms: N_26  and  C_27
REMARK   15  A    between atoms: C_27  and  C_28
REMARK   16  A    between atoms: C_28  and  C_29
REMARK                            x       y       z     vdW  Elec       q    Type
REMARK                         _______ _______ _______ _____ _____    ______ ____
ROOT
ATOM      1  C   UNL     1       9.241  -2.852  24.880  0.00  0.00    +0.192 C 
ENDROOT
BRANCH   1   2
ATOM      2  N   UNL     1       7.945  -2.179  24.915  0.00  0.00    -0.301 N 
ATOM      3  H   UNL     1       7.166  -2.603  24.427  0.00  0.00    +0.150 HD
ATOM      4  C   UNL     1       7.696  -1.325  25.967  0.00  0.00    +0.214 C 
ATOM      5  O   UNL     1       8.555  -1.000  26.782  0.00  0.00    -0.276 OA
BRANCH   4   6
ATOM      6  C   UNL     1       6.268  -0.843  26.040  0.00  0.00    +0.096 C 
BRANCH   6   7
ATOM      7  C   UNL     1       5.864  -0.205  24.715  0.00  0.00    +0.020 C 
BRANCH   7   8
ATOM      8  C   UNL     1       6.733   1.005  24.394  0.00  0.00    +0.121 C 
BRANCH   8   9
ATOM      9  C   UNL     1       6.011   2.014  23.528  0.00  0.00    +0.305 C 
ATOM     10  O   UNL     1       6.570   2.763  22.742  0.00  0.00    -0.251 OA
BRANCH   9  11
ATOM     11  O   UNL     1       4.674   2.031  23.728  0.00  0.00    -0.481 OA
ATOM     12  H   UNL     1       4.269   1.149  23.832  0.00  0.00    +0.295 HD
ENDBRANCH   9  11
ENDBRANCH   8   9
ENDBRANCH   7   8
ENDBRANCH   6   7
ENDBRANCH   4   6
ENDBRANCH   1   2
BRANCH   1  13
ATOM     13  P   UNL     1       8.985  -4.612  25.201  0.00  0.00    +0.351 P 
ATOM     14  O   UNL     1       8.106  -5.398  24.278  0.00  0.00    -0.257 OA
BRANCH  13  15
ATOM     15  O   UNL     1      10.471  -5.230  25.200  0.00  0.00    -0.323 OA
ATOM     16  H   UNL     1      11.169  -4.553  25.287  0.00  0.00    +0.220 HD
ENDBRANCH  13  15
BRANCH  13  17
ATOM     17  O   UNL     1       8.516  -4.608  26.732  0.00  0.00    -0.297 OA
BRANCH  17  18
ATOM     18  C   UNL     1       7.474  -5.452  27.169  0.00  0.00    +0.265 C 
BRANCH  18  19
ATOM     19  C   UNL     1       6.206  -4.636  27.036  0.00  0.00    +0.239 C 
ATOM     20  N   UNL     1       5.439  -4.894  25.914  0.00  0.00    -0.313 N 
ATOM     21  H   UNL     1       5.880  -5.364  25.132  0.00  0.00    +0.149 HD
ATOM     22  O   UNL     1       5.904  -3.781  27.868  0.00  0.00    -0.273 OA
BRANCH  20  23
ATOM     23  C   UNL     1       4.361  -3.968  25.641  0.00  0.00    +0.109 C 
BRANCH  23  24
ATOM     24  C   UNL     1       3.555  -4.264  24.379  0.00  0.00    +0.054 C 
BRANCH  24  25
ATOM     25  C   UNL     1       4.522  -4.424  23.229  0.00  0.00    -0.046 A 
ATOM     26  C   UNL     1       5.300  -3.333  22.810  0.00  0.00    +0.004 A 
ATOM     27  C   UNL     1       6.311  -3.511  21.866  0.00  0.00    +0.000 A 
ATOM     28  C   UNL     1       6.553  -4.774  21.330  0.00  0.00    +0.000 A 
ATOM     29  C   UNL     1       5.774  -5.860  21.726  0.00  0.00    +0.000 A 
ATOM     30  C   UNL     1       4.761  -5.686  22.671  0.00  0.00    +0.004 A 
ENDBRANCH  24  25
ENDBRANCH  23  24
ENDBRANCH  20  23
ENDBRANCH  18  19
ENDBRANCH  17  18
ENDBRANCH  13  17
ENDBRANCH   1  13
BRANCH   1  31
ATOM     31  C   UNL     1      10.037  -2.562  23.595  0.00  0.00    +0.070 C 
BRANCH  31  32
ATOM     32  C   UNL     1       9.848  -1.132  23.136  0.00  0.00    -0.045 A 
ATOM     33  C   UNL     1      10.393  -0.068  23.867  0.00  0.00    +0.004 A 
ATOM     34  C   UNL     1      10.379   1.224  23.340  0.00  0.00    +0.000 A 
ATOM     35  C   UNL     1       9.812   1.465  22.090  0.00  0.00    +0.000 A 
ATOM     36  C   UNL     1       9.204   0.427  21.390  0.00  0.00    +0.000 A 
ATOM     37  C   UNL     1       9.203  -0.861  21.920  0.00  0.00    +0.004 A 
ENDBRANCH  31  32
ENDBRANCH   1  31
TORSDOF 16
ENDMDL
MODEL 4
REMARK VINA RESULT:      -6.6      3.977      8.543
REMARK  Name = 
REMARK  16 active torsions:
REMARK  status: ('A' for Active; 'I' for Inactive)
REMARK    1  A    between atoms: C_2  and  C_3
REMARK    2  A    between atoms: C_2  and  N_10
REMARK    3  A    between atoms: C_2  and  P_19
REMARK    4  A    between atoms: C_3  and  C_4
REMARK    5  A    between atoms: C_11  and  C_13
REMARK    6  A    between atoms: C_13  and  C_14
REMARK    7  A    between atoms: C_14  and  C_15
REMARK    8  A    between atoms: C_15  and  C_16
REMARK    9  A    between atoms: C_16  and  O_17
REMARK   10  A    between atoms: P_19  and  O_20
REMARK   11  A    between atoms: P_19  and  O_22
REMARK   12  A    between atoms: O_22  and  C_23
REMARK   13  A    between atoms: C_23  and  C_24
REMARK   14  A    between atoms: N_26  and  C_27
REMARK   15  A    between atoms: C_27  and  C_28
REMARK   16  A    between atoms: C_28  and  C_29
REMARK                            x       y       z     vdW  Elec       q    Type
REMARK                         _______ _______ _______ _____ _____    ______ ____
ROOT
ATOM      1  C   UNL     1       8.419  -3.050  24.033  0.00  0.00    +0.192 C 
ENDROOT
BRANCH   1   2
ATOM      2  N   UNL     1       7.951  -4.020  23.046  0.00  0.00    -0.301 N 
ATOM      3  H   UNL     1       8.242  -4.984  23.140  0.00  0.00    +0.150 HD
ATOM      4  C   UNL     1       6.787  -3.730  22.368  0.00  0.00    +0.214 C 
ATOM      5  O   UNL     1       6.217  -2.646  22.452  0.00  0.00    -0.276 OA
BRANCH   4   6
ATOM      6  C   UNL     1       6.264  -4.873  21.533  0.00  0.00    +0.096 C 
BRANCH   6   7
ATOM      7  C   UNL     1       5.985  -6.082  22.419  0.00  0.00    +0.020 C 
BRANCH   7   8
ATOM      8  C   UNL     1       4.653  -5.942  23.146  0.00  0.00    +0.121 C 
BRANCH   8   9
ATOM      9  C   UNL     1       4.602  -6.768  24.412  0.00  0.00    +0.305 C 
ATOM     10  O   UNL     1       3.876  -7.737  24.566  0.00  0.00    -0.251 OA
BRANCH   9  11
ATOM     11  O   UNL     1       5.426  -6.312  25.382  0.00  0.00    -0.481 OA
ATOM     12  H   UNL     1       5.105  -6.465  26.291  0.00  0.00    +0.295 HD
ENDBRANCH   9  11
ENDBRANCH   8   9
ENDBRANCH   7   8
ENDBRANCH   6   7
ENDBRANCH   4   6
ENDBRANCH   1   2
BRANCH   1  13
ATOM     13  P   UNL     1       8.243  -3.772  25.680  0.00  0.00    +0.351 P 
ATOM     14  O   UNL     1       8.960  -5.049  25.995  0.00  0.00    -0.257 OA
BRANCH  13  15
ATOM     15  O   UNL     1       8.738  -2.607  26.674  0.00  0.00    -0.323 OA
ATOM     16  H   UNL     1       8.147  -1.829  26.678  0.00  0.00    +0.220 HD
ENDBRANCH  13  15
BRANCH  13  17
ATOM     17  O   UNL     1       6.651  -3.839  25.846  0.00  0.00    -0.297 OA
BRANCH  17  18
ATOM     18  C   UNL     1       5.982  -2.968  26.732  0.00  0.00    +0.265 C 
BRANCH  18  19
ATOM     19  C   UNL     1       5.507  -1.809  25.882  0.00  0.00    +0.239 C 
ATOM     20  N   UNL     1       6.354  -0.715  25.828  0.00  0.00    -0.313 N 
ATOM     21  H   UNL     1       7.057  -0.622  26.551  0.00  0.00    +0.149 HD
ATOM     22  O   UNL     1       4.422  -1.840  25.303  0.00  0.00    -0.273 OA
BRANCH  20  23
ATOM     23  C   UNL     1       5.818   0.487  25.228  0.00  0.00    +0.109 C 
BRANCH  23  24
ATOM     24  C   UNL     1       6.231   0.728  23.779  0.00  0.00    +0.054 C 
BRANCH  24  25
ATOM     25  C   UNL     1       6.772   2.135  23.670  0.00  0.00    -0.046 A 
ATOM     26  C   UNL     1       7.488   2.696  24.738  0.00  0.00    +0.004 A 
ATOM     27  C   UNL     1       8.132   3.923  24.586  0.00  0.00    +0.000 A 
ATOM     28  C   UNL     1       8.066   4.602  23.372  0.00  0.00    +0.000 A 
ATOM     29  C   UNL     1       7.342   4.062  22.310  0.00  0.00    +0.000 A 
ATOM     30  C   UNL     1       6.696   2.834  22.458  0.00  0.00    +0.004 A 
ENDBRANCH  24  25
ENDBRANCH  23  24
ENDBRANCH  20  23
ENDBRANCH  18  19
ENDBRANCH  17  18
ENDBRANCH  13  17
ENDBRANCH   1  13
BRANCH   1  31
ATOM     31  C   UNL     1       9.833  -2.520  23.733  0.00  0.00    +0.070 C 
BRANCH  31  32
ATOM     32  C   UNL     1       9.797  -1.088  23.242  0.00  0.00    -0.045 A 
ATOM     33  C   UNL     1      10.359  -0.056  24.003  0.00  0.00    +0.004 A 
ATOM     34  C   UNL     1      10.492   1.223  23.462  0.00  0.00    +0.000 A 
ATOM     35  C   UNL     1      10.054   1.483  22.165  0.00  0.00    +0.000 A 
ATOM     36  C   UNL     1       9.428   0.482  21.428  0.00  0.00    +0.000 A 
ATOM     37  C   UNL     1       9.281  -0.792  21.971  0.00  0.00    +0.004 A 
ENDBRANCH  31  32
ENDBRANCH   1  31
TORSDOF 16
ENDMDL
MODEL 5
REMARK VINA RESULT:      -6.6      1.811      5.189
REMARK  Name = 
REMARK  16 active torsions:
REMARK  status: ('A' for Active; 'I' for Inactive)
REMARK    1  A    between atoms: C_2  and  C_3
REMARK    2  A    between atoms: C_2  and  N_10
REMARK    3  A    between atoms: C_2  and  P_19
REMARK    4  A    between atoms: C_3  and  C_4
REMARK    5  A    between atoms: C_11  and  C_13
REMARK    6  A    between atoms: C_13  and  C_14
REMARK    7  A    between atoms: C_14  and  C_15
REMARK    8  A    between atoms: C_15  and  C_16
REMARK    9  A    between atoms: C_16  and  O_17
REMARK   10  A    between atoms: P_19  and  O_20
REMARK   11  A    between atoms: P_19  and  O_22
REMARK   12  A    between atoms: O_22  and  C_23
REMARK   13  A    between atoms: C_23  and  C_24
REMARK   14  A    between atoms: N_26  and  C_27
REMARK   15  A    between atoms: C_27  and  C_28
REMARK   16  A    between atoms: C_28  and  C_29
REMARK                            x       y       z     vdW  Elec       q    Type
REMARK                         _______ _______ _______ _____ _____    ______ ____
ROOT
ATOM      1  C   UNL     1       8.643   2.013  23.873  0.00  0.00    +0.192 C 
ENDROOT
BRANCH   1   2
ATOM      2  N   UNL     1       8.237   1.120  24.955  0.00  0.00    -0.301 N 
ATOM      3  H   UNL     1       7.259   0.874  25.039  0.00  0.00    +0.150 HD
ATOM      4  C   UNL     1       9.191   0.275  25.478  0.00  0.00    +0.214 C 
ATOM      5  O   UNL     1      10.380   0.342  25.178  0.00  0.00    -0.276 OA
BRANCH   4   6
ATOM      6  C   UNL     1       8.640  -0.754  26.435  0.00  0.00    +0.096 C 
BRANCH   6   7
ATOM      7  C   UNL     1       7.133  -0.573  26.583  0.00  0.00    +0.020 C 
BRANCH   7   8
ATOM      8  C   UNL     1       6.384  -1.856  26.240  0.00  0.00    +0.121 C 
BRANCH   8   9
ATOM      9  C   UNL     1       5.451  -1.677  25.064  0.00  0.00    +0.305 C 
ATOM     10  O   UNL     1       4.445  -2.344  24.883  0.00  0.00    -0.251 OA
BRANCH   9  11
ATOM     11  O   UNL     1       5.855  -0.716  24.203  0.00  0.00    -0.481 OA
ATOM     12  H   UNL     1       5.241   0.039  24.121  0.00  0.00    +0.295 HD
ENDBRANCH   9  11
ENDBRANCH   8   9
ENDBRANCH   7   8
ENDBRANCH   6   7
ENDBRANCH   4   6
ENDBRANCH   1   2
BRANCH   1  13
ATOM     13  P   UNL     1       7.772   1.525  22.366  0.00  0.00    +0.351 P 
ATOM     14  O   UNL     1       6.345   1.941  22.184  0.00  0.00    -0.257 OA
BRANCH  13  15
ATOM     15  O   UNL     1       8.674   2.129  21.178  0.00  0.00    -0.323 OA
ATOM     16  H   UNL     1       9.438   1.565  20.952  0.00  0.00    +0.220 HD
ENDBRANCH  13  15
BRANCH  13  17
ATOM     17  O   UNL     1       8.017  -0.058  22.337  0.00  0.00    -0.297 OA
BRANCH  17  18
ATOM     18  C   UNL     1       9.166  -0.598  21.723  0.00  0.00    +0.265 C 
BRANCH  18  19
ATOM     19  C   UNL     1       9.518  -1.829  22.531  0.00  0.00    +0.239 C 
ATOM     20  N   UNL     1       8.454  -2.479  23.131  0.00  0.00    -0.313 N 
ATOM     21  H   UNL     1       7.588  -1.968  23.249  0.00  0.00    +0.149 HD
ATOM     22  O   UNL     1      10.685  -2.200  22.660  0.00  0.00    -0.273 OA
BRANCH  20  23
ATOM     23  C   UNL     1       8.786  -3.504  24.097  0.00  0.00    +0.109 C 
BRANCH  23  24
ATOM     24  C   UNL     1       8.157  -4.870  23.835  0.00  0.00    +0.054 C 
BRANCH  24  25
ATOM     25  C   UNL     1       7.317  -5.241  25.036  0.00  0.00    -0.046 A 
ATOM     26  C   UNL     1       7.883  -5.224  26.320  0.00  0.00    +0.004 A 
ATOM     27  C   UNL     1       7.079  -5.400  27.446  0.00  0.00    +0.000 A 
ATOM     28  C   UNL     1       5.707  -5.597  27.302  0.00  0.00    +0.000 A 
ATOM     29  C   UNL     1       5.138  -5.632  26.029  0.00  0.00    +0.000 A 
ATOM     30  C   UNL     1       5.940  -5.457  24.901  0.00  0.00    +0.004 A 
ENDBRANCH  24  25
ENDBRANCH  23  24
ENDBRANCH  20  23
ENDBRANCH  18  19
ENDBRANCH  17  18
ENDBRANCH  13  17
ENDBRANCH   1  13
BRANCH   1  31
ATOM     31  C   UNL     1       8.486   3.502  24.228  0.00  0.00    +0.070 C 
BRANCH  31  32
ATOM     32  C   UNL     1       9.806   4.238  24.132  0.00  0.00    -0.045 A 
ATOM     33  C   UNL     1      10.910   3.645  23.507  0.00  0.00    +0.004 A 
ATOM     34  C   UNL     1      12.059   4.396  23.254  0.00  0.00    +0.000 A 
ATOM     35  C   UNL     1      12.117   5.736  23.633  0.00  0.00    +0.000 A 
ATOM     36  C   UNL     1      11.052   6.312  24.319  0.00  0.00    +0.000 A 
ATOM     37  C   UNL     1       9.910   5.561  24.586  0.00  0.00    +0.004 A 
ENDBRANCH  31  32
ENDBRANCH   1  31
TORSDOF 16
ENDMDL
MODEL 6
REMARK VINA RESULT:      -6.5      2.835      5.445
REMARK  Name = 
REMARK  16 active torsions:
REMARK  status: ('A' for Active; 'I' for Inactive)
REMARK    1  A    between atoms: C_2  and  C_3
REMARK    2  A    between atoms: C_2  and  N_10
REMARK    3  A    between atoms: C_2  and  P_19
REMARK    4  A    between atoms: C_3  and  C_4
REMARK    5  A    between atoms: C_11  and  C_13
REMARK    6  A    between atoms: C_13  and  C_14
REMARK    7  A    between atoms: C_14  and  C_15
REMARK    8  A    between atoms: C_15  and  C_16
REMARK    9  A    between atoms: C_16  and  O_17
REMARK   10  A    between atoms: P_19  and  O_20
REMARK   11  A    between atoms: P_19  and  O_22
REMARK   12  A    between atoms: O_22  and  C_23
REMARK   13  A    between atoms: C_23  and  C_24
REMARK   14  A    between atoms: N_26  and  C_27
REMARK   15  A    between atoms: C_27  and  C_28
REMARK   16  A    between atoms: C_28  and  C_29
REMARK                            x       y       z     vdW  Elec       q    Type
REMARK                         _______ _______ _______ _____ _____    ______ ____
ROOT
ATOM      1  C   UNL     1       7.886  -2.030  24.181  0.00  0.00    +0.192 C 
ENDROOT
BRANCH   1   2
ATOM      2  N   UNL     1       8.259  -1.122  23.099  0.00  0.00    -0.301 N 
ATOM      3  H   UNL     1       7.874  -0.186  23.100  0.00  0.00    +0.150 HD
ATOM      4  C   UNL     1       9.446  -1.361  22.444  0.00  0.00    +0.214 C 
ATOM      5  O   UNL     1      10.120  -2.371  22.629  0.00  0.00    -0.276 OA
BRANCH   4   6
ATOM      6  C   UNL     1       9.856  -0.262  21.495  0.00  0.00    +0.096 C 
BRANCH   6   7
ATOM      7  C   UNL     1       8.966   0.960  21.698  0.00  0.00    +0.020 C 
BRANCH   7   8
ATOM      8  C   UNL     1       9.766   2.149  22.218  0.00  0.00    +0.121 C 
BRANCH   8   9
ATOM      9  C   UNL     1      10.089   2.022  23.690  0.00  0.00    +0.305 C 
ATOM     10  O   UNL     1      11.193   1.732  24.124  0.00  0.00    -0.251 OA
BRANCH   9  11
ATOM     11  O   UNL     1       9.022   2.234  24.492  0.00  0.00    -0.481 OA
ATOM     12  H   UNL     1       8.976   1.645  25.269  0.00  0.00    +0.295 HD
ENDBRANCH   9  11
ENDBRANCH   8   9
ENDBRANCH   7   8
ENDBRANCH   6   7
ENDBRANCH   4   6
ENDBRANCH   1   2
BRANCH   1  13
ATOM     13  P   UNL     1       8.168  -1.195  25.758  0.00  0.00    +0.351 P 
ATOM     14  O   UNL     1       9.430  -0.413  25.952  0.00  0.00    -0.257 OA
BRANCH  13  15
ATOM     15  O   UNL     1       6.893  -0.227  25.923  0.00  0.00    -0.323 OA
ATOM     16  H   UNL     1       6.052  -0.655  25.673  0.00  0.00    +0.220 HD
ENDBRANCH  13  15
BRANCH  13  17
ATOM     17  O   UNL     1       7.950  -2.385  26.809  0.00  0.00    -0.297 OA
BRANCH  17  18
ATOM     18  C   UNL     1       8.548  -3.646  26.605  0.00  0.00    +0.265 C 
BRANCH  18  19
ATOM     19  C   UNL     1       7.486  -4.663  26.962  0.00  0.00    +0.239 C 
ATOM     20  N   UNL     1       6.263  -4.145  27.351  0.00  0.00    -0.313 N 
ATOM     21  H   UNL     1       6.229  -3.178  27.652  0.00  0.00    +0.149 HD
ATOM     22  O   UNL     1       7.719  -5.871  26.931  0.00  0.00    -0.273 OA
BRANCH  20  23
ATOM     23  C   UNL     1       5.319  -5.079  27.925  0.00  0.00    +0.109 C 
BRANCH  23  24
ATOM     24  C   UNL     1       3.882  -4.934  27.433  0.00  0.00    +0.054 C 
BRANCH  24  25
ATOM     25  C   UNL     1       3.845  -5.309  25.969  0.00  0.00    -0.046 A 
ATOM     26  C   UNL     1       4.317  -6.564  25.554  0.00  0.00    +0.004 A 
ATOM     27  C   UNL     1       4.135  -6.985  24.238  0.00  0.00    +0.000 A 
ATOM     28  C   UNL     1       3.484  -6.159  23.323  0.00  0.00    +0.000 A 
ATOM     29  C   UNL     1       3.027  -4.903  23.721  0.00  0.00    +0.000 A 
ATOM     30  C   UNL     1       3.209  -4.479  25.038  0.00  0.00    +0.004 A 
ENDBRANCH  24  25
ENDBRANCH  23  24
ENDBRANCH  20  23
ENDBRANCH  18  19
ENDBRANCH  17  18
ENDBRANCH  13  17
ENDBRANCH   1  13
BRANCH   1  31
ATOM     31  C   UNL     1       6.466  -2.604  24.025  0.00  0.00    +0.070 C 
BRANCH  31  32
ATOM     32  C   UNL     1       6.447  -3.790  23.084  0.00  0.00    -0.045 A 
ATOM     33  C   UNL     1       5.841  -3.694  21.825  0.00  0.00    +0.004 A 
ATOM     34  C   UNL     1       5.992  -4.721  20.893  0.00  0.00    +0.000 A 
ATOM     35  C   UNL     1       6.737  -5.854  21.215  0.00  0.00    +0.000 A 
ATOM     36  C   UNL     1       7.282  -5.990  22.489  0.00  0.00    +0.000 A 
ATOM     37  C   UNL     1       7.120  -4.972  23.426  0.00  0.00    +0.004 A 
ENDBRANCH  31  32
ENDBRANCH   1  31
TORSDOF 16
ENDMDL
MODEL 7
REMARK VINA RESULT:      -6.5      2.033      3.258
REMARK  Name = 
REMARK  16 active torsions:
REMARK  status: ('A' for Active; 'I' for Inactive)
REMARK    1  A    between atoms: C_2  and  C_3
REMARK    2  A    between atoms: C_2  and  N_10
REMARK    3  A    between atoms: C_2  and  P_19
REMARK    4  A    between atoms: C_3  and  C_4
REMARK    5  A    between atoms: C_11  and  C_13
REMARK    6  A    between atoms: C_13  and  C_14
REMARK    7  A    between atoms: C_14  and  C_15
REMARK    8  A    between atoms: C_15  and  C_16
REMARK    9  A    between atoms: C_16  and  O_17
REMARK   10  A    between atoms: P_19  and  O_20
REMARK   11  A    between atoms: P_19  and  O_22
REMARK   12  A    between atoms: O_22  and  C_23
REMARK   13  A    between atoms: C_23  and  C_24
REMARK   14  A    between atoms: N_26  and  C_27
REMARK   15  A    between atoms: C_27  and  C_28
REMARK   16  A    between atoms: C_28  and  C_29
REMARK                            x       y       z     vdW  Elec       q    Type
REMARK                         _______ _______ _______ _____ _____    ______ ____
ROOT
ATOM      1  C   UNL     1       8.167   3.353  23.168  0.00  0.00    +0.192 C 
ENDROOT
BRANCH   1   2
ATOM      2  N   UNL     1       9.095   4.405  23.574  0.00  0.00    -0.301 N 
ATOM      3  H   UNL     1       9.488   5.005  22.861  0.00  0.00    +0.150 HD
ATOM      4  C   UNL     1       9.014   4.863  24.870  0.00  0.00    +0.214 C 
ATOM      5  O   UNL     1       8.306   4.334  25.723  0.00  0.00    -0.276 OA
BRANCH   4   6
ATOM      6  C   UNL     1       9.854   6.087  25.141  0.00  0.00    +0.096 C 
BRANCH   6   7
ATOM      7  C   UNL     1      10.726   6.400  23.930  0.00  0.00    +0.020 C 
BRANCH   7   8
ATOM      8  C   UNL     1      12.200   6.153  24.229  0.00  0.00    +0.121 C 
BRANCH   8   9
ATOM      9  C   UNL     1      12.746   4.961  23.475  0.00  0.00    +0.305 C 
ATOM     10  O   UNL     1      12.089   3.970  23.198  0.00  0.00    -0.251 OA
BRANCH   9  11
ATOM     11  O   UNL     1      14.054   5.082  23.158  0.00  0.00    -0.481 OA
ATOM     12  H   UNL     1      14.249   5.776  22.500  0.00  0.00    +0.295 HD
ENDBRANCH   9  11
ENDBRANCH   8   9
ENDBRANCH   7   8
ENDBRANCH   6   7
ENDBRANCH   4   6
ENDBRANCH   1   2
BRANCH   1  13
ATOM     13  P   UNL     1       6.608   4.120  22.672  0.00  0.00    +0.351 P 
ATOM     14  O   UNL     1       6.604   5.560  22.260  0.00  0.00    -0.257 OA
BRANCH  13  15
ATOM     15  O   UNL     1       6.088   3.202  21.456  0.00  0.00    -0.323 OA
ATOM     16  H   UNL     1       5.554   2.440  21.752  0.00  0.00    +0.220 HD
ENDBRANCH  13  15
BRANCH  13  17
ATOM     17  O   UNL     1       5.657   3.776  23.914  0.00  0.00    -0.297 OA
BRANCH  17  18
ATOM     18  C   UNL     1       4.820   2.641  23.889  0.00  0.00    +0.265 C 
BRANCH  18  19
ATOM     19  C   UNL     1       5.574   1.563  24.638  0.00  0.00    +0.239 C 
ATOM     20  N   UNL     1       5.927   0.449  23.896  0.00  0.00    -0.313 N 
ATOM     21  H   UNL     1       5.434   0.280  23.027  0.00  0.00    +0.149 HD
ATOM     22  O   UNL     1       5.827   1.672  25.838  0.00  0.00    -0.273 OA
BRANCH  20  23
ATOM     23  C   UNL     1       6.427  -0.689  24.637  0.00  0.00    +0.109 C 
BRANCH  23  24
ATOM     24  C   UNL     1       6.040  -2.052  24.072  0.00  0.00    +0.054 C 
BRANCH  24  25
ATOM     25  C   UNL     1       6.987  -3.084  24.639  0.00  0.00    -0.046 A 
ATOM     26  C   UNL     1       7.507  -4.090  23.810  0.00  0.00    +0.004 A 
ATOM     27  C   UNL     1       8.507  -4.942  24.278  0.00  0.00    +0.000 A 
ATOM     28  C   UNL     1       8.994  -4.801  25.576  0.00  0.00    +0.000 A 
ATOM     29  C   UNL     1       8.472  -3.816  26.413  0.00  0.00    +0.000 A 
ATOM     30  C   UNL     1       7.471  -2.962  25.948  0.00  0.00    +0.004 A 
ENDBRANCH  24  25
ENDBRANCH  23  24
ENDBRANCH  20  23
ENDBRANCH  18  19
ENDBRANCH  17  18
ENDBRANCH  13  17
ENDBRANCH   1  13
BRANCH   1  31
ATOM     31  C   UNL     1       8.757   2.402  22.111  0.00  0.00    +0.070 C 
BRANCH  31  32
ATOM     32  C   UNL     1       9.342   1.159  22.747  0.00  0.00    -0.045 A 
ATOM     33  C   UNL     1       9.654   1.134  24.112  0.00  0.00    +0.004 A 
ATOM     34  C   UNL     1      10.011  -0.066  24.728  0.00  0.00    +0.000 A 
ATOM     35  C   UNL     1      10.071  -1.243  23.985  0.00  0.00    +0.000 A 
ATOM     36  C   UNL     1       9.834  -1.214  22.614  0.00  0.00    +0.000 A 
ATOM     37  C   UNL     1       9.492  -0.015  21.994  0.00  0.00    +0.004 A 
ENDBRANCH  31  32
ENDBRANCH   1  31
TORSDOF 16
ENDMDL
MODEL 8
REMARK VINA RESULT:      -6.4      1.523      2.210
REMARK  Name = 
REMARK  16 active torsions:
REMARK  status: ('A' for Active; 'I' for Inactive)
REMARK    1  A    between atoms: C_2  and  C_3
REMARK    2  A    between atoms: C_2  and  N_10
REMARK    3  A    between atoms: C_2  and  P_19
REMARK    4  A    between atoms: C_3  and  C_4
REMARK    5  A    between atoms: C_11  and  C_13
REMARK    6  A    between atoms: C_13  and  C_14
REMARK    7  A    between atoms: C_14  and  C_15
REMARK    8  A    between atoms: C_15  and  C_16
REMARK    9  A    between atoms: C_16  and  O_17
REMARK   10  A    between atoms: P_19  and  O_20
REMARK   11  A    between atoms: P_19  and  O_22
REMARK   12  A    between atoms: O_22  and  C_23
REMARK   13  A    between atoms: C_23  and  C_24
REMARK   14  A    between atoms: N_26  and  C_27
REMARK   15  A    between atoms: C_27  and  C_28
REMARK   16  A    between atoms: C_28  and  C_29
REMARK                            x       y       z     vdW  Elec       q    Type
REMARK                         _______ _______ _______ _____ _____    ______ ____
ROOT
ATOM      1  C   UNL     1       9.035   2.085  23.757  0.00  0.00    +0.192 C 
ENDROOT
BRANCH   1   2
ATOM      2  N   UNL     1       9.383   3.493  23.934  0.00  0.00    -0.301 N 
ATOM      3  H   UNL     1       9.792   3.991  23.154  0.00  0.00    +0.150 HD
ATOM      4  C   UNL     1       8.714   4.199  24.908  0.00  0.00    +0.214 C 
ATOM      5  O   UNL     1       7.957   3.669  25.717  0.00  0.00    -0.276 OA
BRANCH   4   6
ATOM      6  C   UNL     1       8.978   5.684  24.879  0.00  0.00    +0.096 C 
BRANCH   6   7
ATOM      7  C   UNL     1       9.941   6.021  23.745  0.00  0.00    +0.020 C 
BRANCH   7   8
ATOM      8  C   UNL     1      11.356   6.246  24.267  0.00  0.00    +0.121 C 
BRANCH   8   9
ATOM      9  C   UNL     1      12.375   5.397  23.541  0.00  0.00    +0.305 C 
ATOM     10  O   UNL     1      12.282   4.188  23.402  0.00  0.00    -0.251 OA
BRANCH   9  11
ATOM     11  O   UNL     1      13.429   6.106  23.078  0.00  0.00    -0.481 OA
ATOM     12  H   UNL     1      14.281   5.630  23.104  0.00  0.00    +0.295 HD
ENDBRANCH   9  11
ENDBRANCH   8   9
ENDBRANCH   7   8
ENDBRANCH   6   7
ENDBRANCH   4   6
ENDBRANCH   1   2
BRANCH   1  13
ATOM     13  P   UNL     1       7.995   1.928  22.288  0.00  0.00    +0.351 P 
ATOM     14  O   UNL     1       7.180   3.104  21.845  0.00  0.00    -0.257 OA
BRANCH  13  15
ATOM     15  O   UNL     1       9.021   1.504  21.124  0.00  0.00    -0.323 OA
ATOM     16  H   UNL     1       8.905   2.019  20.303  0.00  0.00    +0.220 HD
ENDBRANCH  13  15
BRANCH  13  17
ATOM     17  O   UNL     1       7.145   0.611  22.620  0.00  0.00    -0.297 OA
BRANCH  17  18
ATOM     18  C   UNL     1       6.445   0.494  23.840  0.00  0.00    +0.265 C 
BRANCH  18  19
ATOM     19  C   UNL     1       6.020  -0.956  23.927  0.00  0.00    +0.239 C 
ATOM     20  N   UNL     1       6.211  -1.709  22.782  0.00  0.00    -0.313 N 
ATOM     21  H   UNL     1       6.333  -1.219  21.904  0.00  0.00    +0.149 HD
ATOM     22  O   UNL     1       5.512  -1.415  24.950  0.00  0.00    -0.273 OA
BRANCH  20  23
ATOM     23  C   UNL     1       5.596  -3.019  22.760  0.00  0.00    +0.109 C 
BRANCH  23  24
ATOM     24  C   UNL     1       6.567  -4.193  22.846  0.00  0.00    +0.054 C 
BRANCH  24  25
ATOM     25  C   UNL     1       6.017  -5.187  23.842  0.00  0.00    -0.046 A 
ATOM     26  C   UNL     1       6.371  -5.093  25.197  0.00  0.00    +0.004 A 
ATOM     27  C   UNL     1       5.742  -5.897  26.147  0.00  0.00    +0.000 A 
ATOM     28  C   UNL     1       4.758  -6.802  25.756  0.00  0.00    +0.000 A 
ATOM     29  C   UNL     1       4.412  -6.916  24.410  0.00  0.00    +0.000 A 
ATOM     30  C   UNL     1       5.040  -6.114  23.456  0.00  0.00    +0.004 A 
ENDBRANCH  24  25
ENDBRANCH  23  24
ENDBRANCH  20  23
ENDBRANCH  18  19
ENDBRANCH  17  18
ENDBRANCH  13  17
ENDBRANCH   1  13
BRANCH   1  31
ATOM     31  C   UNL     1      10.263   1.156  23.753  0.00  0.00    +0.070 C 
BRANCH  31  32
ATOM     32  C   UNL     1       9.934  -0.201  24.339  0.00  0.00    -0.045 A 
ATOM     33  C   UNL     1       9.393  -0.311  25.626  0.00  0.00    +0.004 A 
ATOM     34  C   UNL     1       8.916  -1.540  26.084  0.00  0.00    +0.000 A 
ATOM     35  C   UNL     1       8.988  -2.667  25.267  0.00  0.00    +0.000 A 
ATOM     36  C   UNL     1       9.591  -2.582  24.016  0.00  0.00    +0.000 A 
ATOM     37  C   UNL     1      10.080  -1.359  23.562  0.00  0.00    +0.004 A 
ENDBRANCH  31  32
ENDBRANCH   1  31
TORSDOF 16
ENDMDL
MODEL 9
REMARK VINA RESULT:      -6.4      3.538      8.826
REMARK  Name = 
REMARK  16 active torsions:
REMARK  status: ('A' for Active; 'I' for Inactive)
REMARK    1  A    between atoms: C_2  and  C_3
REMARK    2  A    between atoms: C_2  and  N_10
REMARK    3  A    between atoms: C_2  and  P_19
REMARK    4  A    between atoms: C_3  and  C_4
REMARK    5  A    between atoms: C_11  and  C_13
REMARK    6  A    between atoms: C_13  and  C_14
REMARK    7  A    between atoms: C_14  and  C_15
REMARK    8  A    between atoms: C_15  and  C_16
REMARK    9  A    between atoms: C_16  and  O_17
REMARK   10  A    between atoms: P_19  and  O_20
REMARK   11  A    between atoms: P_19  and  O_22
REMARK   12  A    between atoms: O_22  and  C_23
REMARK   13  A    between atoms: C_23  and  C_24
REMARK   14  A    between atoms: N_26  and  C_27
REMARK   15  A    between atoms: C_27  and  C_28
REMARK   16  A    between atoms: C_28  and  C_29
REMARK                            x       y       z     vdW  Elec       q    Type
REMARK                         _______ _______ _______ _____ _____    ______ ____
ROOT
ATOM      1  C   UNL     1       8.459  -2.712  24.150  0.00  0.00    +0.192 C 
ENDROOT
BRANCH   1   2
ATOM      2  N   UNL     1       8.270  -4.085  23.689  0.00  0.00    -0.301 N 
ATOM      3  H   UNL     1       8.373  -4.838  24.357  0.00  0.00    +0.150 HD
ATOM      4  C   UNL     1       7.496  -4.282  22.567  0.00  0.00    +0.214 C 
ATOM      5  O   UNL     1       7.086  -3.359  21.868  0.00  0.00    -0.276 OA
BRANCH   4   6
ATOM      6  C   UNL     1       7.178  -5.730  22.288  0.00  0.00    +0.096 C 
BRANCH   6   7
ATOM      7  C   UNL     1       5.695  -5.886  21.968  0.00  0.00    +0.020 C 
BRANCH   7   8
ATOM      8  C   UNL     1       4.825  -5.445  23.139  0.00  0.00    +0.121 C 
BRANCH   8   9
ATOM      9  C   UNL     1       4.900  -6.409  24.302  0.00  0.00    +0.305 C 
ATOM     10  O   UNL     1       5.445  -6.155  25.365  0.00  0.00    -0.251 OA
BRANCH   9  11
ATOM     11  O   UNL     1       4.324  -7.605  24.044  0.00  0.00    -0.481 OA
ATOM     12  H   UNL     1       3.556  -7.563  23.443  0.00  0.00    +0.295 HD
ENDBRANCH   9  11
ENDBRANCH   8   9
ENDBRANCH   7   8
ENDBRANCH   6   7
ENDBRANCH   4   6
ENDBRANCH   1   2
BRANCH   1  13
ATOM     13  P   UNL     1       7.836  -2.581  25.841  0.00  0.00    +0.351 P 
ATOM     14  O   UNL     1       7.855  -3.794  26.720  0.00  0.00    -0.257 OA
BRANCH  13  15
ATOM     15  O   UNL     1       8.730  -1.415  26.499  0.00  0.00    -0.323 OA
ATOM     16  H   UNL     1       8.380  -1.099  27.354  0.00  0.00    +0.220 HD
ENDBRANCH  13  15
BRANCH  13  17
ATOM     17  O   UNL     1       6.385  -1.941  25.614  0.00  0.00    -0.297 OA
BRANCH  17  18
ATOM     18  C   UNL     1       6.069  -1.283  24.407  0.00  0.00    +0.265 C 
BRANCH  18  19
ATOM     19  C   UNL     1       6.073   0.195  24.737  0.00  0.00    +0.239 C 
ATOM     20  N   UNL     1       5.733   1.044  23.699  0.00  0.00    -0.313 N 
ATOM     21  H   UNL     1       5.790   0.687  22.752  0.00  0.00    +0.149 HD
ATOM     22  O   UNL     1       6.389   0.602  25.855  0.00  0.00    -0.273 OA
BRANCH  20  23
ATOM     23  C   UNL     1       5.963   2.456  23.917  0.00  0.00    +0.109 C 
BRANCH  23  24
ATOM     24  C   UNL     1       6.432   3.233  22.690  0.00  0.00    +0.054 C 
BRANCH  24  25
ATOM     25  C   UNL     1       7.316   4.366  23.159  0.00  0.00    -0.046 A 
ATOM     26  C   UNL     1       8.133   4.198  24.288  0.00  0.00    +0.004 A 
ATOM     27  C   UNL     1       9.071   5.171  24.630  0.00  0.00    +0.000 A 
ATOM     28  C   UNL     1       9.201   6.321  23.853  0.00  0.00    +0.000 A 
ATOM     29  C   UNL     1       8.382   6.505  22.740  0.00  0.00    +0.000 A 
ATOM     30  C   UNL     1       7.441   5.534  22.395  0.00  0.00    +0.004 A 
ENDBRANCH  24  25
ENDBRANCH  23  24
ENDBRANCH  20  23
ENDBRANCH  18  19
ENDBRANCH  17  18
ENDBRANCH  13  17
ENDBRANCH   1  13
BRANCH   1  31
ATOM     31  C   UNL     1       9.904  -2.211  23.978  0.00  0.00    +0.070 C 
BRANCH  31  32
ATOM     32  C   UNL     1       9.950  -0.891  23.239  0.00  0.00    -0.045 A 
ATOM     33  C   UNL     1       9.401  -0.770  21.956  0.00  0.00    +0.004 A 
ATOM     34  C   UNL     1       9.275   0.486  21.362  0.00  0.00    +0.000 A 
ATOM     35  C   UNL     1       9.707   1.626  22.038  0.00  0.00    +0.000 A 
ATOM     36  C   UNL     1      10.320   1.508  23.281  0.00  0.00    +0.000 A 
ATOM     37  C   UNL     1      10.460   0.253  23.870  0.00  0.00    +0.004 A 
ENDBRANCH  31  32
ENDBRANCH   1  31
TORSDOF 16
ENDMDL
