MODEL 1
REMARK VINA RESULT:      -7.7      0.000      0.000
REMARK  Name = 
REMARK  3 active torsions:
REMARK  status: ('A' for Active; 'I' for Inactive)
REMARK    1  A    between atoms: C_2  and  C_3
REMARK    2  A    between atoms: C_3  and  O_4
REMARK    3  A    between atoms: O_4  and  C_5
REMARK                            x       y       z     vdW  Elec       q    Type
REMARK                         _______ _______ _______ _____ _____    ______ ____
ROOT
ATOM      1  C   UNL     1       9.044  -2.778  23.632  0.00  0.00    +0.299 C 
ATOM      2  N   UNL     1       9.829  -3.799  24.332  0.00  0.00    -0.072 NA
ATOM      3  C   UNL     1       9.269  -4.654  25.126  0.00  0.00    +0.321 C 
ATOM      4  N   UNL     1      10.143  -5.571  25.649  0.00  0.00    -0.246 N 
ATOM      5  H   UNL     1      11.110  -5.285  25.546  0.00  0.00    +0.288 HD
ATOM      6  H   UNL     1       9.905  -5.950  26.556  0.00  0.00    +0.288 HD
ATOM      7  C   UNL     1       7.856  -4.633  25.474  0.00  0.00    +0.144 A 
ATOM      8  S   UNL     1       7.424  -5.217  27.043  0.00  0.00    -0.086 S 
ATOM      9  C   UNL     1       5.792  -4.774  26.843  0.00  0.00    +0.050 A 
ATOM     10  C   UNL     1       5.555  -4.267  25.589  0.00  0.00    +0.054 A 
ATOM     11  C   UNL     1       6.742  -4.161  24.807  0.00  0.00    +0.143 A 
ATOM     12  O   UNL     1       6.670  -3.587  23.582  0.00  0.00    -0.486 OA
ATOM     13  C   UNL     1       7.879  -3.413  22.861  0.00  0.00    +0.286 C 
ENDROOT
BRANCH   1  14
ATOM     14  C   UNL     1       8.684  -1.580  24.531  0.00  0.00    +0.286 C 
BRANCH  14  15
ATOM     15  O   UNL     1       9.862  -0.789  24.680  0.00  0.00    -0.487 OA
BRANCH  15  16
ATOM     16  C   UNL     1       9.734   0.568  24.640  0.00  0.00    +0.121 A 
ATOM     17  C   UNL     1      10.665   1.466  24.116  0.00  0.00    +0.050 A 
ATOM     18  C   UNL     1      10.355   2.837  24.022  0.00  0.00    -0.027 A 
ATOM     19  C   UNL     1       9.124   3.304  24.510  0.00  0.00    -0.042 A 
ATOM     20  C   UNL     1       8.762   4.763  24.377  0.00  0.00    +0.050 C 
ATOM     21  C   UNL     1       9.999   5.638  24.160  0.00  0.00    +0.086 C 
ATOM     22  N   UNL     1      10.819   5.109  23.070  0.00  0.00    -0.312 NA
ATOM     23  H   UNL     1      11.591   5.745  22.881  0.00  0.00    +0.122 HD
ATOM     24  C   UNL     1       8.197   2.400  25.042  0.00  0.00    +0.007 A 
ATOM     25  C   UNL     1      11.368   3.795  23.430  0.00  0.00    +0.116 C 
ATOM     26  C   UNL     1       8.505   1.041  25.098  0.00  0.00    +0.046 A 
ENDBRANCH  15  16
ENDBRANCH  14  15
ENDBRANCH   1  14
TORSDOF 3
ENDMDL
MODEL 2
REMARK VINA RESULT:      -7.6      2.541      3.278
REMARK  Name = 
REMARK  3 active torsions:
REMARK  status: ('A' for Active; 'I' for Inactive)
REMARK    1  A    between atoms: C_2  and  C_3
REMARK    2  A    between atoms: C_3  and  O_4
REMARK    3  A    between atoms: O_4  and  C_5
REMARK                            x       y       z     vdW  Elec       q    Type
REMARK                         _______ _______ _______ _____ _____    ______ ____
ROOT
ATOM      1  C   UNL     1       8.477  -4.729  26.485  0.00  0.00    +0.299 C 
ATOM      2  N   UNL     1       7.374  -5.558  26.982  0.00  0.00    -0.072 NA
ATOM      3  C   UNL     1       6.376  -5.881  26.223  0.00  0.00    +0.321 C 
ATOM      4  N   UNL     1       5.468  -6.705  26.832  0.00  0.00    -0.246 N 
ATOM      5  H   UNL     1       5.575  -6.720  27.839  0.00  0.00    +0.288 HD
ATOM      6  H   UNL     1       4.512  -6.637  26.506  0.00  0.00    +0.288 HD
ATOM      7  C   UNL     1       6.201  -5.390  24.863  0.00  0.00    +0.144 A 
ATOM      8  S   UNL     1       4.577  -5.204  24.299  0.00  0.00    -0.086 S 
ATOM      9  C   UNL     1       5.085  -4.496  22.836  0.00  0.00    +0.050 A 
ATOM     10  C   UNL     1       6.454  -4.470  22.734  0.00  0.00    +0.054 A 
ATOM     11  C   UNL     1       7.100  -4.960  23.907  0.00  0.00    +0.143 A 
ATOM     12  O   UNL     1       8.452  -4.903  23.983  0.00  0.00    -0.486 OA
ATOM     13  C   UNL     1       9.064  -5.314  25.194  0.00  0.00    +0.286 C 
ENDROOT
BRANCH   1  14
ATOM     14  C   UNL     1       8.128  -3.229  26.448  0.00  0.00    +0.286 C 
BRANCH  14  15
ATOM     15  O   UNL     1       9.123  -2.580  25.657  0.00  0.00    -0.487 OA
BRANCH  15  16
ATOM     16  C   UNL     1       8.742  -1.518  24.890  0.00  0.00    +0.121 A 
ATOM     17  C   UNL     1       9.592  -0.674  24.176  0.00  0.00    +0.050 A 
ATOM     18  C   UNL     1       9.062   0.310  23.319  0.00  0.00    -0.027 A 
ATOM     19  C   UNL     1       7.670   0.473  23.229  0.00  0.00    -0.042 A 
ATOM     20  C   UNL     1       7.087   1.495  22.284  0.00  0.00    +0.050 C 
ATOM     21  C   UNL     1       8.114   2.563  21.898  0.00  0.00    +0.086 C 
ATOM     22  N   UNL     1       9.356   1.942  21.438  0.00  0.00    -0.312 NA
ATOM     23  H   UNL     1       9.997   2.659  21.106  0.00  0.00    +0.122 HD
ATOM     24  C   UNL     1       6.821  -0.373  23.953  0.00  0.00    +0.007 A 
ATOM     25  C   UNL     1       9.999   1.204  22.534  0.00  0.00    +0.116 C 
ATOM     26  C   UNL     1       7.361  -1.363  24.772  0.00  0.00    +0.046 A 
ENDBRANCH  15  16
ENDBRANCH  14  15
ENDBRANCH   1  14
TORSDOF 3
ENDMDL
MODEL 3
REMARK VINA RESULT:      -7.6      2.986      7.419
REMARK  Name = 
REMARK  3 active torsions:
REMARK  status: ('A' for Active; 'I' for Inactive)
REMARK    1  A    between atoms: C_2  and  C_3
REMARK    2  A    between atoms: C_3  and  O_4
REMARK    3  A    between atoms: O_4  and  C_5
REMARK                            x       y       z     vdW  Elec       q    Type
REMARK                         _______ _______ _______ _____ _____    ______ ____
ROOT
ATOM      1  C   UNL     1       9.339  -1.686  22.002  0.00  0.00    +0.299 C 
ATOM      2  N   UNL     1       9.484  -0.355  21.403  0.00  0.00    -0.072 NA
ATOM      3  C   UNL     1       9.356   0.721  22.111  0.00  0.00    +0.321 C 
ATOM      4  N   UNL     1       9.580   1.872  21.403  0.00  0.00    -0.246 N 
ATOM      5  H   UNL     1       9.552   1.722  20.402  0.00  0.00    +0.288 HD
ATOM      6  H   UNL     1       9.091   2.698  21.725  0.00  0.00    +0.288 HD
ATOM      7  C   UNL     1       8.970   0.727  23.515  0.00  0.00    +0.144 A 
ATOM      8  S   UNL     1       8.078   2.097  24.079  0.00  0.00    -0.086 S 
ATOM      9  C   UNL     1       7.841   1.406  25.617  0.00  0.00    +0.050 A 
ATOM     10  C   UNL     1       8.487   0.200  25.735  0.00  0.00    +0.054 A 
ATOM     11  C   UNL     1       9.116  -0.206  24.522  0.00  0.00    +0.143 A 
ATOM     12  O   UNL     1       9.710  -1.423  24.468  0.00  0.00    -0.486 OA
ATOM     13  C   UNL     1      10.251  -1.840  23.225  0.00  0.00    +0.286 C 
ENDROOT
BRANCH   1  14
ATOM     14  C   UNL     1       7.867  -2.094  22.202  0.00  0.00    +0.286 C 
BRANCH  14  15
ATOM     15  O   UNL     1       7.821  -3.519  22.244  0.00  0.00    -0.487 OA
BRANCH  15  16
ATOM     16  C   UNL     1       7.221  -4.112  23.315  0.00  0.00    +0.121 A 
ATOM     17  C   UNL     1       7.827  -4.410  24.535  0.00  0.00    +0.050 A 
ATOM     18  C   UNL     1       7.061  -4.910  25.607  0.00  0.00    -0.027 A 
ATOM     19  C   UNL     1       5.690  -5.157  25.422  0.00  0.00    -0.042 A 
ATOM     20  C   UNL     1       4.850  -5.652  26.573  0.00  0.00    +0.050 C 
ATOM     21  C   UNL     1       5.706  -6.284  27.673  0.00  0.00    +0.086 C 
ATOM     22  N   UNL     1       6.799  -5.388  28.054  0.00  0.00    -0.312 NA
ATOM     23  H   UNL     1       7.308  -5.783  28.842  0.00  0.00    +0.122 HD
ATOM     24  C   UNL     1       5.089  -4.863  24.193  0.00  0.00    +0.007 A 
ATOM     25  C   UNL     1       7.730  -5.208  26.932  0.00  0.00    +0.116 C 
ATOM     26  C   UNL     1       5.854  -4.339  23.152  0.00  0.00    +0.046 A 
ENDBRANCH  15  16
ENDBRANCH  14  15
ENDBRANCH   1  14
TORSDOF 3
ENDMDL
MODEL 4
REMARK VINA RESULT:      -7.5      3.216      7.645
REMARK  Name = 
REMARK  3 active torsions:
REMARK  status: ('A' for Active; 'I' for Inactive)
REMARK    1  A    between atoms: C_2  and  C_3
REMARK    2  A    between atoms: C_3  and  O_4
REMARK    3  A    between atoms: O_4  and  C_5
REMARK                            x       y       z     vdW  Elec       q    Type
REMARK                         _______ _______ _______ _____ _____    ______ ____
ROOT
ATOM      1  C   UNL     1      10.188  -0.894  23.203  0.00  0.00    +0.299 C 
ATOM      2  N   UNL     1      10.163   0.242  22.277  0.00  0.00    -0.072 NA
ATOM      3  C   UNL     1       9.253   1.160  22.359  0.00  0.00    +0.321 C 
ATOM      4  N   UNL     1       9.415   2.175  21.454  0.00  0.00    -0.246 N 
ATOM      5  H   UNL     1      10.050   1.926  20.704  0.00  0.00    +0.288 HD
ATOM      6  H   UNL     1       8.572   2.650  21.159  0.00  0.00    +0.288 HD
ATOM      7  C   UNL     1       8.136   1.112  23.291  0.00  0.00    +0.144 A 
ATOM      8  S   UNL     1       6.661   1.863  22.789  0.00  0.00    -0.086 S 
ATOM      9  C   UNL     1       5.825   1.318  24.168  0.00  0.00    +0.050 A 
ATOM     10  C   UNL     1       6.656   0.651  25.034  0.00  0.00    +0.054 A 
ATOM     11  C   UNL     1       7.979   0.508  24.524  0.00  0.00    +0.143 A 
ATOM     12  O   UNL     1       8.880  -0.214  25.232  0.00  0.00    -0.486 OA
ATOM     13  C   UNL     1      10.162  -0.416  24.660  0.00  0.00    +0.286 C 
ENDROOT
BRANCH   1  14
ATOM     14  C   UNL     1       9.170  -1.989  22.835  0.00  0.00    +0.286 C 
BRANCH  14  15
ATOM     15  O   UNL     1       9.439  -3.119  23.663  0.00  0.00    -0.487 OA
BRANCH  15  16
ATOM     16  C   UNL     1       8.379  -3.836  24.137  0.00  0.00    +0.121 A 
ATOM     17  C   UNL     1       7.441  -4.521  23.366  0.00  0.00    +0.050 A 
ATOM     18  C   UNL     1       6.466  -5.329  23.984  0.00  0.00    -0.027 A 
ATOM     19  C   UNL     1       6.411  -5.398  25.386  0.00  0.00    -0.042 A 
ATOM     20  C   UNL     1       5.399  -6.291  26.060  0.00  0.00    +0.050 C 
ATOM     21  C   UNL     1       4.238  -6.641  25.127  0.00  0.00    +0.086 C 
ATOM     22  N   UNL     1       4.738  -7.140  23.846  0.00  0.00    -0.312 NA
ATOM     23  H   UNL     1       3.958  -7.447  23.268  0.00  0.00    +0.122 HD
ATOM     24  C   UNL     1       7.351  -4.702  26.155  0.00  0.00    +0.007 A 
ATOM     25  C   UNL     1       5.468  -6.084  23.131  0.00  0.00    +0.116 C 
ATOM     26  C   UNL     1       8.330  -3.932  25.528  0.00  0.00    +0.046 A 
ENDBRANCH  15  16
ENDBRANCH  14  15
ENDBRANCH   1  14
TORSDOF 3
ENDMDL
MODEL 5
REMARK VINA RESULT:      -7.5      2.005      2.949
REMARK  Name = 
REMARK  3 active torsions:
REMARK  status: ('A' for Active; 'I' for Inactive)
REMARK    1  A    between atoms: C_2  and  C_3
REMARK    2  A    between atoms: C_3  and  O_4
REMARK    3  A    between atoms: O_4  and  C_5
REMARK                            x       y       z     vdW  Elec       q    Type
REMARK                         _______ _______ _______ _____ _____    ______ ____
ROOT
ATOM      1  C   UNL     1       8.777  -5.135  24.842  0.00  0.00    +0.299 C 
ATOM      2  N   UNL     1       8.103  -5.771  25.979  0.00  0.00    -0.072 NA
ATOM      3  C   UNL     1       6.912  -5.416  26.342  0.00  0.00    +0.321 C 
ATOM      4  N   UNL     1       6.414  -6.153  27.383  0.00  0.00    -0.246 N 
ATOM      5  H   UNL     1       7.136  -6.672  27.869  0.00  0.00    +0.288 HD
ATOM      6  H   UNL     1       5.746  -5.687  27.984  0.00  0.00    +0.288 HD
ATOM      7  C   UNL     1       6.176  -4.314  25.740  0.00  0.00    +0.144 A 
ATOM      8  S   UNL     1       5.073  -3.456  26.759  0.00  0.00    -0.086 S 
ATOM      9  C   UNL     1       4.733  -2.305  25.551  0.00  0.00    +0.050 A 
ATOM     10  C   UNL     1       5.374  -2.601  24.373  0.00  0.00    +0.054 A 
ATOM     11  C   UNL     1       6.224  -3.741  24.484  0.00  0.00    +0.143 A 
ATOM     12  O   UNL     1       6.992  -4.090  23.424  0.00  0.00    -0.486 OA
ATOM     13  C   UNL     1       7.894  -5.172  23.589  0.00  0.00    +0.286 C 
ENDROOT
BRANCH   1  14
ATOM     14  C   UNL     1       9.386  -3.766  25.198  0.00  0.00    +0.286 C 
BRANCH  14  15
ATOM     15  O   UNL     1      10.070  -3.289  24.041  0.00  0.00    -0.487 OA
BRANCH  15  16
ATOM     16  C   UNL     1       9.810  -2.019  23.618  0.00  0.00    +0.121 A 
ATOM     17  C   UNL     1       9.717  -0.886  24.427  0.00  0.00    +0.050 A 
ATOM     18  C   UNL     1       9.568   0.390  23.850  0.00  0.00    -0.027 A 
ATOM     19  C   UNL     1       9.459   0.511  22.455  0.00  0.00    -0.042 A 
ATOM     20  C   UNL     1       9.342   1.875  21.821  0.00  0.00    +0.050 C 
ATOM     21  C   UNL     1       8.868   2.930  22.823  0.00  0.00    +0.086 C 
ATOM     22  N   UNL     1       9.681   2.888  24.039  0.00  0.00    -0.312 NA
ATOM     23  H   UNL     1       9.411   3.647  24.660  0.00  0.00    +0.122 HD
ATOM     24  C   UNL     1       9.546  -0.630  21.648  0.00  0.00    +0.007 A 
ATOM     25  C   UNL     1       9.490   1.612  24.742  0.00  0.00    +0.116 C 
ATOM     26  C   UNL     1       9.726  -1.883  22.232  0.00  0.00    +0.046 A 
ENDBRANCH  15  16
ENDBRANCH  14  15
ENDBRANCH   1  14
TORSDOF 3
ENDMDL
MODEL 6
REMARK VINA RESULT:      -7.4      3.086      7.870
REMARK  Name = 
REMARK  3 active torsions:
REMARK  status: ('A' for Active; 'I' for Inactive)
REMARK    1  A    between atoms: C_2  and  C_3
REMARK    2  A    between atoms: C_3  and  O_4
REMARK    3  A    between atoms: O_4  and  C_5
REMARK                            x       y       z     vdW  Elec       q    Type
REMARK                         _______ _______ _______ _____ _____    ______ ____
ROOT
ATOM      1  C   UNL     1       8.668  -1.733  22.679  0.00  0.00    +0.299 C 
ATOM      2  N   UNL     1       7.384  -1.115  23.024  0.00  0.00    -0.072 NA
ATOM      3  C   UNL     1       7.290   0.151  23.278  0.00  0.00    +0.321 C 
ATOM      4  N   UNL     1       6.009   0.567  23.524  0.00  0.00    -0.246 N 
ATOM      5  H   UNL     1       5.384  -0.204  23.726  0.00  0.00    +0.288 HD
ATOM      6  H   UNL     1       5.908   1.369  24.134  0.00  0.00    +0.288 HD
ATOM      7  C   UNL     1       8.433   1.052  23.340  0.00  0.00    +0.144 A 
ATOM      8  S   UNL     1       8.314   2.397  24.419  0.00  0.00    -0.086 S 
ATOM      9  C   UNL     1       9.924   2.871  24.127  0.00  0.00    +0.050 A 
ATOM     10  C   UNL     1      10.519   2.081  23.175  0.00  0.00    +0.054 A 
ATOM     11  C   UNL     1       9.675   1.019  22.737  0.00  0.00    +0.143 A 
ATOM     12  O   UNL     1      10.170   0.105  21.868  0.00  0.00    -0.486 OA
ATOM     13  C   UNL     1       9.340  -0.990  21.517  0.00  0.00    +0.286 C 
ENDROOT
BRANCH   1  14
ATOM     14  C   UNL     1       9.554  -2.000  23.911  0.00  0.00    +0.286 C 
BRANCH  14  15
ATOM     15  O   UNL     1       9.639  -3.414  24.076  0.00  0.00    -0.487 OA
BRANCH  15  16
ATOM     16  C   UNL     1       8.521  -4.084  24.478  0.00  0.00    +0.121 A 
ATOM     17  C   UNL     1       7.586  -4.697  23.643  0.00  0.00    +0.050 A 
ATOM     18  C   UNL     1       6.540  -5.465  24.191  0.00  0.00    -0.027 A 
ATOM     19  C   UNL     1       6.412  -5.567  25.586  0.00  0.00    -0.042 A 
ATOM     20  C   UNL     1       5.321  -6.420  26.184  0.00  0.00    +0.050 C 
ATOM     21  C   UNL     1       4.191  -6.682  25.187  0.00  0.00    +0.086 C 
ATOM     22  N   UNL     1       4.727  -7.175  23.918  0.00  0.00    -0.312 NA
ATOM     23  H   UNL     1       3.962  -7.424  23.294  0.00  0.00    +0.122 HD
ATOM     24  C   UNL     1       7.348  -4.943  26.418  0.00  0.00    +0.007 A 
ATOM     25  C   UNL     1       5.547  -6.143  23.270  0.00  0.00    +0.116 C 
ATOM     26  C   UNL     1       8.397  -4.213  25.861  0.00  0.00    +0.046 A 
ENDBRANCH  15  16
ENDBRANCH  14  15
ENDBRANCH   1  14
TORSDOF 3
ENDMDL
MODEL 7
REMARK VINA RESULT:      -7.4      2.322      2.984
REMARK  Name = 
REMARK  3 active torsions:
REMARK  status: ('A' for Active; 'I' for Inactive)
REMARK    1  A    between atoms: C_2  and  C_3
REMARK    2  A    between atoms: C_3  and  O_4
REMARK    3  A    between atoms: O_4  and  C_5
REMARK                            x       y       z     vdW  Elec       q    Type
REMARK                         _______ _______ _______ _____ _____    ______ ____
ROOT
ATOM      1  C   UNL     1       7.479  -3.531  22.703  0.00  0.00    +0.299 C 
ATOM      2  N   UNL     1       7.048  -4.707  21.941  0.00  0.00    -0.072 NA
ATOM      3  C   UNL     1       6.029  -5.415  22.312  0.00  0.00    +0.321 C 
ATOM      4  N   UNL     1       5.733  -6.441  21.454  0.00  0.00    -0.246 N 
ATOM      5  H   UNL     1       6.495  -6.645  20.819  0.00  0.00    +0.288 HD
ATOM      6  H   UNL     1       5.289  -7.253  21.863  0.00  0.00    +0.288 HD
ATOM      7  C   UNL     1       5.284  -5.182  23.542  0.00  0.00    +0.144 A 
ATOM      8  S   UNL     1       4.566  -6.561  24.298  0.00  0.00    -0.086 S 
ATOM      9  C   UNL     1       4.057  -5.652  25.645  0.00  0.00    +0.050 A 
ATOM     10  C   UNL     1       4.349  -4.319  25.497  0.00  0.00    +0.054 A 
ATOM     11  C   UNL     1       5.077  -4.047  24.301  0.00  0.00    +0.143 A 
ATOM     12  O   UNL     1       5.516  -2.786  24.074  0.00  0.00    -0.486 OA
ATOM     13  C   UNL     1       6.312  -2.560  22.922  0.00  0.00    +0.286 C 
ENDROOT
BRANCH   1  14
ATOM     14  C   UNL     1       8.296  -3.897  23.956  0.00  0.00    +0.286 C 
BRANCH  14  15
ATOM     15  O   UNL     1       9.568  -3.260  23.837  0.00  0.00    -0.487 OA
BRANCH  15  16
ATOM     16  C   UNL     1       9.615  -1.899  23.907  0.00  0.00    +0.121 A 
ATOM     17  C   UNL     1       9.876  -1.031  22.846  0.00  0.00    +0.050 A 
ATOM     18  C   UNL     1       9.771   0.362  23.025  0.00  0.00    -0.027 A 
ATOM     19  C   UNL     1       9.453   0.876  24.294  0.00  0.00    -0.042 A 
ATOM     20  C   UNL     1       9.296   2.363  24.489  0.00  0.00    +0.050 C 
ATOM     21  C   UNL     1       9.982   3.159  23.376  0.00  0.00    +0.086 C 
ATOM     22  N   UNL     1       9.569   2.668  22.062  0.00  0.00    -0.312 NA
ATOM     23  H   UNL     1       9.966   3.259  21.334  0.00  0.00    +0.122 HD
ATOM     24  C   UNL     1       9.199  -0.000  25.355  0.00  0.00    +0.007 A 
ATOM     25  C   UNL     1      10.036   1.290  21.858  0.00  0.00    +0.116 C 
ATOM     26  C   UNL     1       9.276  -1.377  25.155  0.00  0.00    +0.046 A 
ENDBRANCH  15  16
ENDBRANCH  14  15
ENDBRANCH   1  14
TORSDOF 3
ENDMDL
MODEL 8
REMARK VINA RESULT:      -7.4      1.905      2.487
REMARK  Name = 
REMARK  3 active torsions:
REMARK  status: ('A' for Active; 'I' for Inactive)
REMARK    1  A    between atoms: C_2  and  C_3
REMARK    2  A    between atoms: C_3  and  O_4
REMARK    3  A    between atoms: O_4  and  C_5
REMARK                            x       y       z     vdW  Elec       q    Type
REMARK                         _______ _______ _______ _____ _____    ______ ____
ROOT
ATOM      1  C   UNL     1       8.743  -4.012  26.442  0.00  0.00    +0.299 C 
ATOM      2  N   UNL     1       7.703  -4.832  27.070  0.00  0.00    -0.072 NA
ATOM      3  C   UNL     1       6.858  -5.510  26.362  0.00  0.00    +0.321 C 
ATOM      4  N   UNL     1       5.995  -6.264  27.111  0.00  0.00    -0.246 N 
ATOM      5  H   UNL     1       5.977  -5.980  28.084  0.00  0.00    +0.288 HD
ATOM      6  H   UNL     1       5.086  -6.444  26.703  0.00  0.00    +0.288 HD
ATOM      7  C   UNL     1       6.791  -5.455  24.908  0.00  0.00    +0.144 A 
ATOM      8  S   UNL     1       5.239  -5.696  24.184  0.00  0.00    -0.086 S 
ATOM      9  C   UNL     1       5.829  -5.355  22.624  0.00  0.00    +0.050 A 
ATOM     10  C   UNL     1       7.186  -5.140  22.631  0.00  0.00    +0.054 A 
ATOM     11  C   UNL     1       7.739  -5.172  23.945  0.00  0.00    +0.143 A 
ATOM     12  O   UNL     1       9.051  -4.882  24.110  0.00  0.00    -0.486 OA
ATOM     13  C   UNL     1       9.557  -4.833  25.434  0.00  0.00    +0.286 C 
ENDROOT
BRANCH   1  14
ATOM     14  C   UNL     1       8.211  -2.658  25.935  0.00  0.00    +0.286 C 
BRANCH  14  15
ATOM     15  O   UNL     1       9.302  -1.974  25.320  0.00  0.00    -0.487 OA
BRANCH  15  16
ATOM     16  C   UNL     1       9.207  -0.623  25.162  0.00  0.00    +0.121 A 
ATOM     17  C   UNL     1      10.148   0.199  24.542  0.00  0.00    +0.050 A 
ATOM     18  C   UNL     1       9.870   1.565  24.333  0.00  0.00    -0.027 A 
ATOM     19  C   UNL     1       8.662   2.106  24.801  0.00  0.00    -0.042 A 
ATOM     20  C   UNL     1       8.334   3.556  24.546  0.00  0.00    +0.050 C 
ATOM     21  C   UNL     1       9.586   4.376  24.228  0.00  0.00    +0.086 C 
ATOM     22  N   UNL     1      10.369   3.731  23.173  0.00  0.00    -0.312 NA
ATOM     23  H   UNL     1      11.153   4.327  22.913  0.00  0.00    +0.122 HD
ATOM     24  C   UNL     1       7.725   1.277  25.429  0.00  0.00    +0.007 A 
ATOM     25  C   UNL     1      10.893   2.439  23.638  0.00  0.00    +0.116 C 
ATOM     26  C   UNL     1       8.000  -0.079  25.600  0.00  0.00    +0.046 A 
ENDBRANCH  15  16
ENDBRANCH  14  15
ENDBRANCH   1  14
TORSDOF 3
ENDMDL
MODEL 9
REMARK VINA RESULT:      -7.4      3.202      7.371
REMARK  Name = 
REMARK  3 active torsions:
REMARK  status: ('A' for Active; 'I' for Inactive)
REMARK    1  A    between atoms: C_2  and  C_3
REMARK    2  A    between atoms: C_3  and  O_4
REMARK    3  A    between atoms: O_4  and  C_5
REMARK                            x       y       z     vdW  Elec       q    Type
REMARK                         _______ _______ _______ _____ _____    ______ ____
ROOT
ATOM      1  C   UNL     1      10.414   0.816  23.874  0.00  0.00    +0.299 C 
ATOM      2  N   UNL     1      10.706   2.237  23.662  0.00  0.00    -0.072 NA
ATOM      3  C   UNL     1       9.759   3.103  23.490  0.00  0.00    +0.321 C 
ATOM      4  N   UNL     1      10.210   4.390  23.365  0.00  0.00    -0.246 N 
ATOM      5  H   UNL     1      11.202   4.435  23.166  0.00  0.00    +0.288 HD
ATOM      6  H   UNL     1       9.635   5.014  22.813  0.00  0.00    +0.288 HD
ATOM      7  C   UNL     1       8.349   2.753  23.396  0.00  0.00    +0.144 A 
ATOM      8  S   UNL     1       7.353   3.765  22.408  0.00  0.00    -0.086 S 
ATOM      9  C   UNL     1       5.998   2.755  22.606  0.00  0.00    +0.050 A 
ATOM     10  C   UNL     1       6.261   1.715  23.464  0.00  0.00    +0.054 A 
ATOM     11  C   UNL     1       7.618   1.696  23.901  0.00  0.00    +0.143 A 
ATOM     12  O   UNL     1       8.042   0.669  24.676  0.00  0.00    -0.486 OA
ATOM     13  C   UNL     1       9.416   0.626  25.023  0.00  0.00    +0.286 C 
ENDROOT
BRANCH   1  14
ATOM     14  C   UNL     1      10.085   0.072  22.566  0.00  0.00    +0.286 C 
BRANCH  14  15
ATOM     15  O   UNL     1      10.393  -1.306  22.770  0.00  0.00    -0.487 OA
BRANCH  15  16
ATOM     16  C   UNL     1       9.364  -2.165  23.024  0.00  0.00    +0.121 A 
ATOM     17  C   UNL     1       8.202  -2.302  22.264  0.00  0.00    +0.050 A 
ATOM     18  C   UNL     1       7.272  -3.316  22.565  0.00  0.00    -0.027 A 
ATOM     19  C   UNL     1       7.494  -4.156  23.669  0.00  0.00    -0.042 A 
ATOM     20  C   UNL     1       6.528  -5.272  23.977  0.00  0.00    +0.050 C 
ATOM     21  C   UNL     1       5.164  -5.041  23.322  0.00  0.00    +0.086 C 
ATOM     22  N   UNL     1       5.319  -4.741  21.899  0.00  0.00    -0.312 NA
ATOM     23  H   UNL     1       4.403  -4.673  21.460  0.00  0.00    +0.122 HD
ATOM     24  C   UNL     1       8.658  -4.008  24.432  0.00  0.00    +0.007 A 
ATOM     25  C   UNL     1       6.026  -3.466  21.716  0.00  0.00    +0.116 C 
ATOM     26  C   UNL     1       9.585  -3.020  24.103  0.00  0.00    +0.046 A 
ENDBRANCH  15  16
ENDBRANCH  14  15
ENDBRANCH   1  14
TORSDOF 3
ENDMDL
