MODEL 1
REMARK VINA RESULT:      -4.0      0.000      0.000
REMARK  Name = 
REMARK  7 active torsions:
REMARK  status: ('A' for Active; 'I' for Inactive)
REMARK    1  A    between atoms: C_1  and  C_2
REMARK    2  A    between atoms: C_2  and  CA_4
REMARK    3  A    between atoms: C_2  and  C_10
REMARK    4  A    between atoms: CA_4  and  N_6
REMARK    5  A    between atoms: CA_4  and  C_7
REMARK    6  A    between atoms: C_7  and  O_8
REMARK    7  A    between atoms: C_10  and  O_11
REMARK                            x       y       z     vdW  Elec       q    Type
REMARK                         _______ _______ _______ _____ _____    ______ ____
ROOT
ATOM      1  CA  UNL     1       9.310  -0.489  23.481  0.00  0.00    +0.174 C 
ENDROOT
BRANCH   1   2
ATOM      2  N   UNL     1       7.854  -0.521  23.187  0.00  0.00    -0.318 NA
ATOM      3  H1  UNL     1       7.356  -0.823  24.032  0.00  0.00    +0.119 HD
ATOM      4  H2  UNL     1       7.521   0.433  23.022  0.00  0.00    +0.119 HD
ENDBRANCH   1   2
BRANCH   1   6
ATOM      5  C   UNL     1      10.719   1.550  24.080  0.00  0.00    +0.021 C 
ATOM      6  C   UNL     1      10.074   0.739  22.955  0.00  0.00    +0.122 C 
BRANCH   6   7
ATOM      7  C   UNL     1       9.184   1.640  22.123  0.00  0.00    +0.310 C 
ATOM      8  O   UNL     1       8.694   2.687  22.522  0.00  0.00    -0.251 OA
BRANCH   7   9
ATOM      9  O   UNL     1       8.957   1.190  20.868  0.00  0.00    -0.480 OA
ATOM     10  H   UNL     1       8.653   0.264  20.780  0.00  0.00    +0.295 HD
ENDBRANCH   7   9
ENDBRANCH   6   7
ENDBRANCH   1   6
BRANCH   1  11
ATOM     11  C   UNL     1       9.952  -1.743  22.881  0.00  0.00    +0.323 C 
ATOM     12  OXT UNL     1      10.281  -2.723  23.530  0.00  0.00    -0.249 OA
BRANCH  11  13
ATOM     13  O   UNL     1      10.233  -1.586  21.566  0.00  0.00    -0.480 OA
ATOM     14  H   UNL     1      10.966  -0.923  21.497  0.00  0.00    +0.295 HD
ENDBRANCH  11  13
ENDBRANCH   1  11
TORSDOF 6
ENDMDL
MODEL 2
REMARK VINA RESULT:      -4.0      1.358      1.358
REMARK  Name = 
REMARK  7 active torsions:
REMARK  status: ('A' for Active; 'I' for Inactive)
REMARK    1  A    between atoms: C_1  and  C_2
REMARK    2  A    between atoms: C_2  and  CA_4
REMARK    3  A    between atoms: C_2  and  C_10
REMARK    4  A    between atoms: CA_4  and  N_6
REMARK    5  A    between atoms: CA_4  and  C_7
REMARK    6  A    between atoms: C_7  and  O_8
REMARK    7  A    between atoms: C_10  and  O_11
REMARK                            x       y       z     vdW  Elec       q    Type
REMARK                         _______ _______ _______ _____ _____    ______ ____
ROOT
ATOM      1  CA  UNL     1       8.862  -0.166  23.182  0.00  0.00    +0.174 C 
ENDROOT
BRANCH   1   2
ATOM      2  N   UNL     1       7.696   0.678  22.819  0.00  0.00    -0.318 NA
ATOM      3  H1  UNL     1       7.653   1.473  23.467  0.00  0.00    +0.119 HD
ATOM      4  H2  UNL     1       7.859   1.106  21.902  0.00  0.00    +0.119 HD
ENDBRANCH   1   2
BRANCH   1   6
ATOM      5  C   UNL     1      10.777   0.510  24.725  0.00  0.00    +0.021 C 
ATOM      6  C   UNL     1      10.210   0.568  23.306  0.00  0.00    +0.122 C 
BRANCH   6   7
ATOM      7  C   UNL     1      10.106   2.012  22.857  0.00  0.00    +0.310 C 
ATOM      8  O   UNL     1       9.989   2.964  23.614  0.00  0.00    -0.251 OA
BRANCH   7   9
ATOM      9  O   UNL     1      10.149   2.180  21.516  0.00  0.00    -0.480 OA
ATOM     10  H   UNL     1       9.395   2.653  21.107  0.00  0.00    +0.295 HD
ENDBRANCH   7   9
ENDBRANCH   6   7
ENDBRANCH   1   6
BRANCH   1  11
ATOM     11  C   UNL     1       9.013  -1.263  22.123  0.00  0.00    +0.323 C 
ATOM     12  OXT UNL     1       8.505  -2.370  22.205  0.00  0.00    -0.249 OA
BRANCH  11  13
ATOM     13  O   UNL     1       9.884  -0.909  21.150  0.00  0.00    -0.480 OA
ATOM     14  H   UNL     1      10.798  -1.007  21.520  0.00  0.00    +0.295 HD
ENDBRANCH  11  13
ENDBRANCH   1  11
TORSDOF 6
ENDMDL
MODEL 3
REMARK VINA RESULT:      -4.0      1.527      3.699
REMARK  Name = 
REMARK  7 active torsions:
REMARK  status: ('A' for Active; 'I' for Inactive)
REMARK    1  A    between atoms: C_1  and  C_2
REMARK    2  A    between atoms: C_2  and  CA_4
REMARK    3  A    between atoms: C_2  and  C_10
REMARK    4  A    between atoms: CA_4  and  N_6
REMARK    5  A    between atoms: CA_4  and  C_7
REMARK    6  A    between atoms: C_7  and  O_8
REMARK    7  A    between atoms: C_10  and  O_11
REMARK                            x       y       z     vdW  Elec       q    Type
REMARK                         _______ _______ _______ _____ _____    ______ ____
ROOT
ATOM      1  CA  UNL     1       9.955  -0.045  22.142  0.00  0.00    +0.174 C 
ENDROOT
BRANCH   1   2
ATOM      2  N   UNL     1       9.613  -1.008  21.065  0.00  0.00    -0.318 NA
ATOM      3  H1  UNL     1      10.328  -0.946  20.330  0.00  0.00    +0.119 HD
ATOM      4  H2  UNL     1       9.700  -1.964  21.424  0.00  0.00    +0.119 HD
ENDBRANCH   1   2
BRANCH   1   6
ATOM      5  C   UNL     1      10.485   0.053  24.635  0.00  0.00    +0.021 C 
ATOM      6  C   UNL     1       9.513  -0.441  23.562  0.00  0.00    +0.122 C 
BRANCH   6   7
ATOM      7  C   UNL     1       9.326  -1.939  23.694  0.00  0.00    +0.310 C 
ATOM      8  O   UNL     1      10.242  -2.746  23.766  0.00  0.00    -0.251 OA
BRANCH   7   9
ATOM      9  O   UNL     1       8.034  -2.337  23.723  0.00  0.00    -0.480 OA
ATOM     10  H   UNL     1       7.602  -2.369  24.601  0.00  0.00    +0.295 HD
ENDBRANCH   7   9
ENDBRANCH   6   7
ENDBRANCH   1   6
BRANCH   1  11
ATOM     11  C   UNL     1       9.316   1.305  21.803  0.00  0.00    +0.323 C 
ATOM     12  OXT UNL     1       8.123   1.467  21.598  0.00  0.00    -0.249 OA
BRANCH  11  13
ATOM     13  O   UNL     1      10.245   2.273  21.625  0.00  0.00    -0.480 OA
ATOM     14  H   UNL     1      10.943   2.145  22.316  0.00  0.00    +0.295 HD
ENDBRANCH  11  13
ENDBRANCH   1  11
TORSDOF 6
ENDMDL
MODEL 4
REMARK VINA RESULT:      -3.8      1.771      2.132
REMARK  Name = 
REMARK  7 active torsions:
REMARK  status: ('A' for Active; 'I' for Inactive)
REMARK    1  A    between atoms: C_1  and  C_2
REMARK    2  A    between atoms: C_2  and  CA_4
REMARK    3  A    between atoms: C_2  and  C_10
REMARK    4  A    between atoms: CA_4  and  N_6
REMARK    5  A    between atoms: CA_4  and  C_7
REMARK    6  A    between atoms: C_7  and  O_8
REMARK    7  A    between atoms: C_10  and  O_11
REMARK                            x       y       z     vdW  Elec       q    Type
REMARK                         _______ _______ _______ _____ _____    ______ ____
ROOT
ATOM      1  CA  UNL     1      10.333  -0.279  23.891  0.00  0.00    +0.174 C 
ENDROOT
BRANCH   1   2
ATOM      2  N   UNL     1      10.464   0.329  25.240  0.00  0.00    -0.318 NA
ATOM      3  H1  UNL     1      11.138   1.102  25.187  0.00  0.00    +0.119 HD
ATOM      4  H2  UNL     1       9.580   0.778  25.497  0.00  0.00    +0.119 HD
ENDBRANCH   1   2
BRANCH   1   6
ATOM      5  C   UNL     1       9.515  -0.110  21.481  0.00  0.00    +0.021 C 
ATOM      6  C   UNL     1       9.487   0.513  22.878  0.00  0.00    +0.122 C 
BRANCH   6   7
ATOM      7  C   UNL     1       9.918   1.964  22.798  0.00  0.00    +0.310 C 
ATOM      8  O   UNL     1       9.923   2.736  23.746  0.00  0.00    -0.251 OA
BRANCH   7   9
ATOM      9  O   UNL     1      10.305   2.361  21.564  0.00  0.00    -0.480 OA
ATOM     10  H   UNL     1      11.011   3.038  21.521  0.00  0.00    +0.295 HD
ENDBRANCH   7   9
ENDBRANCH   6   7
ENDBRANCH   1   6
BRANCH   1  11
ATOM     11  C   UNL     1       9.714  -1.671  24.046  0.00  0.00    +0.323 C 
ATOM     12  OXT UNL     1      10.251  -2.705  23.683  0.00  0.00    -0.249 OA
BRANCH  11  13
ATOM     13  O   UNL     1       8.444  -1.609  24.510  0.00  0.00    -0.480 OA
ATOM     14  H   UNL     1       7.842  -1.857  23.762  0.00  0.00    +0.295 HD
ENDBRANCH  11  13
ENDBRANCH   1  11
TORSDOF 6
ENDMDL
MODEL 5
REMARK VINA RESULT:      -3.7      3.979      5.516
REMARK  Name = 
REMARK  7 active torsions:
REMARK  status: ('A' for Active; 'I' for Inactive)
REMARK    1  A    between atoms: C_1  and  C_2
REMARK    2  A    between atoms: C_2  and  CA_4
REMARK    3  A    between atoms: C_2  and  C_10
REMARK    4  A    between atoms: CA_4  and  N_6
REMARK    5  A    between atoms: CA_4  and  C_7
REMARK    6  A    between atoms: C_7  and  O_8
REMARK    7  A    between atoms: C_10  and  O_11
REMARK                            x       y       z     vdW  Elec       q    Type
REMARK                         _______ _______ _______ _____ _____    ______ ____
ROOT
ATOM      1  CA  UNL     1       8.733  -5.249  24.870  0.00  0.00    +0.174 C 
ENDROOT
BRANCH   1   2
ATOM      2  N   UNL     1      10.214  -5.145  24.870  0.00  0.00    -0.318 NA
ATOM      3  H1  UNL     1      10.559  -5.383  25.808  0.00  0.00    +0.119 HD
ATOM      4  H2  UNL     1      10.606  -5.872  24.264  0.00  0.00    +0.119 HD
ENDBRANCH   1   2
BRANCH   1   6
ATOM      5  C   UNL     1       7.529  -4.360  22.805  0.00  0.00    +0.021 C 
ATOM      6  C   UNL     1       7.978  -4.066  24.237  0.00  0.00    +0.122 C 
BRANCH   6   7
ATOM      7  C   UNL     1       8.803  -2.795  24.262  0.00  0.00    +0.310 C 
ATOM      8  O   UNL     1       9.002  -2.121  25.262  0.00  0.00    -0.251 OA
BRANCH   7   9
ATOM      9  O   UNL     1       9.316  -2.442  23.062  0.00  0.00    -0.480 OA
ATOM     10  H   UNL     1       9.079  -3.007  22.298  0.00  0.00    +0.295 HD
ENDBRANCH   7   9
ENDBRANCH   6   7
ENDBRANCH   1   6
BRANCH   1  11
ATOM     11  C   UNL     1       8.258  -5.398  26.318  0.00  0.00    +0.323 C 
ATOM     12  OXT UNL     1       7.204  -5.919  26.644  0.00  0.00    -0.249 OA
BRANCH  11  13
ATOM     13  O   UNL     1       9.081  -4.764  27.187  0.00  0.00    -0.480 OA
ATOM     14  H   UNL     1       9.792  -5.405  27.444  0.00  0.00    +0.295 HD
ENDBRANCH  11  13
ENDBRANCH   1  11
TORSDOF 6
ENDMDL
MODEL 6
REMARK VINA RESULT:      -3.7      5.531      6.459
REMARK  Name = 
REMARK  7 active torsions:
REMARK  status: ('A' for Active; 'I' for Inactive)
REMARK    1  A    between atoms: C_1  and  C_2
REMARK    2  A    between atoms: C_2  and  CA_4
REMARK    3  A    between atoms: C_2  and  C_10
REMARK    4  A    between atoms: CA_4  and  N_6
REMARK    5  A    between atoms: CA_4  and  C_7
REMARK    6  A    between atoms: C_7  and  O_8
REMARK    7  A    between atoms: C_10  and  O_11
REMARK                            x       y       z     vdW  Elec       q    Type
REMARK                         _______ _______ _______ _____ _____    ______ ____
ROOT
ATOM      1  CA  UNL     1       7.157  -4.842  24.629  0.00  0.00    +0.174 C 
ENDROOT
BRANCH   1   2
ATOM      2  N   UNL     1       6.026  -5.631  25.181  0.00  0.00    -0.318 NA
ATOM      3  H1  UNL     1       6.402  -6.336  25.826  0.00  0.00    +0.119 HD
ATOM      4  H2  UNL     1       5.449  -5.027  25.774  0.00  0.00    +0.119 HD
ENDBRANCH   1   2
BRANCH   1   6
ATOM      5  C   UNL     1       7.548  -3.483  22.507  0.00  0.00    +0.021 C 
ATOM      6  C   UNL     1       7.313  -4.874  23.098  0.00  0.00    +0.122 C 
BRANCH   6   7
ATOM      7  C   UNL     1       6.118  -5.518  22.425  0.00  0.00    +0.310 C 
ATOM      8  O   UNL     1       5.092  -4.926  22.124  0.00  0.00    -0.251 OA
BRANCH   7   9
ATOM      9  O   UNL     1       6.266  -6.839  22.176  0.00  0.00    -0.480 OA
ATOM     10  H   UNL     1       7.135  -7.234  22.394  0.00  0.00    +0.295 HD
ENDBRANCH   7   9
ENDBRANCH   6   7
ENDBRANCH   1   6
BRANCH   1  11
ATOM     11  C   UNL     1       8.457  -5.361  25.252  0.00  0.00    +0.323 C 
ATOM     12  OXT UNL     1       9.517  -5.447  24.653  0.00  0.00    -0.249 OA
BRANCH  11  13
ATOM     13  O   UNL     1       8.262  -5.838  26.503  0.00  0.00    -0.480 OA
ATOM     14  H   UNL     1       7.888  -5.099  27.048  0.00  0.00    +0.295 HD
ENDBRANCH  11  13
ENDBRANCH   1  11
TORSDOF 6
ENDMDL
MODEL 7
REMARK VINA RESULT:      -3.6      1.967      3.074
REMARK  Name = 
REMARK  7 active torsions:
REMARK  status: ('A' for Active; 'I' for Inactive)
REMARK    1  A    between atoms: C_1  and  C_2
REMARK    2  A    between atoms: C_2  and  CA_4
REMARK    3  A    between atoms: C_2  and  C_10
REMARK    4  A    between atoms: CA_4  and  N_6
REMARK    5  A    between atoms: CA_4  and  C_7
REMARK    6  A    between atoms: C_7  and  O_8
REMARK    7  A    between atoms: C_10  and  O_11
REMARK                            x       y       z     vdW  Elec       q    Type
REMARK                         _______ _______ _______ _____ _____    ______ ____
ROOT
ATOM      1  CA  UNL     1       9.099   0.379  23.947  0.00  0.00    +0.174 C 
ENDROOT
BRANCH   1   2
ATOM      2  N   UNL     1       8.184  -0.784  24.070  0.00  0.00    -0.318 NA
ATOM      3  H1  UNL     1       8.029  -0.975  25.067  0.00  0.00    +0.119 HD
ATOM      4  H2  UNL     1       7.259  -0.528  23.713  0.00  0.00    +0.119 HD
ENDBRANCH   1   2
BRANCH   1   6
ATOM      5  C   UNL     1       9.340   1.483  21.660  0.00  0.00    +0.021 C 
ATOM      6  C   UNL     1       9.912   0.459  22.642  0.00  0.00    +0.122 C 
BRANCH   6   7
ATOM      7  C   UNL     1      10.020  -0.892  21.965  0.00  0.00    +0.310 C 
ATOM      8  O   UNL     1      10.606  -1.856  22.436  0.00  0.00    -0.251 OA
BRANCH   7   9
ATOM      9  O   UNL     1       9.408  -0.961  20.761  0.00  0.00    -0.480 OA
ATOM     10  H   UNL     1       9.172  -1.854  20.436  0.00  0.00    +0.295 HD
ENDBRANCH   7   9
ENDBRANCH   6   7
ENDBRANCH   1   6
BRANCH   1  11
ATOM     11  C   UNL     1      10.082   0.347  25.120  0.00  0.00    +0.323 C 
ATOM     12  OXT UNL     1      11.276   0.584  25.022  0.00  0.00    -0.249 OA
BRANCH  11  13
ATOM     13  O   UNL     1       9.500  -0.106  26.255  0.00  0.00    -0.480 OA
ATOM     14  H   UNL     1       9.431   0.660  26.880  0.00  0.00    +0.295 HD
ENDBRANCH  11  13
ENDBRANCH   1  11
TORSDOF 6
ENDMDL
MODEL 8
REMARK VINA RESULT:      -3.6      1.718      2.243
REMARK  Name = 
REMARK  7 active torsions:
REMARK  status: ('A' for Active; 'I' for Inactive)
REMARK    1  A    between atoms: C_1  and  C_2
REMARK    2  A    between atoms: C_2  and  CA_4
REMARK    3  A    between atoms: C_2  and  C_10
REMARK    4  A    between atoms: CA_4  and  N_6
REMARK    5  A    between atoms: CA_4  and  C_7
REMARK    6  A    between atoms: C_7  and  O_8
REMARK    7  A    between atoms: C_10  and  O_11
REMARK                            x       y       z     vdW  Elec       q    Type
REMARK                         _______ _______ _______ _____ _____    ______ ____
ROOT
ATOM      1  CA  UNL     1       8.874  -1.483  22.369  0.00  0.00    +0.174 C 
ENDROOT
BRANCH   1   2
ATOM      2  N   UNL     1      10.024  -1.556  21.433  0.00  0.00    -0.318 NA
ATOM      3  H1  UNL     1       9.683  -1.381  20.480  0.00  0.00    +0.119 HD
ATOM      4  H2  UNL     1      10.665  -0.780  21.620  0.00  0.00    +0.119 HD
ENDBRANCH   1   2
BRANCH   1   6
ATOM      5  C   UNL     1       7.094   0.275  22.865  0.00  0.00    +0.021 C 
ATOM      6  C   UNL     1       8.575  -0.092  22.958  0.00  0.00    +0.122 C 
BRANCH   6   7
ATOM      7  C   UNL     1       9.410   0.988  22.299  0.00  0.00    +0.310 C 
ATOM      8  O   UNL     1      10.399   1.501  22.803  0.00  0.00    -0.251 OA
BRANCH   7   9
ATOM      9  O   UNL     1       8.970   1.361  21.076  0.00  0.00    -0.480 OA
ATOM     10  H   UNL     1       8.977   0.676  20.376  0.00  0.00    +0.295 HD
ENDBRANCH   7   9
ENDBRANCH   6   7
ENDBRANCH   1   6
BRANCH   1  11
ATOM     11  C   UNL     1       9.134  -2.447  23.530  0.00  0.00    +0.323 C 
ATOM     12  OXT UNL     1      10.234  -2.887  23.823  0.00  0.00    -0.249 OA
BRANCH  11  13
ATOM     13  O   UNL     1       7.983  -2.858  24.112  0.00  0.00    -0.480 OA
ATOM     14  H   UNL     1       7.512  -2.051  24.441  0.00  0.00    +0.295 HD
ENDBRANCH  11  13
ENDBRANCH   1  11
TORSDOF 6
ENDMDL
MODEL 9
REMARK VINA RESULT:      -3.6      1.711      3.706
REMARK  Name = 
REMARK  7 active torsions:
REMARK  status: ('A' for Active; 'I' for Inactive)
REMARK    1  A    between atoms: C_1  and  C_2
REMARK    2  A    between atoms: C_2  and  CA_4
REMARK    3  A    between atoms: C_2  and  C_10
REMARK    4  A    between atoms: CA_4  and  N_6
REMARK    5  A    between atoms: CA_4  and  C_7
REMARK    6  A    between atoms: C_7  and  O_8
REMARK    7  A    between atoms: C_10  and  O_11
REMARK                            x       y       z     vdW  Elec       q    Type
REMARK                         _______ _______ _______ _____ _____    ______ ____
ROOT
ATOM      1  CA  UNL     1       8.573   0.531  22.417  0.00  0.00    +0.174 C 
ENDROOT
BRANCH   1   2
ATOM      2  N   UNL     1       7.420   0.538  23.353  0.00  0.00    -0.318 NA
ATOM      3  H1  UNL     1       6.844   1.366  23.158  0.00  0.00    +0.119 HD
ATOM      4  H2  UNL     1       6.806  -0.254  23.140  0.00  0.00    +0.119 HD
ENDBRANCH   1   2
BRANCH   1   6
ATOM      5  C   UNL     1      10.236  -1.400  22.321  0.00  0.00    +0.021 C 
ATOM      6  C   UNL     1       9.882  -0.061  22.970  0.00  0.00    +0.122 C 
BRANCH   6   7
ATOM      7  C   UNL     1       9.834  -0.221  24.476  0.00  0.00    +0.310 C 
ATOM      8  O   UNL     1       9.488  -1.242  25.052  0.00  0.00    -0.251 OA
BRANCH   7   9
ATOM      9  O   UNL     1      10.208   0.882  25.164  0.00  0.00    -0.480 OA
ATOM     10  H   UNL     1       9.968   1.747  24.774  0.00  0.00    +0.295 HD
ENDBRANCH   7   9
ENDBRANCH   6   7
ENDBRANCH   1   6
BRANCH   1  11
ATOM     11  C   UNL     1       8.849   1.973  21.980  0.00  0.00    +0.323 C 
ATOM     12  OXT UNL     1       7.992   2.839  21.893  0.00  0.00    -0.249 OA
BRANCH  11  13
ATOM     13  O   UNL     1      10.129   2.142  21.574  0.00  0.00    -0.480 OA
ATOM     14  H   UNL     1      10.594   1.274  21.690  0.00  0.00    +0.295 HD
ENDBRANCH  11  13
ENDBRANCH   1  11
TORSDOF 6
ENDMDL
