MODEL 1
REMARK VINA RESULT:      -6.0      0.000      0.000
REMARK  Name = 
REMARK  5 active torsions:
REMARK  status: ('A' for Active; 'I' for Inactive)
REMARK    1  A    between atoms: C_2  and  O_3
REMARK    2  A    between atoms: C_2  and  C_4
REMARK    3  A    between atoms: C_2  and  C_14
REMARK    4  A    between atoms: C_4  and  C_5
REMARK    5  A    between atoms: C_14  and  O_15
REMARK                            x       y       z     vdW  Elec       q    Type
REMARK                         _______ _______ _______ _____ _____    ______ ____
ROOT
ATOM      1  C   UNL     1       9.736  -1.724  23.119  0.00  0.00    -0.019 A 
ATOM      2  C   UNL     1      10.037  -0.328  23.288  0.00  0.00    +0.003 A 
ATOM      3  C   UNL     1      10.504   0.454  24.367  0.00  0.00    +0.010 A 
ATOM      4  C   UNL     1      10.699   1.829  24.192  0.00  0.00    +0.001 A 
ATOM      5  C   UNL     1      10.438   2.433  22.966  0.00  0.00    +0.002 A 
ATOM      6  C   UNL     1       9.971   1.685  21.882  0.00  0.00    +0.026 A 
ATOM      7  C   UNL     1       9.780   0.311  22.073  0.00  0.00    +0.047 A 
ATOM      8  N   UNL     1       9.335  -0.649  21.200  0.00  0.00    -0.360 N 
ATOM      9  H   UNL     1       9.069  -0.469  20.242  0.00  0.00    +0.165 HD
ATOM     10  C   UNL     1       9.296  -1.870  21.816  0.00  0.00    +0.087 A 
ENDROOT
BRANCH   1  11
ATOM     11  C   UNL     1       9.851  -2.781  24.183  0.00  0.00    +0.080 C 
BRANCH  11  12
ATOM     12  C   UNL     1       8.755  -3.852  24.150  0.00  0.00    +0.227 C 
BRANCH  12  13
ATOM     13  O   UNL     1       7.457  -3.341  24.535  0.00  0.00    -0.380 OA
ATOM     14  H   UNL     1       6.946  -3.216  23.712  0.00  0.00    +0.211 HD
ENDBRANCH  12  13
BRANCH  12  15
ATOM     15  C   UNL     1       9.076  -4.971  25.143  0.00  0.00    +0.334 C 
ATOM     16  O   UNL     1       8.292  -5.483  25.925  0.00  0.00    -0.248 OA
BRANCH  15  17
ATOM     17  O   UNL     1      10.384  -5.336  25.063  0.00  0.00    -0.479 OA
ATOM     18  H   UNL     1      10.929  -4.537  25.264  0.00  0.00    +0.295 HD
ENDBRANCH  15  17
ENDBRANCH  12  15
ENDBRANCH  11  12
ENDBRANCH   1  11
TORSDOF 5
ENDMDL
MODEL 2
REMARK VINA RESULT:      -5.7      1.678      2.593
REMARK  Name = 
REMARK  5 active torsions:
REMARK  status: ('A' for Active; 'I' for Inactive)
REMARK    1  A    between atoms: C_2  and  O_3
REMARK    2  A    between atoms: C_2  and  C_4
REMARK    3  A    between atoms: C_2  and  C_14
REMARK    4  A    between atoms: C_4  and  C_5
REMARK    5  A    between atoms: C_14  and  O_15
REMARK                            x       y       z     vdW  Elec       q    Type
REMARK                         _______ _______ _______ _____ _____    ______ ____
ROOT
ATOM      1  C   UNL     1       9.020  -1.927  24.792  0.00  0.00    -0.019 A 
ATOM      2  C   UNL     1       9.352  -0.881  23.862  0.00  0.00    +0.003 A 
ATOM      3  C   UNL     1       9.567  -0.838  22.467  0.00  0.00    +0.010 A 
ATOM      4  C   UNL     1       9.882   0.381  21.853  0.00  0.00    +0.001 A 
ATOM      5  C   UNL     1       9.986   1.548  22.604  0.00  0.00    +0.002 A 
ATOM      6  C   UNL     1       9.784   1.533  23.986  0.00  0.00    +0.026 A 
ATOM      7  C   UNL     1       9.470   0.307  24.586  0.00  0.00    +0.047 A 
ATOM      8  N   UNL     1       9.227   0.004  25.901  0.00  0.00    -0.360 N 
ATOM      9  H   UNL     1       9.248   0.676  26.655  0.00  0.00    +0.165 HD
ATOM     10  C   UNL     1       8.965  -1.332  26.038  0.00  0.00    +0.087 A 
ENDROOT
BRANCH   1  11
ATOM     11  C   UNL     1       8.819  -3.378  24.446  0.00  0.00    +0.080 C 
BRANCH  11  12
ATOM     12  C   UNL     1       9.228  -4.366  25.544  0.00  0.00    +0.227 C 
BRANCH  12  13
ATOM     13  O   UNL     1      10.212  -5.327  25.097  0.00  0.00    -0.380 OA
ATOM     14  H   UNL     1      10.576  -5.754  25.897  0.00  0.00    +0.211 HD
ENDBRANCH  12  13
BRANCH  12  15
ATOM     15  C   UNL     1       8.018  -5.185  25.998  0.00  0.00    +0.334 C 
ATOM     16  O   UNL     1       6.990  -5.358  25.363  0.00  0.00    -0.248 OA
BRANCH  15  17
ATOM     17  O   UNL     1       8.218  -5.707  27.238  0.00  0.00    -0.479 OA
ATOM     18  H   UNL     1       7.814  -5.085  27.891  0.00  0.00    +0.295 HD
ENDBRANCH  15  17
ENDBRANCH  12  15
ENDBRANCH  11  12
ENDBRANCH   1  11
TORSDOF 5
ENDMDL
MODEL 3
REMARK VINA RESULT:      -5.6      1.739      2.483
REMARK  Name = 
REMARK  5 active torsions:
REMARK  status: ('A' for Active; 'I' for Inactive)
REMARK    1  A    between atoms: C_2  and  O_3
REMARK    2  A    between atoms: C_2  and  C_4
REMARK    3  A    between atoms: C_2  and  C_14
REMARK    4  A    between atoms: C_4  and  C_5
REMARK    5  A    between atoms: C_14  and  O_15
REMARK                            x       y       z     vdW  Elec       q    Type
REMARK                         _______ _______ _______ _____ _____    ______ ____
ROOT
ATOM      1  C   UNL     1       9.512  -1.298  24.488  0.00  0.00    -0.019 A 
ATOM      2  C   UNL     1       9.652  -0.046  23.795  0.00  0.00    +0.003 A 
ATOM      3  C   UNL     1      10.048   0.317  22.490  0.00  0.00    +0.010 A 
ATOM      4  C   UNL     1      10.074   1.668  22.124  0.00  0.00    +0.001 A 
ATOM      5  C   UNL     1       9.713   2.657  23.035  0.00  0.00    +0.002 A 
ATOM      6  C   UNL     1       9.322   2.328  24.335  0.00  0.00    +0.026 A 
ATOM      7  C   UNL     1       9.302   0.972  24.685  0.00  0.00    +0.047 A 
ATOM      8  N   UNL     1       8.968   0.372  25.872  0.00  0.00    -0.360 N 
ATOM      9  H   UNL     1       8.676   0.870  26.701  0.00  0.00    +0.165 HD
ATOM     10  C   UNL     1       9.098  -0.986  25.770  0.00  0.00    +0.087 A 
ENDROOT
BRANCH   1  11
ATOM     11  C   UNL     1       9.806  -2.657  23.913  0.00  0.00    +0.080 C 
BRANCH  11  12
ATOM     12  C   UNL     1       9.336  -3.837  24.771  0.00  0.00    +0.227 C 
BRANCH  12  13
ATOM     13  O   UNL     1      10.289  -4.925  24.800  0.00  0.00    -0.380 OA
ATOM     14  H   UNL     1      10.419  -5.214  23.875  0.00  0.00    +0.211 HD
ENDBRANCH  12  13
BRANCH  12  15
ATOM     15  C   UNL     1       8.043  -4.425  24.202  0.00  0.00    +0.334 C 
ATOM     16  O   UNL     1       6.916  -4.007  24.404  0.00  0.00    -0.248 OA
BRANCH  15  17
ATOM     17  O   UNL     1       8.300  -5.515  23.430  0.00  0.00    -0.479 OA
ATOM     18  H   UNL     1       8.359  -5.208  22.492  0.00  0.00    +0.295 HD
ENDBRANCH  15  17
ENDBRANCH  12  15
ENDBRANCH  11  12
ENDBRANCH   1  11
TORSDOF 5
ENDMDL
MODEL 4
REMARK VINA RESULT:      -5.6      1.977      2.703
REMARK  Name = 
REMARK  5 active torsions:
REMARK  status: ('A' for Active; 'I' for Inactive)
REMARK    1  A    between atoms: C_2  and  O_3
REMARK    2  A    between atoms: C_2  and  C_4
REMARK    3  A    between atoms: C_2  and  C_14
REMARK    4  A    between atoms: C_4  and  C_5
REMARK    5  A    between atoms: C_14  and  O_15
REMARK                            x       y       z     vdW  Elec       q    Type
REMARK                         _______ _______ _______ _____ _____    ______ ____
ROOT
ATOM      1  C   UNL     1       7.647  -2.760  23.646  0.00  0.00    -0.019 A 
ATOM      2  C   UNL     1       8.268  -1.666  22.951  0.00  0.00    +0.003 A 
ATOM      3  C   UNL     1       9.516  -1.487  22.314  0.00  0.00    +0.010 A 
ATOM      4  C   UNL     1       9.816  -0.258  21.713  0.00  0.00    +0.001 A 
ATOM      5  C   UNL     1       8.897   0.787  21.738  0.00  0.00    +0.002 A 
ATOM      6  C   UNL     1       7.658   0.640  22.366  0.00  0.00    +0.026 A 
ATOM      7  C   UNL     1       7.373  -0.595  22.962  0.00  0.00    +0.047 A 
ATOM      8  N   UNL     1       6.255  -1.011  23.639  0.00  0.00    -0.360 N 
ATOM      9  H   UNL     1       5.441  -0.436  23.804  0.00  0.00    +0.165 HD
ATOM     10  C   UNL     1       6.410  -2.303  24.061  0.00  0.00    +0.087 A 
ENDROOT
BRANCH   1  11
ATOM     11  C   UNL     1       8.267  -4.110  23.889  0.00  0.00    +0.080 C 
BRANCH  11  12
ATOM     12  C   UNL     1       9.199  -4.184  25.103  0.00  0.00    +0.227 C 
BRANCH  12  13
ATOM     13  O   UNL     1      10.270  -5.142  24.934  0.00  0.00    -0.380 OA
ATOM     14  H   UNL     1      10.337  -5.326  23.977  0.00  0.00    +0.211 HD
ENDBRANCH  12  13
BRANCH  12  15
ATOM     15  C   UNL     1       8.423  -4.637  26.342  0.00  0.00    +0.334 C 
ATOM     16  O   UNL     1       7.776  -3.918  27.085  0.00  0.00    -0.248 OA
BRANCH  15  17
ATOM     17  O   UNL     1       8.551  -5.977  26.536  0.00  0.00    -0.479 OA
ATOM     18  H   UNL     1       9.375  -6.267  26.074  0.00  0.00    +0.295 HD
ENDBRANCH  15  17
ENDBRANCH  12  15
ENDBRANCH  11  12
ENDBRANCH   1  11
TORSDOF 5
ENDMDL
MODEL 5
REMARK VINA RESULT:      -5.5      3.331      5.907
REMARK  Name = 
REMARK  5 active torsions:
REMARK  status: ('A' for Active; 'I' for Inactive)
REMARK    1  A    between atoms: C_2  and  O_3
REMARK    2  A    between atoms: C_2  and  C_4
REMARK    3  A    between atoms: C_2  and  C_14
REMARK    4  A    between atoms: C_4  and  C_5
REMARK    5  A    between atoms: C_14  and  O_15
REMARK                            x       y       z     vdW  Elec       q    Type
REMARK                         _______ _______ _______ _____ _____    ______ ____
ROOT
ATOM      1  C   UNL     1       8.340  -1.697  23.320  0.00  0.00    -0.019 A 
ATOM      2  C   UNL     1       7.649  -2.893  22.920  0.00  0.00    +0.003 A 
ATOM      3  C   UNL     1       6.597  -3.166  22.018  0.00  0.00    +0.010 A 
ATOM      4  C   UNL     1       6.149  -4.483  21.857  0.00  0.00    +0.001 A 
ATOM      5  C   UNL     1       6.728  -5.523  22.577  0.00  0.00    +0.002 A 
ATOM      6  C   UNL     1       7.767  -5.281  23.479  0.00  0.00    +0.026 A 
ATOM      7  C   UNL     1       8.204  -3.959  23.630  0.00  0.00    +0.047 A 
ATOM      8  N   UNL     1       9.187  -3.440  24.433  0.00  0.00    -0.360 N 
ATOM      9  H   UNL     1       9.757  -3.987  25.063  0.00  0.00    +0.165 HD
ATOM     10  C   UNL     1       9.273  -2.085  24.263  0.00  0.00    +0.087 A 
ENDROOT
BRANCH   1  11
ATOM     11  C   UNL     1       8.051  -0.307  22.818  0.00  0.00    +0.080 C 
BRANCH  11  12
ATOM     12  C   UNL     1       9.019   0.207  21.747  0.00  0.00    +0.227 C 
BRANCH  12  13
ATOM     13  O   UNL     1       9.830  -0.843  21.171  0.00  0.00    -0.380 OA
ATOM     14  H   UNL     1       9.694  -1.641  21.719  0.00  0.00    +0.211 HD
ENDBRANCH  12  13
BRANCH  12  15
ATOM     15  C   UNL     1      10.002   1.209  22.357  0.00  0.00    +0.334 C 
ATOM     16  O   UNL     1      10.540   1.112  23.448  0.00  0.00    -0.248 OA
BRANCH  15  17
ATOM     17  O   UNL     1      10.206   2.263  21.523  0.00  0.00    -0.479 OA
ATOM     18  H   UNL     1      11.182   2.367  21.407  0.00  0.00    +0.295 HD
ENDBRANCH  15  17
ENDBRANCH  12  15
ENDBRANCH  11  12
ENDBRANCH   1  11
TORSDOF 5
ENDMDL
MODEL 6
REMARK VINA RESULT:      -5.5      1.443      2.096
REMARK  Name = 
REMARK  5 active torsions:
REMARK  status: ('A' for Active; 'I' for Inactive)
REMARK    1  A    between atoms: C_2  and  O_3
REMARK    2  A    between atoms: C_2  and  C_4
REMARK    3  A    between atoms: C_2  and  C_14
REMARK    4  A    between atoms: C_4  and  C_5
REMARK    5  A    between atoms: C_14  and  O_15
REMARK                            x       y       z     vdW  Elec       q    Type
REMARK                         _______ _______ _______ _____ _____    ______ ____
ROOT
ATOM      1  C   UNL     1       7.971  -2.801  23.949  0.00  0.00    -0.019 A 
ATOM      2  C   UNL     1       8.824  -1.657  24.124  0.00  0.00    +0.003 A 
ATOM      3  C   UNL     1       9.314  -0.958  25.249  0.00  0.00    +0.010 A 
ATOM      4  C   UNL     1      10.152   0.149  25.066  0.00  0.00    +0.001 A 
ATOM      5  C   UNL     1      10.506   0.566  23.786  0.00  0.00    +0.002 A 
ATOM      6  C   UNL     1      10.032  -0.102  22.655  0.00  0.00    +0.026 A 
ATOM      7  C   UNL     1       9.194  -1.207  22.855  0.00  0.00    +0.047 A 
ATOM      8  N   UNL     1       8.591  -2.034  21.943  0.00  0.00    -0.360 N 
ATOM      9  H   UNL     1       8.682  -1.941  20.941  0.00  0.00    +0.165 HD
ATOM     10  C   UNL     1       7.849  -2.988  22.585  0.00  0.00    +0.087 A 
ENDROOT
BRANCH   1  11
ATOM     11  C   UNL     1       7.324  -3.590  25.055  0.00  0.00    +0.080 C 
BRANCH  11  12
ATOM     12  C   UNL     1       7.880  -5.006  25.248  0.00  0.00    +0.227 C 
BRANCH  12  13
ATOM     13  O   UNL     1       7.180  -5.750  26.271  0.00  0.00    -0.380 OA
ATOM     14  H   UNL     1       7.172  -6.685  25.988  0.00  0.00    +0.211 HD
ENDBRANCH  12  13
BRANCH  12  15
ATOM     15  C   UNL     1       9.341  -4.946  25.697  0.00  0.00    +0.334 C 
ATOM     16  O   UNL     1      10.318  -5.009  24.969  0.00  0.00    -0.248 OA
BRANCH  15  17
ATOM     17  O   UNL     1       9.432  -4.824  27.049  0.00  0.00    -0.479 OA
ATOM     18  H   UNL     1       9.785  -3.922  27.243  0.00  0.00    +0.295 HD
ENDBRANCH  15  17
ENDBRANCH  12  15
ENDBRANCH  11  12
ENDBRANCH   1  11
TORSDOF 5
ENDMDL
MODEL 7
REMARK VINA RESULT:      -5.3      3.295      5.772
REMARK  Name = 
REMARK  5 active torsions:
REMARK  status: ('A' for Active; 'I' for Inactive)
REMARK    1  A    between atoms: C_2  and  O_3
REMARK    2  A    between atoms: C_2  and  C_4
REMARK    3  A    between atoms: C_2  and  C_14
REMARK    4  A    between atoms: C_4  and  C_5
REMARK    5  A    between atoms: C_14  and  O_15
REMARK                            x       y       z     vdW  Elec       q    Type
REMARK                         _______ _______ _______ _____ _____    ______ ____
ROOT
ATOM      1  C   UNL     1       9.458  -0.817  24.527  0.00  0.00    -0.019 A 
ATOM      2  C   UNL     1       9.015  -2.175  24.688  0.00  0.00    +0.003 A 
ATOM      3  C   UNL     1       8.982  -3.305  23.842  0.00  0.00    +0.010 A 
ATOM      4  C   UNL     1       8.472  -4.516  24.325  0.00  0.00    +0.001 A 
ATOM      5  C   UNL     1       7.998  -4.617  25.629  0.00  0.00    +0.002 A 
ATOM      6  C   UNL     1       8.014  -3.514  26.487  0.00  0.00    +0.026 A 
ATOM      7  C   UNL     1       8.526  -2.310  25.989  0.00  0.00    +0.047 A 
ATOM      8  N   UNL     1       8.658  -1.088  26.597  0.00  0.00    -0.360 N 
ATOM      9  H   UNL     1       8.380  -0.891  27.548  0.00  0.00    +0.165 HD
ATOM     10  C   UNL     1       9.207  -0.183  25.730  0.00  0.00    +0.087 A 
ENDROOT
BRANCH   1  11
ATOM     11  C   UNL     1      10.039  -0.226  23.271  0.00  0.00    +0.080 C 
BRANCH  11  12
ATOM     12  C   UNL     1       9.060  -0.113  22.097  0.00  0.00    +0.227 C 
BRANCH  12  13
ATOM     13  O   UNL     1       9.508  -0.826  20.921  0.00  0.00    -0.380 OA
ATOM     14  H   UNL     1       8.870  -1.551  20.768  0.00  0.00    +0.211 HD
ENDBRANCH  12  13
BRANCH  12  15
ATOM     15  C   UNL     1       8.910   1.348  21.670  0.00  0.00    +0.334 C 
ATOM     16  O   UNL     1       7.860   1.921  21.430  0.00  0.00    -0.248 OA
BRANCH  15  17
ATOM     17  O   UNL     1      10.123   1.956  21.570  0.00  0.00    -0.479 OA
ATOM     18  H   UNL     1      10.381   1.951  20.617  0.00  0.00    +0.295 HD
ENDBRANCH  15  17
ENDBRANCH  12  15
ENDBRANCH  11  12
ENDBRANCH   1  11
TORSDOF 5
ENDMDL
MODEL 8
REMARK VINA RESULT:      -5.3      2.786      4.013
REMARK  Name = 
REMARK  5 active torsions:
REMARK  status: ('A' for Active; 'I' for Inactive)
REMARK    1  A    between atoms: C_2  and  O_3
REMARK    2  A    between atoms: C_2  and  C_4
REMARK    3  A    between atoms: C_2  and  C_14
REMARK    4  A    between atoms: C_4  and  C_5
REMARK    5  A    between atoms: C_14  and  O_15
REMARK                            x       y       z     vdW  Elec       q    Type
REMARK                         _______ _______ _______ _____ _____    ______ ____
ROOT
ATOM      1  C   UNL     1       9.655   1.901  23.882  0.00  0.00    -0.019 A 
ATOM      2  C   UNL     1      10.262   3.199  23.764  0.00  0.00    +0.003 A 
ATOM      3  C   UNL     1      11.541   3.655  23.377  0.00  0.00    +0.010 A 
ATOM      4  C   UNL     1      11.814   5.028  23.371  0.00  0.00    +0.001 A 
ATOM      5  C   UNL     1      10.838   5.947  23.745  0.00  0.00    +0.002 A 
ATOM      6  C   UNL     1       9.566   5.524  24.138  0.00  0.00    +0.026 A 
ATOM      7  C   UNL     1       9.309   4.148  24.139  0.00  0.00    +0.047 A 
ATOM      8  N   UNL     1       8.170   3.463  24.475  0.00  0.00    -0.360 N 
ATOM      9  H   UNL     1       7.313   3.898  24.789  0.00  0.00    +0.165 HD
ATOM     10  C   UNL     1       8.367   2.116  24.333  0.00  0.00    +0.087 A 
ENDROOT
BRANCH   1  11
ATOM     11  C   UNL     1      10.331   0.587  23.597  0.00  0.00    +0.080 C 
BRANCH  11  12
ATOM     12  C   UNL     1       9.474  -0.653  23.872  0.00  0.00    +0.227 C 
BRANCH  12  13
ATOM     13  O   UNL     1       9.398  -0.984  25.278  0.00  0.00    -0.380 OA
ATOM     14  H   UNL     1       8.501  -0.740  25.579  0.00  0.00    +0.211 HD
ENDBRANCH  12  13
BRANCH  12  15
ATOM     15  C   UNL     1      10.079  -1.880  23.185  0.00  0.00    +0.334 C 
ATOM     16  O   UNL     1      10.298  -2.960  23.709  0.00  0.00    -0.248 OA
BRANCH  15  17
ATOM     17  O   UNL     1      10.367  -1.618  21.882  0.00  0.00    -0.479 OA
ATOM     18  H   UNL     1      10.018  -2.369  21.343  0.00  0.00    +0.295 HD
ENDBRANCH  15  17
ENDBRANCH  12  15
ENDBRANCH  11  12
ENDBRANCH   1  11
TORSDOF 5
ENDMDL
MODEL 9
REMARK VINA RESULT:      -5.2      2.051      3.168
REMARK  Name = 
REMARK  5 active torsions:
REMARK  status: ('A' for Active; 'I' for Inactive)
REMARK    1  A    between atoms: C_2  and  O_3
REMARK    2  A    between atoms: C_2  and  C_4
REMARK    3  A    between atoms: C_2  and  C_14
REMARK    4  A    between atoms: C_4  and  C_5
REMARK    5  A    between atoms: C_14  and  O_15
REMARK                            x       y       z     vdW  Elec       q    Type
REMARK                         _______ _______ _______ _____ _____    ______ ____
ROOT
ATOM      1  C   UNL     1       7.871  -2.585  25.354  0.00  0.00    -0.019 A 
ATOM      2  C   UNL     1       8.573  -2.012  24.237  0.00  0.00    +0.003 A 
ATOM      3  C   UNL     1       8.660  -2.328  22.863  0.00  0.00    +0.010 A 
ATOM      4  C   UNL     1       9.457  -1.542  22.022  0.00  0.00    +0.001 A 
ATOM      5  C   UNL     1      10.164  -0.454  22.526  0.00  0.00    +0.002 A 
ATOM      6  C   UNL     1      10.100  -0.122  23.881  0.00  0.00    +0.026 A 
ATOM      7  C   UNL     1       9.300  -0.918  24.710  0.00  0.00    +0.047 A 
ATOM      8  N   UNL     1       9.059  -0.826  26.057  0.00  0.00    -0.360 N 
ATOM      9  H   UNL     1       9.460  -0.123  26.662  0.00  0.00    +0.165 HD
ATOM     10  C   UNL     1       8.212  -1.823  26.456  0.00  0.00    +0.087 A 
ENDROOT
BRANCH   1  11
ATOM     11  C   UNL     1       6.981  -3.797  25.302  0.00  0.00    +0.080 C 
BRANCH  11  12
ATOM     12  C   UNL     1       7.565  -5.055  25.953  0.00  0.00    +0.227 C 
BRANCH  12  13
ATOM     13  O   UNL     1       7.671  -4.948  27.391  0.00  0.00    -0.380 OA
ATOM     14  H   UNL     1       7.389  -5.807  27.762  0.00  0.00    +0.211 HD
ENDBRANCH  12  13
BRANCH  12  15
ATOM     15  C   UNL     1       8.987  -5.304  25.445  0.00  0.00    +0.334 C 
ATOM     16  O   UNL     1       9.299  -5.607  24.305  0.00  0.00    -0.248 OA
BRANCH  15  17
ATOM     17  O   UNL     1       9.897  -5.156  26.446  0.00  0.00    -0.479 OA
ATOM     18  H   UNL     1      10.413  -4.334  26.260  0.00  0.00    +0.295 HD
ENDBRANCH  15  17
ENDBRANCH  12  15
ENDBRANCH  11  12
ENDBRANCH   1  11
TORSDOF 5
ENDMDL
