MODEL 1
REMARK VINA RESULT:      -7.0      0.000      0.000
REMARK  Name = 
REMARK  9 active torsions:
REMARK  status: ('A' for Active; 'I' for Inactive)
REMARK    1  A    between atoms: O_1  and  C_2
REMARK    2  A    between atoms: C_2  and  C_4
REMARK    3  A    between atoms: C_4  and  C_5
REMARK    4  A    between atoms: C_5  and  C_6
REMARK    5  A    between atoms: C_6  and  N_7
REMARK    6  A    between atoms: C_10  and  O_13
REMARK    7  A    between atoms: O_13  and  C_14
REMARK    8  A    between atoms: C_14  and  C_15
REMARK    9  A    between atoms: C_14  and  C_22
REMARK                            x       y       z     vdW  Elec       q    Type
REMARK                         _______ _______ _______ _____ _____    ______ ____
ROOT
ATOM      1  O   UNL     1       8.453  -2.168  23.882  0.00  0.00    -0.363 OA
ENDROOT
BRANCH   1   5
ATOM      2  N   UNL     1       9.352   1.298  22.914  0.00  0.00    -0.302 NA
ATOM      3  C   UNL     1       8.784   0.794  24.181  0.00  0.00    +0.087 C 
ATOM      4  C   UNL     1       9.607  -0.350  24.799  0.00  0.00    +0.047 C 
ATOM      5  C   UNL     1       9.729  -1.530  23.828  0.00  0.00    +0.122 C 
ATOM      6  C   UNL     1      10.199  -1.028  22.450  0.00  0.00    +0.047 C 
ATOM      7  C   UNL     1       9.414   0.188  21.949  0.00  0.00    +0.087 C 
BRANCH   2   8
ATOM      8  C   UNL     1      10.624   1.994  23.154  0.00  0.00    +0.085 C 
BRANCH   8   9
ATOM      9  C   UNL     1      10.498   3.465  23.567  0.00  0.00    +0.026 C 
BRANCH   9  10
ATOM     10  C   UNL     1      11.817   4.188  23.299  0.00  0.00    +0.121 C 
BRANCH  10  11
ATOM     11  C   UNL     1      11.753   5.611  23.784  0.00  0.00    +0.305 C 
ATOM     12  O   UNL     1      10.737   6.288  23.776  0.00  0.00    -0.251 OA
BRANCH  11  13
ATOM     13  O   UNL     1      12.932   6.063  24.267  0.00  0.00    -0.481 OA
ATOM     14  H   UNL     1      13.000   7.036  24.304  0.00  0.00    +0.295 HD
ENDBRANCH  11  13
ENDBRANCH  10  11
ENDBRANCH   9  10
ENDBRANCH   8   9
ENDBRANCH   2   8
ENDBRANCH   1   5
BRANCH   1  15
ATOM     15  C   UNL     1       8.387  -3.551  24.223  0.00  0.00    +0.197 C 
BRANCH  15  16
ATOM     16  C   UNL     1       7.743  -3.853  25.581  0.00  0.00    -0.013 A 
ATOM     17  C   UNL     1       8.108  -5.022  26.273  0.00  0.00    +0.008 A 
ATOM     18  C   UNL     1       7.356  -5.471  27.364  0.00  0.00    +0.020 A 
ATOM     19  C   UNL     1       6.231  -4.759  27.771  0.00  0.00    +0.041 A 
ATOM     20 CL   UNL     1       5.217  -5.390  29.009  0.00  0.00    -0.084 Cl
ATOM     21  C   UNL     1       5.908  -3.553  27.159  0.00  0.00    +0.020 A 
ATOM     22  C   UNL     1       6.681  -3.086  26.092  0.00  0.00    +0.008 A 
ENDBRANCH  15  16
BRANCH  15  23
ATOM     23  C   UNL     1       7.636  -4.255  23.080  0.00  0.00    +0.074 A 
ATOM     24  N   UNL     1       7.902  -5.571  22.867  0.00  0.00    -0.257 NA
ATOM     25  C   UNL     1       7.205  -6.195  21.888  0.00  0.00    +0.111 A 
ATOM     26  C   UNL     1       6.223  -5.588  21.123  0.00  0.00    +0.020 A 
ATOM     27  C   UNL     1       5.967  -4.243  21.338  0.00  0.00    +0.003 A 
ATOM     28  C   UNL     1       6.701  -3.562  22.302  0.00  0.00    +0.026 A 
ENDBRANCH  15  23
ENDBRANCH   1  15
TORSDOF 9
ENDMDL
MODEL 2
REMARK VINA RESULT:      -6.7      2.170      2.636
REMARK  Name = 
REMARK  9 active torsions:
REMARK  status: ('A' for Active; 'I' for Inactive)
REMARK    1  A    between atoms: O_1  and  C_2
REMARK    2  A    between atoms: C_2  and  C_4
REMARK    3  A    between atoms: C_4  and  C_5
REMARK    4  A    between atoms: C_5  and  C_6
REMARK    5  A    between atoms: C_6  and  N_7
REMARK    6  A    between atoms: C_10  and  O_13
REMARK    7  A    between atoms: O_13  and  C_14
REMARK    8  A    between atoms: C_14  and  C_15
REMARK    9  A    between atoms: C_14  and  C_22
REMARK                            x       y       z     vdW  Elec       q    Type
REMARK                         _______ _______ _______ _____ _____    ______ ____
ROOT
ATOM      1  O   UNL     1       7.679  -3.145  25.296  0.00  0.00    -0.363 OA
ENDROOT
BRANCH   1   5
ATOM      2  N   UNL     1       8.859   0.153  24.078  0.00  0.00    -0.302 NA
ATOM      3  C   UNL     1       8.004  -0.169  25.238  0.00  0.00    +0.087 C 
ATOM      4  C   UNL     1       8.635  -1.203  26.185  0.00  0.00    +0.047 C 
ATOM      5  C   UNL     1       8.949  -2.509  25.447  0.00  0.00    +0.122 C 
ATOM      6  C   UNL     1       9.734  -2.207  24.158  0.00  0.00    +0.047 C 
ATOM      7  C   UNL     1       9.114  -1.083  23.322  0.00  0.00    +0.087 C 
BRANCH   2   8
ATOM      8  C   UNL     1      10.058   0.889  24.503  0.00  0.00    +0.085 C 
BRANCH   8   9
ATOM      9  C   UNL     1      10.384   2.142  23.684  0.00  0.00    +0.026 C 
BRANCH   9  10
ATOM     10  C   UNL     1       9.167   3.065  23.650  0.00  0.00    +0.121 C 
BRANCH  10  11
ATOM     11  C   UNL     1       8.445   2.948  22.335  0.00  0.00    +0.305 C 
ATOM     12  O   UNL     1       7.408   3.537  22.072  0.00  0.00    -0.251 OA
BRANCH  11  13
ATOM     13  O   UNL     1       9.079   2.148  21.448  0.00  0.00    -0.481 OA
ATOM     14  H   UNL     1       8.643   2.098  20.576  0.00  0.00    +0.295 HD
ENDBRANCH  11  13
ENDBRANCH  10  11
ENDBRANCH   9  10
ENDBRANCH   8   9
ENDBRANCH   2   8
ENDBRANCH   1   5
BRANCH   1  15
ATOM     15  C   UNL     1       7.637  -4.541  25.004  0.00  0.00    +0.197 C 
BRANCH  15  16
ATOM     16  C   UNL     1       6.844  -5.388  26.006  0.00  0.00    -0.013 A 
ATOM     17  C   UNL     1       5.661  -6.022  25.589  0.00  0.00    +0.008 A 
ATOM     18  C   UNL     1       4.774  -6.567  26.523  0.00  0.00    +0.020 A 
ATOM     19  C   UNL     1       5.058  -6.479  27.883  0.00  0.00    +0.041 A 
ATOM     20 CL   UNL     1       3.898  -7.006  29.039  0.00  0.00    -0.084 Cl
ATOM     21  C   UNL     1       6.266  -5.937  28.311  0.00  0.00    +0.020 A 
ATOM     22  C   UNL     1       7.168  -5.426  27.374  0.00  0.00    +0.008 A 
ENDBRANCH  15  16
BRANCH  15  23
ATOM     23  C   UNL     1       7.068  -4.680  23.582  0.00  0.00    +0.074 A 
ATOM     24  N   UNL     1       6.230  -3.706  23.140  0.00  0.00    -0.257 NA
ATOM     25  C   UNL     1       5.767  -3.812  21.872  0.00  0.00    +0.111 A 
ATOM     26  C   UNL     1       6.123  -4.825  20.996  0.00  0.00    +0.020 A 
ATOM     27  C   UNL     1       6.969  -5.820  21.458  0.00  0.00    +0.003 A 
ATOM     28  C   UNL     1       7.420  -5.766  22.772  0.00  0.00    +0.026 A 
ENDBRANCH  15  23
ENDBRANCH   1  15
TORSDOF 9
ENDMDL
MODEL 3
REMARK VINA RESULT:      -6.5      3.996      8.759
REMARK  Name = 
REMARK  9 active torsions:
REMARK  status: ('A' for Active; 'I' for Inactive)
REMARK    1  A    between atoms: O_1  and  C_2
REMARK    2  A    between atoms: C_2  and  C_4
REMARK    3  A    between atoms: C_4  and  C_5
REMARK    4  A    between atoms: C_5  and  C_6
REMARK    5  A    between atoms: C_6  and  N_7
REMARK    6  A    between atoms: C_10  and  O_13
REMARK    7  A    between atoms: O_13  and  C_14
REMARK    8  A    between atoms: C_14  and  C_15
REMARK    9  A    between atoms: C_14  and  C_22
REMARK                            x       y       z     vdW  Elec       q    Type
REMARK                         _______ _______ _______ _____ _____    ______ ____
ROOT
ATOM      1  O   UNL     1       8.316   0.693  23.747  0.00  0.00    -0.363 OA
ENDROOT
BRANCH   1   5
ATOM      2  N   UNL     1       8.038  -2.862  22.730  0.00  0.00    -0.302 NA
ATOM      3  C   UNL     1       9.234  -2.002  22.817  0.00  0.00    +0.087 C 
ATOM      4  C   UNL     1       9.399  -1.333  24.193  0.00  0.00    +0.047 C 
ATOM      5  C   UNL     1       8.173  -0.483  24.545  0.00  0.00    +0.122 C 
ATOM      6  C   UNL     1       6.889  -1.308  24.344  0.00  0.00    +0.047 C 
ATOM      7  C   UNL     1       6.846  -2.043  23.001  0.00  0.00    +0.087 C 
BRANCH   2   8
ATOM      8  C   UNL     1       8.190  -4.053  23.580  0.00  0.00    +0.085 C 
BRANCH   8   9
ATOM      9  C   UNL     1       7.109  -5.125  23.406  0.00  0.00    +0.026 C 
BRANCH   9  10
ATOM     10  C   UNL     1       7.297  -5.831  22.065  0.00  0.00    +0.121 C 
BRANCH  10  11
ATOM     11  C   UNL     1       6.026  -5.792  21.260  0.00  0.00    +0.305 C 
ATOM     12  O   UNL     1       5.989  -5.604  20.054  0.00  0.00    -0.251 OA
BRANCH  11  13
ATOM     13  O   UNL     1       4.919  -6.023  22.000  0.00  0.00    -0.481 OA
ATOM     14  H   UNL     1       4.082  -5.937  21.503  0.00  0.00    +0.295 HD
ENDBRANCH  11  13
ENDBRANCH  10  11
ENDBRANCH   9  10
ENDBRANCH   8   9
ENDBRANCH   2   8
ENDBRANCH   1   5
BRANCH   1  15
ATOM     15  C   UNL     1       8.107   1.968  24.354  0.00  0.00    +0.197 C 
BRANCH  15  16
ATOM     16  C   UNL     1       9.112   3.051  23.946  0.00  0.00    -0.013 A 
ATOM     17  C   UNL     1      10.369   2.671  23.443  0.00  0.00    +0.008 A 
ATOM     18  C   UNL     1      11.402   3.606  23.321  0.00  0.00    +0.020 A 
ATOM     19  C   UNL     1      11.191   4.927  23.706  0.00  0.00    +0.041 A 
ATOM     20 CL   UNL     1      12.502   6.042  23.705  0.00  0.00    -0.084 Cl
ATOM     21  C   UNL     1       9.930   5.342  24.119  0.00  0.00    +0.020 A 
ATOM     22  C   UNL     1       8.887   4.415  24.206  0.00  0.00    +0.008 A 
ENDBRANCH  15  16
BRANCH  15  23
ATOM     23  C   UNL     1       6.666   2.388  24.018  0.00  0.00    +0.074 A 
ATOM     24  N   UNL     1       5.797   2.541  25.052  0.00  0.00    -0.257 NA
ATOM     25  C   UNL     1       4.542   2.953  24.754  0.00  0.00    +0.111 A 
ATOM     26  C   UNL     1       4.107   3.258  23.475  0.00  0.00    +0.020 A 
ATOM     27  C   UNL     1       4.994   3.087  22.425  0.00  0.00    +0.003 A 
ATOM     28  C   UNL     1       6.275   2.617  22.694  0.00  0.00    +0.026 A 
ENDBRANCH  15  23
ENDBRANCH   1  15
TORSDOF 9
ENDMDL
MODEL 4
REMARK VINA RESULT:      -6.3      2.883      7.971
REMARK  Name = 
REMARK  9 active torsions:
REMARK  status: ('A' for Active; 'I' for Inactive)
REMARK    1  A    between atoms: O_1  and  C_2
REMARK    2  A    between atoms: C_2  and  C_4
REMARK    3  A    between atoms: C_4  and  C_5
REMARK    4  A    between atoms: C_5  and  C_6
REMARK    5  A    between atoms: C_6  and  N_7
REMARK    6  A    between atoms: C_10  and  O_13
REMARK    7  A    between atoms: O_13  and  C_14
REMARK    8  A    between atoms: C_14  and  C_15
REMARK    9  A    between atoms: C_14  and  C_22
REMARK                            x       y       z     vdW  Elec       q    Type
REMARK                         _______ _______ _______ _____ _____    ______ ____
ROOT
ATOM      1  O   UNL     1       9.098   1.006  23.437  0.00  0.00    -0.363 OA
ENDROOT
BRANCH   1   5
ATOM      2  N   UNL     1       8.966  -2.615  24.230  0.00  0.00    -0.302 NA
ATOM      3  C   UNL     1       8.078  -1.523  24.677  0.00  0.00    +0.087 C 
ATOM      4  C   UNL     1       7.498  -0.701  23.513  0.00  0.00    +0.047 C 
ATOM      5  C   UNL     1       8.614  -0.089  22.658  0.00  0.00    +0.122 C 
ATOM      6  C   UNL     1       9.635  -1.176  22.275  0.00  0.00    +0.047 C 
ATOM      7  C   UNL     1      10.079  -2.035  23.462  0.00  0.00    +0.087 C 
BRANCH   2   8
ATOM      8  C   UNL     1       8.198  -3.658  23.534  0.00  0.00    +0.085 C 
BRANCH   8   9
ATOM      9  C   UNL     1       8.194  -5.032  24.212  0.00  0.00    +0.026 C 
BRANCH   9  10
ATOM     10  C   UNL     1       7.245  -5.012  25.408  0.00  0.00    +0.121 C 
BRANCH  10  11
ATOM     11  C   UNL     1       7.998  -5.241  26.690  0.00  0.00    +0.305 C 
ATOM     12  O   UNL     1       7.511  -5.757  27.684  0.00  0.00    -0.251 OA
BRANCH  11  13
ATOM     13  O   UNL     1       9.291  -4.849  26.626  0.00  0.00    -0.481 OA
ATOM     14  H   UNL     1       9.471  -3.999  27.073  0.00  0.00    +0.295 HD
ENDBRANCH  11  13
ENDBRANCH  10  11
ENDBRANCH   9  10
ENDBRANCH   8   9
ENDBRANCH   2   8
ENDBRANCH   1   5
BRANCH   1  15
ATOM     15  C   UNL     1       8.395   2.246  23.395  0.00  0.00    +0.197 C 
BRANCH  15  16
ATOM     16  C   UNL     1       7.298   2.404  24.453  0.00  0.00    -0.013 A 
ATOM     17  C   UNL     1       7.599   2.150  25.803  0.00  0.00    +0.008 A 
ATOM     18  C   UNL     1       6.579   2.014  26.750  0.00  0.00    +0.020 A 
ATOM     19  C   UNL     1       5.248   2.127  26.356  0.00  0.00    +0.041 A 
ATOM     20 CL   UNL     1       3.989   1.806  27.484  0.00  0.00    -0.084 Cl
ATOM     21  C   UNL     1       4.933   2.469  25.046  0.00  0.00    +0.020 A 
ATOM     22  C   UNL     1       5.955   2.641  24.108  0.00  0.00    +0.008 A 
ENDBRANCH  15  16
BRANCH  15  23
ATOM     23  C   UNL     1       9.451   3.359  23.514  0.00  0.00    +0.074 A 
ATOM     24  N   UNL     1      10.751   3.018  23.311  0.00  0.00    -0.257 NA
ATOM     25  C   UNL     1      11.671   4.010  23.375  0.00  0.00    +0.111 A 
ATOM     26  C   UNL     1      11.364   5.343  23.597  0.00  0.00    +0.020 A 
ATOM     27  C   UNL     1      10.038   5.680  23.815  0.00  0.00    +0.003 A 
ATOM     28  C   UNL     1       9.076   4.676  23.806  0.00  0.00    +0.026 A 
ENDBRANCH  15  23
ENDBRANCH   1  15
TORSDOF 9
ENDMDL
MODEL 5
REMARK VINA RESULT:      -6.3      3.607      8.927
REMARK  Name = 
REMARK  9 active torsions:
REMARK  status: ('A' for Active; 'I' for Inactive)
REMARK    1  A    between atoms: O_1  and  C_2
REMARK    2  A    between atoms: C_2  and  C_4
REMARK    3  A    between atoms: C_4  and  C_5
REMARK    4  A    between atoms: C_5  and  C_6
REMARK    5  A    between atoms: C_6  and  N_7
REMARK    6  A    between atoms: C_10  and  O_13
REMARK    7  A    between atoms: O_13  and  C_14
REMARK    8  A    between atoms: C_14  and  C_15
REMARK    9  A    between atoms: C_14  and  C_22
REMARK                            x       y       z     vdW  Elec       q    Type
REMARK                         _______ _______ _______ _____ _____    ______ ____
ROOT
ATOM      1  O   UNL     1       9.532   1.806  23.815  0.00  0.00    -0.363 OA
ENDROOT
BRANCH   1   5
ATOM      2  N   UNL     1       7.851  -1.493  23.618  0.00  0.00    -0.302 NA
ATOM      3  C   UNL     1       7.463  -0.204  23.011  0.00  0.00    +0.087 C 
ATOM      4  C   UNL     1       8.586   0.431  22.174  0.00  0.00    +0.047 C 
ATOM      5  C   UNL     1       9.844   0.661  23.020  0.00  0.00    +0.122 C 
ATOM      6  C   UNL     1      10.211  -0.630  23.773  0.00  0.00    +0.047 C 
ATOM      7  C   UNL     1       9.019  -1.275  24.486  0.00  0.00    +0.087 C 
BRANCH   2   8
ATOM      8  C   UNL     1       8.019  -2.525  22.584  0.00  0.00    +0.085 C 
BRANCH   8   9
ATOM      9  C   UNL     1       6.775  -3.372  22.294  0.00  0.00    +0.026 C 
BRANCH   9  10
ATOM     10  C   UNL     1       7.185  -4.824  22.060  0.00  0.00    +0.121 C 
BRANCH  10  11
ATOM     11  C   UNL     1       6.109  -5.570  21.318  0.00  0.00    +0.305 C 
ATOM     12  O   UNL     1       5.991  -5.565  20.103  0.00  0.00    -0.251 OA
BRANCH  11  13
ATOM     13  O   UNL     1       5.297  -6.282  22.132  0.00  0.00    -0.481 OA
ATOM     14  H   UNL     1       5.421  -7.249  22.069  0.00  0.00    +0.295 HD
ENDBRANCH  11  13
ENDBRANCH  10  11
ENDBRANCH   9  10
ENDBRANCH   8   9
ENDBRANCH   2   8
ENDBRANCH   1   5
BRANCH   1  15
ATOM     15  C   UNL     1       9.135   3.011  23.163  0.00  0.00    +0.197 C 
BRANCH  15  16
ATOM     16  C   UNL     1       7.722   3.497  23.505  0.00  0.00    -0.013 A 
ATOM     17  C   UNL     1       7.141   3.120  24.729  0.00  0.00    +0.008 A 
ATOM     18  C   UNL     1       5.774   3.306  24.959  0.00  0.00    +0.020 A 
ATOM     19  C   UNL     1       4.974   3.865  23.966  0.00  0.00    +0.041 A 
ATOM     20 CL   UNL     1       3.269   3.950  24.184  0.00  0.00    -0.084 Cl
ATOM     21  C   UNL     1       5.545   4.328  22.786  0.00  0.00    +0.020 A 
ATOM     22  C   UNL     1       6.918   4.175  22.572  0.00  0.00    +0.008 A 
ENDBRANCH  15  16
BRANCH  15  23
ATOM     23  C   UNL     1      10.191   4.074  23.513  0.00  0.00    +0.074 A 
ATOM     24  N   UNL     1      11.481   3.816  23.172  0.00  0.00    -0.257 NA
ATOM     25  C   UNL     1      12.399   4.774  23.443  0.00  0.00    +0.111 A 
ATOM     26  C   UNL     1      12.098   6.002  24.009  0.00  0.00    +0.020 A 
ATOM     27  C   UNL     1      10.783   6.252  24.364  0.00  0.00    +0.003 A 
ATOM     28  C   UNL     1       9.825   5.268  24.145  0.00  0.00    +0.026 A 
ENDBRANCH  15  23
ENDBRANCH   1  15
TORSDOF 9
ENDMDL
MODEL 6
REMARK VINA RESULT:      -6.3      3.784      9.249
REMARK  Name = 
REMARK  9 active torsions:
REMARK  status: ('A' for Active; 'I' for Inactive)
REMARK    1  A    between atoms: O_1  and  C_2
REMARK    2  A    between atoms: C_2  and  C_4
REMARK    3  A    between atoms: C_4  and  C_5
REMARK    4  A    between atoms: C_5  and  C_6
REMARK    5  A    between atoms: C_6  and  N_7
REMARK    6  A    between atoms: C_10  and  O_13
REMARK    7  A    between atoms: O_13  and  C_14
REMARK    8  A    between atoms: C_14  and  C_15
REMARK    9  A    between atoms: C_14  and  C_22
REMARK                            x       y       z     vdW  Elec       q    Type
REMARK                         _______ _______ _______ _____ _____    ______ ____
ROOT
ATOM      1  O   UNL     1       9.374   2.479  24.293  0.00  0.00    -0.363 OA
ENDROOT
BRANCH   1   5
ATOM      2  N   UNL     1       8.529  -1.121  24.566  0.00  0.00    -0.302 NA
ATOM      3  C   UNL     1       8.001  -0.101  23.638  0.00  0.00    +0.087 C 
ATOM      4  C   UNL     1       9.105   0.643  22.867  0.00  0.00    +0.047 C 
ATOM      5  C   UNL     1      10.083   1.330  23.827  0.00  0.00    +0.122 C 
ATOM      6  C   UNL     1      10.562   0.328  24.893  0.00  0.00    +0.047 C 
ATOM      7  C   UNL     1       9.419  -0.464  25.536  0.00  0.00    +0.087 C 
BRANCH   2   8
ATOM      8  C   UNL     1       9.125  -2.241  23.823  0.00  0.00    +0.085 C 
BRANCH   8   9
ATOM      9  C   UNL     1       8.235  -3.480  23.679  0.00  0.00    +0.026 C 
BRANCH   9  10
ATOM     10  C   UNL     1       7.863  -4.010  25.063  0.00  0.00    +0.121 C 
BRANCH  10  11
ATOM     11  C   UNL     1       8.779  -5.133  25.467  0.00  0.00    +0.305 C 
ATOM     12  O   UNL     1       9.803  -5.426  24.871  0.00  0.00    -0.251 OA
BRANCH  11  13
ATOM     13  O   UNL     1       8.374  -5.773  26.588  0.00  0.00    -0.481 OA
ATOM     14  H   UNL     1       8.109  -6.702  26.441  0.00  0.00    +0.295 HD
ENDBRANCH  11  13
ENDBRANCH  10  11
ENDBRANCH   9  10
ENDBRANCH   8   9
ENDBRANCH   2   8
ENDBRANCH   1   5
BRANCH   1  15
ATOM     15  C   UNL     1       9.229   3.600  23.422  0.00  0.00    +0.197 C 
BRANCH  15  16
ATOM     16  C   UNL     1       7.811   4.175  23.338  0.00  0.00    -0.013 A 
ATOM     17  C   UNL     1       7.531   5.185  22.400  0.00  0.00    +0.008 A 
ATOM     18  C   UNL     1       6.343   5.920  22.476  0.00  0.00    +0.020 A 
ATOM     19  C   UNL     1       5.428   5.658  23.491  0.00  0.00    +0.041 A 
ATOM     20 CL   UNL     1       4.044   6.662  23.680  0.00  0.00    -0.084 Cl
ATOM     21  C   UNL     1       5.644   4.603  24.372  0.00  0.00    +0.020 A 
ATOM     22  C   UNL     1       6.814   3.845  24.273  0.00  0.00    +0.008 A 
ENDBRANCH  15  16
BRANCH  15  23
ATOM     23  C   UNL     1      10.236   4.663  23.895  0.00  0.00    +0.074 A 
ATOM     24  N   UNL     1      11.504   4.591  23.409  0.00  0.00    -0.257 NA
ATOM     25  C   UNL     1      12.373   5.555  23.795  0.00  0.00    +0.111 A 
ATOM     26  C   UNL     1      12.041   6.617  24.620  0.00  0.00    +0.020 A 
ATOM     27  C   UNL     1      10.751   6.676  25.121  0.00  0.00    +0.003 A 
ATOM     28  C   UNL     1       9.849   5.673  24.783  0.00  0.00    +0.026 A 
ENDBRANCH  15  23
ENDBRANCH   1  15
TORSDOF 9
ENDMDL
MODEL 7
REMARK VINA RESULT:      -6.2      3.843      9.495
REMARK  Name = 
REMARK  9 active torsions:
REMARK  status: ('A' for Active; 'I' for Inactive)
REMARK    1  A    between atoms: O_1  and  C_2
REMARK    2  A    between atoms: C_2  and  C_4
REMARK    3  A    between atoms: C_4  and  C_5
REMARK    4  A    between atoms: C_5  and  C_6
REMARK    5  A    between atoms: C_6  and  N_7
REMARK    6  A    between atoms: C_10  and  O_13
REMARK    7  A    between atoms: O_13  and  C_14
REMARK    8  A    between atoms: C_14  and  C_15
REMARK    9  A    between atoms: C_14  and  C_22
REMARK                            x       y       z     vdW  Elec       q    Type
REMARK                         _______ _______ _______ _____ _____    ______ ____
ROOT
ATOM      1  O   UNL     1       9.463   3.219  24.138  0.00  0.00    -0.363 OA
ENDROOT
BRANCH   1   5
ATOM      2  N   UNL     1       8.639  -0.392  24.316  0.00  0.00    -0.302 NA
ATOM      3  C   UNL     1       7.933   0.699  23.615  0.00  0.00    +0.087 C 
ATOM      4  C   UNL     1       8.845   1.502  22.673  0.00  0.00    +0.047 C 
ATOM      5  C   UNL     1      10.028   2.111  23.435  0.00  0.00    +0.122 C 
ATOM      6  C   UNL     1      10.719   1.028  24.283  0.00  0.00    +0.047 C 
ATOM      7  C   UNL     1       9.738   0.187  25.105  0.00  0.00    +0.087 C 
BRANCH   2   8
ATOM      8  C   UNL     1       9.031  -1.449  23.372  0.00  0.00    +0.085 C 
BRANCH   8   9
ATOM      9  C   UNL     1       9.769  -2.641  23.991  0.00  0.00    +0.026 C 
BRANCH   9  10
ATOM     10  C   UNL     1       8.813  -3.429  24.884  0.00  0.00    +0.121 C 
BRANCH  10  11
ATOM     11  C   UNL     1       8.603  -4.819  24.345  0.00  0.00    +0.305 C 
ATOM     12  O   UNL     1       7.706  -5.121  23.573  0.00  0.00    -0.251 OA
BRANCH  11  13
ATOM     13  O   UNL     1       9.532  -5.702  24.773  0.00  0.00    -0.481 OA
ATOM     14  H   UNL     1       9.214  -6.625  24.816  0.00  0.00    +0.295 HD
ENDBRANCH  11  13
ENDBRANCH  10  11
ENDBRANCH   9  10
ENDBRANCH   8   9
ENDBRANCH   2   8
ENDBRANCH   1   5
BRANCH   1  15
ATOM     15  C   UNL     1       9.331   4.469  23.464  0.00  0.00    +0.197 C 
BRANCH  15  16
ATOM     16  C   UNL     1       7.911   5.045  23.440  0.00  0.00    -0.013 A 
ATOM     17  C   UNL     1       6.898   4.413  24.182  0.00  0.00    +0.008 A 
ATOM     18  C   UNL     1       5.553   4.734  23.975  0.00  0.00    +0.020 A 
ATOM     19  C   UNL     1       5.207   5.686  23.020  0.00  0.00    +0.041 A 
ATOM     20 CL   UNL     1       3.550   5.971  22.652  0.00  0.00    -0.084 Cl
ATOM     21  C   UNL     1       6.197   6.389  22.342  0.00  0.00    +0.020 A 
ATOM     22  C   UNL     1       7.543   6.093  22.577  0.00  0.00    +0.008 A 
ENDBRANCH  15  16
BRANCH  15  23
ATOM     23  C   UNL     1      10.318   5.441  24.133  0.00  0.00    +0.074 A 
ATOM     24  N   UNL     1       9.871   6.159  25.198  0.00  0.00    -0.257 NA
ATOM     25  C   UNL     1      10.756   6.980  25.810  0.00  0.00    +0.111 A 
ATOM     26  C   UNL     1      12.086   7.104  25.441  0.00  0.00    +0.020 A 
ATOM     27  C   UNL     1      12.531   6.378  24.348  0.00  0.00    +0.003 A 
ATOM     28  C   UNL     1      11.632   5.564  23.668  0.00  0.00    +0.026 A 
ENDBRANCH  15  23
ENDBRANCH   1  15
TORSDOF 9
ENDMDL
MODEL 8
REMARK VINA RESULT:      -6.2      3.486      4.915
REMARK  Name = 
REMARK  9 active torsions:
REMARK  status: ('A' for Active; 'I' for Inactive)
REMARK    1  A    between atoms: O_1  and  C_2
REMARK    2  A    between atoms: C_2  and  C_4
REMARK    3  A    between atoms: C_4  and  C_5
REMARK    4  A    between atoms: C_5  and  C_6
REMARK    5  A    between atoms: C_6  and  N_7
REMARK    6  A    between atoms: C_10  and  O_13
REMARK    7  A    between atoms: O_13  and  C_14
REMARK    8  A    between atoms: C_14  and  C_15
REMARK    9  A    between atoms: C_14  and  C_22
REMARK                            x       y       z     vdW  Elec       q    Type
REMARK                         _______ _______ _______ _____ _____    ______ ____
ROOT
ATOM      1  O   UNL     1       5.091  -5.495  24.068  0.00  0.00    -0.363 OA
ENDROOT
BRANCH   1   5
ATOM      2  N   UNL     1       7.021  -3.000  22.116  0.00  0.00    -0.302 NA
ATOM      3  C   UNL     1       5.977  -2.789  23.139  0.00  0.00    +0.087 C 
ATOM      4  C   UNL     1       6.272  -3.513  24.463  0.00  0.00    +0.047 C 
ATOM      5  C   UNL     1       6.427  -5.022  24.245  0.00  0.00    +0.122 C 
ATOM      6  C   UNL     1       7.417  -5.286  23.096  0.00  0.00    +0.047 C 
ATOM      7  C   UNL     1       7.135  -4.443  21.849  0.00  0.00    +0.087 C 
BRANCH   2   8
ATOM      8  C   UNL     1       8.272  -2.331  22.504  0.00  0.00    +0.085 C 
BRANCH   8   9
ATOM      9  C   UNL     1       8.184  -0.808  22.646  0.00  0.00    +0.026 C 
BRANCH   9  10
ATOM     10  C   UNL     1       9.321  -0.153  21.864  0.00  0.00    +0.121 C 
BRANCH  10  11
ATOM     11  C   UNL     1       9.008   1.291  21.576  0.00  0.00    +0.305 C 
ATOM     12  O   UNL     1       7.877   1.724  21.419  0.00  0.00    -0.251 OA
BRANCH  11  13
ATOM     13  O   UNL     1      10.107   2.077  21.542  0.00  0.00    -0.481 OA
ATOM     14  H   UNL     1      10.943   1.600  21.709  0.00  0.00    +0.295 HD
ENDBRANCH  11  13
ENDBRANCH  10  11
ENDBRANCH   9  10
ENDBRANCH   8   9
ENDBRANCH   2   8
ENDBRANCH   1   5
BRANCH   1  15
ATOM     15  C   UNL     1       4.620  -6.558  24.894  0.00  0.00    +0.197 C 
BRANCH  15  16
ATOM     16  C   UNL     1       4.363  -6.176  26.356  0.00  0.00    -0.013 A 
ATOM     17  C   UNL     1       3.455  -5.143  26.650  0.00  0.00    +0.008 A 
ATOM     18  C   UNL     1       3.399  -4.584  27.931  0.00  0.00    +0.020 A 
ATOM     19  C   UNL     1       4.251  -5.048  28.928  0.00  0.00    +0.041 A 
ATOM     20 CL   UNL     1       4.295  -4.260  30.457  0.00  0.00    -0.084 Cl
ATOM     21  C   UNL     1       5.091  -6.130  28.683  0.00  0.00    +0.020 A 
ATOM     22  C   UNL     1       5.120  -6.712  27.413  0.00  0.00    +0.008 A 
ENDBRANCH  15  16
BRANCH  15  23
ATOM     23  C   UNL     1       3.347  -7.107  24.227  0.00  0.00    +0.074 A 
ATOM     24  N   UNL     1       2.842  -8.277  24.701  0.00  0.00    -0.257 NA
ATOM     25  C   UNL     1       1.697  -8.732  24.140  0.00  0.00    +0.111 A 
ATOM     26  C   UNL     1       0.999  -8.066  23.146  0.00  0.00    +0.020 A 
ATOM     27  C   UNL     1       1.527  -6.881  22.660  0.00  0.00    +0.003 A 
ATOM     28  C   UNL     1       2.728  -6.413  23.182  0.00  0.00    +0.026 A 
ENDBRANCH  15  23
ENDBRANCH   1  15
TORSDOF 9
ENDMDL
MODEL 9
REMARK VINA RESULT:      -6.2      2.976      4.928
REMARK  Name = 
REMARK  9 active torsions:
REMARK  status: ('A' for Active; 'I' for Inactive)
REMARK    1  A    between atoms: O_1  and  C_2
REMARK    2  A    between atoms: C_2  and  C_4
REMARK    3  A    between atoms: C_4  and  C_5
REMARK    4  A    between atoms: C_5  and  C_6
REMARK    5  A    between atoms: C_6  and  N_7
REMARK    6  A    between atoms: C_10  and  O_13
REMARK    7  A    between atoms: O_13  and  C_14
REMARK    8  A    between atoms: C_14  and  C_15
REMARK    9  A    between atoms: C_14  and  C_22
REMARK                            x       y       z     vdW  Elec       q    Type
REMARK                         _______ _______ _______ _____ _____    ______ ____
ROOT
ATOM      1  O   UNL     1       7.334  -2.783  26.498  0.00  0.00    -0.363 OA
ENDROOT
BRANCH   1   5
ATOM      2  N   UNL     1       8.776   0.146  24.738  0.00  0.00    -0.302 NA
ATOM      3  C   UNL     1       7.562  -0.634  24.424  0.00  0.00    +0.087 C 
ATOM      4  C   UNL     1       6.592  -0.747  25.613  0.00  0.00    +0.047 C 
ATOM      5  C   UNL     1       7.275  -1.393  26.824  0.00  0.00    +0.122 C 
ATOM      6  C   UNL     1       8.613  -0.688  27.109  0.00  0.00    +0.047 C 
ATOM      7  C   UNL     1       9.477  -0.501  25.858  0.00  0.00    +0.087 C 
BRANCH   2   8
ATOM      8  C   UNL     1       8.445   1.565  24.939  0.00  0.00    +0.085 C 
BRANCH   8   9
ATOM      9  C   UNL     1       9.200   2.548  24.038  0.00  0.00    +0.026 C 
BRANCH   9  10
ATOM     10  C   UNL     1      10.282   1.803  23.258  0.00  0.00    +0.121 C 
BRANCH  10  11
ATOM     11  C   UNL     1       9.747   1.313  21.940  0.00  0.00    +0.305 C 
ATOM     12  O   UNL     1       9.891   0.172  21.528  0.00  0.00    -0.251 OA
BRANCH  11  13
ATOM     13  O   UNL     1       9.053   2.255  21.262  0.00  0.00    -0.481 OA
ATOM     14  H   UNL     1       9.238   2.272  20.303  0.00  0.00    +0.295 HD
ENDBRANCH  11  13
ENDBRANCH  10  11
ENDBRANCH   9  10
ENDBRANCH   8   9
ENDBRANCH   2   8
ENDBRANCH   1   5
BRANCH   1  15
ATOM     15  C   UNL     1       6.120  -3.480  26.226  0.00  0.00    +0.197 C 
BRANCH  15  16
ATOM     16  C   UNL     1       6.132  -4.328  24.949  0.00  0.00    -0.013 A 
ATOM     17  C   UNL     1       7.346  -4.532  24.269  0.00  0.00    +0.008 A 
ATOM     18  C   UNL     1       7.359  -5.057  22.972  0.00  0.00    +0.020 A 
ATOM     19  C   UNL     1       6.160  -5.380  22.343  0.00  0.00    +0.041 A 
ATOM     20 CL   UNL     1       6.162  -5.878  20.696  0.00  0.00    -0.084 Cl
ATOM     21  C   UNL     1       4.957  -5.273  23.032  0.00  0.00    +0.020 A 
ATOM     22  C   UNL     1       4.948  -4.782  24.341  0.00  0.00    +0.008 A 
ENDBRANCH  15  16
BRANCH  15  23
ATOM     23  C   UNL     1       5.814  -4.339  27.465  0.00  0.00    +0.074 A 
ATOM     24  N   UNL     1       6.677  -5.347  27.761  0.00  0.00    -0.257 NA
ATOM     25  C   UNL     1       6.426  -6.072  28.877  0.00  0.00    +0.111 A 
ATOM     26  C   UNL     1       5.374  -5.826  29.744  0.00  0.00    +0.020 A 
ATOM     27  C   UNL     1       4.493  -4.804  29.429  0.00  0.00    +0.003 A 
ATOM     28  C   UNL     1       4.695  -4.075  28.263  0.00  0.00    +0.026 A 
ENDBRANCH  15  23
ENDBRANCH   1  15
TORSDOF 9
ENDMDL
