MODEL 1
REMARK VINA RESULT:      -5.2      0.000      0.000
REMARK  Name = 
REMARK  21 active torsions:
REMARK  status: ('A' for Active; 'I' for Inactive)
REMARK    1  A    between atoms: C_2  and  O_3
REMARK    2  A    between atoms: C_2  and  C_4
REMARK    3  A    between atoms: C_2  and  C_22
REMARK    4  A    between atoms: N_6  and  C_7
REMARK    5  A    between atoms: C_7  and  C_8
REMARK    6  A    between atoms: C_8  and  C_9
REMARK    7  A    between atoms: N_11  and  C_12
REMARK    8  A    between atoms: C_12  and  C_13
REMARK    9  A    between atoms: C_13  and  S_14
REMARK   10  A    between atoms: S_14  and  C_15
REMARK   11  A    between atoms: C_15  and  C_17
REMARK   12  A    between atoms: C_17  and  C_18
REMARK   13  A    between atoms: C_18  and  C_19
REMARK   14  A    between atoms: C_19  and  C_20
REMARK   15  A    between atoms: C_20  and  C_21
REMARK   16  A    between atoms: C_22  and  C_23
REMARK   17  A    between atoms: C_22  and  C_24
REMARK   18  A    between atoms: C_22  and  C_25
REMARK   19  A    between atoms: C_25  and  O_26
REMARK   20  A    between atoms: O_26  and  P_27
REMARK   21  A    between atoms: P_27  and  O_29
REMARK                            x       y       z     vdW  Elec       q    Type
REMARK                         _______ _______ _______ _____ _____    ______ ____
ROOT
ATOM      1  C   UNL     1       9.971  -1.424  23.682  0.00  0.00    +0.242 C 
ATOM      2  N   UNL     1       9.246  -2.211  24.564  0.00  0.00    -0.313 N 
ATOM      3  H   UNL     1       8.670  -1.749  25.259  0.00  0.00    +0.149 HD
ATOM      4  O   UNL     1      10.367  -1.846  22.591  0.00  0.00    -0.273 OA
ENDROOT
BRANCH   2   5
ATOM      5  C   UNL     1       8.898  -3.538  24.115  0.00  0.00    +0.113 C 
BRANCH   5   6
ATOM      6  C   UNL     1       8.949  -4.625  25.170  0.00  0.00    +0.114 C 
BRANCH   6   7
ATOM      7  C   UNL     1       7.826  -4.534  26.203  0.00  0.00    +0.215 C 
ATOM      8  N   UNL     1       7.246  -5.712  26.609  0.00  0.00    -0.314 N 
ATOM      9  H   UNL     1       7.391  -6.568  26.091  0.00  0.00    +0.149 HD
ATOM     10  O   UNL     1       7.493  -3.444  26.661  0.00  0.00    -0.276 OA
BRANCH   8  11
ATOM     11  C   UNL     1       6.136  -5.757  27.542  0.00  0.00    +0.115 C 
BRANCH  11  12
ATOM     12  C   UNL     1       5.050  -6.758  27.138  0.00  0.00    +0.096 C 
BRANCH  12  13
ATOM     13  S   UNL     1       3.667  -5.924  26.278  0.00  0.00    -0.087 S 
BRANCH  13  14
ATOM     14  C   UNL     1       3.613  -6.905  24.812  0.00  0.00    +0.189 C 
ATOM     15  O   UNL     1       3.370  -8.103  24.849  0.00  0.00    -0.285 OA
BRANCH  14  16
ATOM     16  C   UNL     1       3.950  -6.145  23.544  0.00  0.00    +0.086 C 
BRANCH  16  17
ATOM     17  C   UNL     1       5.239  -5.330  23.663  0.00  0.00    +0.008 C 
BRANCH  17  18
ATOM     18  C   UNL     1       5.466  -4.411  22.459  0.00  0.00    +0.000 C 
BRANCH  18  19
ATOM     19  C   UNL     1       6.249  -5.121  21.355  0.00  0.00    -0.003 C 
ATOM     20  C   UNL     1       7.252  -6.106  21.934  0.00  0.00    +0.004 C 
ENDBRANCH  18  19
ENDBRANCH  17  18
ENDBRANCH  16  17
ENDBRANCH  14  16
ENDBRANCH  13  14
ENDBRANCH  12  13
ENDBRANCH  11  12
ENDBRANCH   8  11
ENDBRANCH   6   7
ENDBRANCH   5   6
ENDBRANCH   2   5
BRANCH   1  21
ATOM     21  C   UNL     1      10.272   0.006  24.149  0.00  0.00    +0.208 C 
BRANCH  21  22
ATOM     22  C   UNL     1       9.440   1.076  23.376  0.00  0.00    +0.023 C 
ATOM     23  C   UNL     1      10.001   1.339  21.962  0.00  0.00    +0.016 C 
ATOM     24  C   UNL     1       9.450   2.409  24.155  0.00  0.00    +0.016 C 
BRANCH  22  25
ATOM     25  C   UNL     1       7.962   0.621  23.252  0.00  0.00    +0.179 C 
BRANCH  25  26
ATOM     26  O   UNL     1       7.203   0.963  24.399  0.00  0.00    -0.309 OA
BRANCH  26  27
ATOM     27  P   UNL     1       6.288  -0.184  25.077  0.00  0.00    +0.319 P 
ATOM     28  H   UNL     1       5.221   0.516  25.675  0.00  0.00    +0.159 HD
ATOM     29  O   UNL     1       6.135  -1.371  24.173  0.00  0.00    -0.262 OA
BRANCH  27  30
ATOM     30  O   UNL     1       7.247  -0.610  26.307  0.00  0.00    -0.326 OA
ATOM     31  H   UNL     1       6.817  -0.365  27.150  0.00  0.00    +0.220 HD
ENDBRANCH  27  30
ENDBRANCH  26  27
ENDBRANCH  25  26
ENDBRANCH  22  25
ENDBRANCH  21  22
BRANCH  21  32
ATOM     32  O   UNL     1      10.049   0.043  25.557  0.00  0.00    -0.382 OA
ATOM     33  H   UNL     1       9.105   0.257  25.688  0.00  0.00    +0.210 HD
ENDBRANCH  21  32
ENDBRANCH   1  21
TORSDOF 18
ENDMDL
MODEL 2
REMARK VINA RESULT:      -5.2      3.093      4.134
REMARK  Name = 
REMARK  21 active torsions:
REMARK  status: ('A' for Active; 'I' for Inactive)
REMARK    1  A    between atoms: C_2  and  O_3
REMARK    2  A    between atoms: C_2  and  C_4
REMARK    3  A    between atoms: C_2  and  C_22
REMARK    4  A    between atoms: N_6  and  C_7
REMARK    5  A    between atoms: C_7  and  C_8
REMARK    6  A    between atoms: C_8  and  C_9
REMARK    7  A    between atoms: N_11  and  C_12
REMARK    8  A    between atoms: C_12  and  C_13
REMARK    9  A    between atoms: C_13  and  S_14
REMARK   10  A    between atoms: S_14  and  C_15
REMARK   11  A    between atoms: C_15  and  C_17
REMARK   12  A    between atoms: C_17  and  C_18
REMARK   13  A    between atoms: C_18  and  C_19
REMARK   14  A    between atoms: C_19  and  C_20
REMARK   15  A    between atoms: C_20  and  C_21
REMARK   16  A    between atoms: C_22  and  C_23
REMARK   17  A    between atoms: C_22  and  C_24
REMARK   18  A    between atoms: C_22  and  C_25
REMARK   19  A    between atoms: C_25  and  O_26
REMARK   20  A    between atoms: O_26  and  P_27
REMARK   21  A    between atoms: P_27  and  O_29
REMARK                            x       y       z     vdW  Elec       q    Type
REMARK                         _______ _______ _______ _____ _____    ______ ____
ROOT
ATOM      1  C   UNL     1       8.650   0.579  22.715  0.00  0.00    +0.242 C 
ATOM      2  N   UNL     1       9.546  -0.247  22.054  0.00  0.00    -0.313 N 
ATOM      3  H   UNL     1      10.469   0.114  21.844  0.00  0.00    +0.149 HD
ATOM      4  O   UNL     1       7.689   0.138  23.352  0.00  0.00    -0.273 OA
ENDROOT
BRANCH   2   5
ATOM      5  C   UNL     1       9.354  -1.670  22.210  0.00  0.00    +0.113 C 
BRANCH   5   6
ATOM      6  C   UNL     1      10.229  -2.343  23.247  0.00  0.00    +0.114 C 
BRANCH   6   7
ATOM      7  C   UNL     1       9.445  -3.119  24.305  0.00  0.00    +0.215 C 
ATOM      8  N   UNL     1       8.457  -2.444  24.980  0.00  0.00    -0.314 N 
ATOM      9  H   UNL     1       8.402  -1.435  24.947  0.00  0.00    +0.149 HD
ATOM     10  O   UNL     1       9.685  -4.307  24.506  0.00  0.00    -0.276 OA
BRANCH   8  11
ATOM     11  C   UNL     1       7.680  -3.052  26.044  0.00  0.00    +0.115 C 
BRANCH  11  12
ATOM     12  C   UNL     1       6.409  -3.743  25.543  0.00  0.00    +0.096 C 
BRANCH  12  13
ATOM     13  S   UNL     1       6.322  -5.474  26.129  0.00  0.00    -0.087 S 
BRANCH  13  14
ATOM     14  C   UNL     1       4.693  -5.876  25.582  0.00  0.00    +0.189 C 
ATOM     15  O   UNL     1       3.698  -5.468  26.166  0.00  0.00    -0.285 OA
BRANCH  14  16
ATOM     16  C   UNL     1       4.652  -6.803  24.382  0.00  0.00    +0.086 C 
BRANCH  16  17
ATOM     17  C   UNL     1       4.719  -6.055  23.050  0.00  0.00    +0.008 C 
BRANCH  17  18
ATOM     18  C   UNL     1       6.112  -6.114  22.413  0.00  0.00    +0.000 C 
BRANCH  18  19
ATOM     19  C   UNL     1       6.254  -5.093  21.285  0.00  0.00    -0.003 C 
ATOM     20  C   UNL     1       6.273  -3.672  21.825  0.00  0.00    +0.004 C 
ENDBRANCH  18  19
ENDBRANCH  17  18
ENDBRANCH  16  17
ENDBRANCH  14  16
ENDBRANCH  13  14
ENDBRANCH  12  13
ENDBRANCH  11  12
ENDBRANCH   8  11
ENDBRANCH   6   7
ENDBRANCH   5   6
ENDBRANCH   2   5
BRANCH   1  21
ATOM     21  C   UNL     1       8.911   2.086  22.593  0.00  0.00    +0.208 C 
BRANCH  21  22
ATOM     22  C   UNL     1       9.634   2.672  23.847  0.00  0.00    +0.023 C 
ATOM     23  C   UNL     1      10.739   1.731  24.373  0.00  0.00    +0.016 C 
ATOM     24  C   UNL     1       8.611   2.898  24.981  0.00  0.00    +0.016 C 
BRANCH  22  25
ATOM     25  C   UNL     1      10.265   4.048  23.509  0.00  0.00    +0.179 C 
BRANCH  25  26
ATOM     26  O   UNL     1      11.667   3.957  23.319  0.00  0.00    -0.309 OA
BRANCH  26  27
ATOM     27  P   UNL     1      12.505   5.331  23.168  0.00  0.00    +0.319 P 
ATOM     28  H   UNL     1      12.353   5.696  21.815  0.00  0.00    +0.159 HD
ATOM     29  O   UNL     1      12.277   6.246  24.333  0.00  0.00    -0.262 OA
BRANCH  27  30
ATOM     30  O   UNL     1      14.010   4.748  23.274  0.00  0.00    -0.326 OA
ATOM     31  H   UNL     1      14.636   5.491  23.379  0.00  0.00    +0.220 HD
ENDBRANCH  27  30
ENDBRANCH  26  27
ENDBRANCH  25  26
ENDBRANCH  22  25
ENDBRANCH  21  22
BRANCH  21  32
ATOM     32  O   UNL     1       9.645   2.289  21.387  0.00  0.00    -0.382 OA
ATOM     33  H   UNL     1       9.955   3.216  21.398  0.00  0.00    +0.210 HD
ENDBRANCH  21  32
ENDBRANCH   1  21
TORSDOF 18
ENDMDL
MODEL 3
REMARK VINA RESULT:      -5.0      3.014      6.615
REMARK  Name = 
REMARK  21 active torsions:
REMARK  status: ('A' for Active; 'I' for Inactive)
REMARK    1  A    between atoms: C_2  and  O_3
REMARK    2  A    between atoms: C_2  and  C_4
REMARK    3  A    between atoms: C_2  and  C_22
REMARK    4  A    between atoms: N_6  and  C_7
REMARK    5  A    between atoms: C_7  and  C_8
REMARK    6  A    between atoms: C_8  and  C_9
REMARK    7  A    between atoms: N_11  and  C_12
REMARK    8  A    between atoms: C_12  and  C_13
REMARK    9  A    between atoms: C_13  and  S_14
REMARK   10  A    between atoms: S_14  and  C_15
REMARK   11  A    between atoms: C_15  and  C_17
REMARK   12  A    between atoms: C_17  and  C_18
REMARK   13  A    between atoms: C_18  and  C_19
REMARK   14  A    between atoms: C_19  and  C_20
REMARK   15  A    between atoms: C_20  and  C_21
REMARK   16  A    between atoms: C_22  and  C_23
REMARK   17  A    between atoms: C_22  and  C_24
REMARK   18  A    between atoms: C_22  and  C_25
REMARK   19  A    between atoms: C_25  and  O_26
REMARK   20  A    between atoms: O_26  and  P_27
REMARK   21  A    between atoms: P_27  and  O_29
REMARK                            x       y       z     vdW  Elec       q    Type
REMARK                         _______ _______ _______ _____ _____    ______ ____
ROOT
ATOM      1  C   UNL     1       8.020  -2.487  22.988  0.00  0.00    +0.242 C 
ATOM      2  N   UNL     1       7.716  -2.077  24.277  0.00  0.00    -0.313 N 
ATOM      3  H   UNL     1       6.914  -2.492  24.737  0.00  0.00    +0.149 HD
ATOM      4  O   UNL     1       9.148  -2.362  22.503  0.00  0.00    -0.273 OA
ENDROOT
BRANCH   2   5
ATOM      5  C   UNL     1       8.808  -1.563  25.070  0.00  0.00    +0.113 C 
BRANCH   5   6
ATOM      6  C   UNL     1       8.445  -1.091  26.463  0.00  0.00    +0.114 C 
BRANCH   6   7
ATOM      7  C   UNL     1       7.418   0.041  26.482  0.00  0.00    +0.215 C 
ATOM      8  N   UNL     1       7.898   1.328  26.491  0.00  0.00    -0.314 N 
ATOM      9  H   UNL     1       8.867   1.519  26.705  0.00  0.00    +0.149 HD
ATOM     10  O   UNL     1       6.216  -0.213  26.460  0.00  0.00    -0.276 OA
BRANCH   8  11
ATOM     11  C   UNL     1       7.029   2.488  26.565  0.00  0.00    +0.115 C 
BRANCH  11  12
ATOM     12  C   UNL     1       7.000   3.303  25.269  0.00  0.00    +0.096 C 
BRANCH  12  13
ATOM     13  S   UNL     1       5.678   2.717  24.148  0.00  0.00    -0.087 S 
BRANCH  13  14
ATOM     14  C   UNL     1       6.641   1.681  23.093  0.00  0.00    +0.189 C 
ATOM     15  O   UNL     1       6.557   0.461  23.138  0.00  0.00    -0.285 OA
BRANCH  14  16
ATOM     16  C   UNL     1       7.601   2.433  22.191  0.00  0.00    +0.086 C 
BRANCH  16  17
ATOM     17  C   UNL     1       8.397   1.510  21.268  0.00  0.00    +0.008 C 
BRANCH  17  18
ATOM     18  C   UNL     1       9.731   1.074  21.882  0.00  0.00    +0.000 C 
BRANCH  18  19
ATOM     19  C   UNL     1      10.285   2.138  22.828  0.00  0.00    -0.003 C 
ATOM     20  C   UNL     1      10.670   1.539  24.171  0.00  0.00    +0.004 C 
ENDBRANCH  18  19
ENDBRANCH  17  18
ENDBRANCH  16  17
ENDBRANCH  14  16
ENDBRANCH  13  14
ENDBRANCH  12  13
ENDBRANCH  11  12
ENDBRANCH   8  11
ENDBRANCH   6   7
ENDBRANCH   5   6
ENDBRANCH   2   5
BRANCH   1  21
ATOM     21  C   UNL     1       6.862  -3.093  22.185  0.00  0.00    +0.208 C 
BRANCH  21  22
ATOM     22  C   UNL     1       6.573  -4.576  22.577  0.00  0.00    +0.023 C 
ATOM     23  C   UNL     1       7.749  -5.213  23.348  0.00  0.00    +0.016 C 
ATOM     24  C   UNL     1       6.321  -5.413  21.304  0.00  0.00    +0.016 C 
BRANCH  22  25
ATOM     25  C   UNL     1       5.294  -4.662  23.451  0.00  0.00    +0.179 C 
BRANCH  25  26
ATOM     26  O   UNL     1       5.531  -4.237  24.782  0.00  0.00    -0.309 OA
BRANCH  26  27
ATOM     27  P   UNL     1       4.365  -3.409  25.535  0.00  0.00    +0.319 P 
ATOM     28  H   UNL     1       3.178  -3.777  24.871  0.00  0.00    +0.159 HD
ATOM     29  O   UNL     1       4.554  -3.421  27.022  0.00  0.00    -0.262 OA
BRANCH  27  30
ATOM     30  O   UNL     1       4.696  -1.919  24.999  0.00  0.00    -0.326 OA
ATOM     31  H   UNL     1       4.142  -1.728  24.217  0.00  0.00    +0.220 HD
ENDBRANCH  27  30
ENDBRANCH  26  27
ENDBRANCH  25  26
ENDBRANCH  22  25
ENDBRANCH  21  22
BRANCH  21  32
ATOM     32  O   UNL     1       5.732  -2.242  22.371  0.00  0.00    -0.382 OA
ATOM     33  H   UNL     1       6.021  -1.336  22.148  0.00  0.00    +0.210 HD
ENDBRANCH  21  32
ENDBRANCH   1  21
TORSDOF 18
ENDMDL
MODEL 4
REMARK VINA RESULT:      -5.0      2.827      6.647
REMARK  Name = 
REMARK  21 active torsions:
REMARK  status: ('A' for Active; 'I' for Inactive)
REMARK    1  A    between atoms: C_2  and  O_3
REMARK    2  A    between atoms: C_2  and  C_4
REMARK    3  A    between atoms: C_2  and  C_22
REMARK    4  A    between atoms: N_6  and  C_7
REMARK    5  A    between atoms: C_7  and  C_8
REMARK    6  A    between atoms: C_8  and  C_9
REMARK    7  A    between atoms: N_11  and  C_12
REMARK    8  A    between atoms: C_12  and  C_13
REMARK    9  A    between atoms: C_13  and  S_14
REMARK   10  A    between atoms: S_14  and  C_15
REMARK   11  A    between atoms: C_15  and  C_17
REMARK   12  A    between atoms: C_17  and  C_18
REMARK   13  A    between atoms: C_18  and  C_19
REMARK   14  A    between atoms: C_19  and  C_20
REMARK   15  A    between atoms: C_20  and  C_21
REMARK   16  A    between atoms: C_22  and  C_23
REMARK   17  A    between atoms: C_22  and  C_24
REMARK   18  A    between atoms: C_22  and  C_25
REMARK   19  A    between atoms: C_25  and  O_26
REMARK   20  A    between atoms: O_26  and  P_27
REMARK   21  A    between atoms: P_27  and  O_29
REMARK                            x       y       z     vdW  Elec       q    Type
REMARK                         _______ _______ _______ _____ _____    ______ ____
ROOT
ATOM      1  C   UNL     1       5.757  -3.464  22.366  0.00  0.00    +0.242 C 
ATOM      2  N   UNL     1       6.860  -3.059  23.101  0.00  0.00    -0.313 N 
ATOM      3  H   UNL     1       6.993  -3.452  24.026  0.00  0.00    +0.149 HD
ATOM      4  O   UNL     1       5.711  -3.372  21.136  0.00  0.00    -0.273 OA
ENDROOT
BRANCH   2   5
ATOM      5  C   UNL     1       8.004  -2.593  22.353  0.00  0.00    +0.113 C 
BRANCH   5   6
ATOM      6  C   UNL     1       9.298  -2.474  23.132  0.00  0.00    +0.114 C 
BRANCH   6   7
ATOM      7  C   UNL     1       9.097  -2.251  24.631  0.00  0.00    +0.215 C 
ATOM      8  N   UNL     1       9.036  -0.951  25.072  0.00  0.00    -0.314 N 
ATOM      9  H   UNL     1       9.335  -0.188  24.481  0.00  0.00    +0.149 HD
ATOM     10  O   UNL     1       8.967  -3.210  25.388  0.00  0.00    -0.276 OA
BRANCH   8  11
ATOM     11  C   UNL     1       8.904  -0.606  26.475  0.00  0.00    +0.115 C 
BRANCH  11  12
ATOM     12  C   UNL     1       7.541  -0.001  26.821  0.00  0.00    +0.096 C 
BRANCH  12  13
ATOM     13  S   UNL     1       7.093   1.333  25.652  0.00  0.00    -0.087 S 
BRANCH  13  14
ATOM     14  C   UNL     1       6.380   0.356  24.367  0.00  0.00    +0.189 C 
ATOM     15  O   UNL     1       5.685  -0.621  24.611  0.00  0.00    -0.285 OA
BRANCH  14  16
ATOM     16  C   UNL     1       6.758   0.800  22.966  0.00  0.00    +0.086 C 
BRANCH  16  17
ATOM     17  C   UNL     1       7.394   2.191  22.935  0.00  0.00    +0.008 C 
BRANCH  17  18
ATOM     18  C   UNL     1       8.531   2.293  21.914  0.00  0.00    +0.000 C 
BRANCH  18  19
ATOM     19  C   UNL     1       9.735   1.451  22.334  0.00  0.00    -0.003 C 
ATOM     20  C   UNL     1      10.420   2.036  23.559  0.00  0.00    +0.004 C 
ENDBRANCH  18  19
ENDBRANCH  17  18
ENDBRANCH  16  17
ENDBRANCH  14  16
ENDBRANCH  13  14
ENDBRANCH  12  13
ENDBRANCH  11  12
ENDBRANCH   8  11
ENDBRANCH   6   7
ENDBRANCH   5   6
ENDBRANCH   2   5
BRANCH   1  21
ATOM     21  C   UNL     1       4.578  -4.020  23.176  0.00  0.00    +0.208 C 
BRANCH  21  22
ATOM     22  C   UNL     1       4.675  -5.563  23.390  0.00  0.00    +0.023 C 
ATOM     23  C   UNL     1       5.780  -6.203  22.522  0.00  0.00    +0.016 C 
ATOM     24  C   UNL     1       3.329  -6.227  23.025  0.00  0.00    +0.016 C 
BRANCH  22  25
ATOM     25  C   UNL     1       4.960  -5.882  24.881  0.00  0.00    +0.179 C 
BRANCH  25  26
ATOM     26  O   UNL     1       6.242  -5.432  25.284  0.00  0.00    -0.309 OA
BRANCH  26  27
ATOM     27  P   UNL     1       6.590  -5.440  26.863  0.00  0.00    +0.319 P 
ATOM     28  H   UNL     1       6.551  -4.083  27.245  0.00  0.00    +0.159 HD
ATOM     29  O   UNL     1       5.881  -6.551  27.578  0.00  0.00    -0.262 OA
BRANCH  27  30
ATOM     30  O   UNL     1       8.163  -5.808  26.797  0.00  0.00    -0.326 OA
ATOM     31  H   UNL     1       8.336  -6.341  25.996  0.00  0.00    +0.220 HD
ENDBRANCH  27  30
ENDBRANCH  26  27
ENDBRANCH  25  26
ENDBRANCH  22  25
ENDBRANCH  21  22
BRANCH  21  32
ATOM     32  O   UNL     1       4.531  -3.293  24.402  0.00  0.00    -0.382 OA
ATOM     33  H   UNL     1       4.641  -3.945  25.121  0.00  0.00    +0.210 HD
ENDBRANCH  21  32
ENDBRANCH   1  21
TORSDOF 18
ENDMDL
MODEL 5
REMARK VINA RESULT:      -4.9      2.130      2.734
REMARK  Name = 
REMARK  21 active torsions:
REMARK  status: ('A' for Active; 'I' for Inactive)
REMARK    1  A    between atoms: C_2  and  O_3
REMARK    2  A    between atoms: C_2  and  C_4
REMARK    3  A    between atoms: C_2  and  C_22
REMARK    4  A    between atoms: N_6  and  C_7
REMARK    5  A    between atoms: C_7  and  C_8
REMARK    6  A    between atoms: C_8  and  C_9
REMARK    7  A    between atoms: N_11  and  C_12
REMARK    8  A    between atoms: C_12  and  C_13
REMARK    9  A    between atoms: C_13  and  S_14
REMARK   10  A    between atoms: S_14  and  C_15
REMARK   11  A    between atoms: C_15  and  C_17
REMARK   12  A    between atoms: C_17  and  C_18
REMARK   13  A    between atoms: C_18  and  C_19
REMARK   14  A    between atoms: C_19  and  C_20
REMARK   15  A    between atoms: C_20  and  C_21
REMARK   16  A    between atoms: C_22  and  C_23
REMARK   17  A    between atoms: C_22  and  C_24
REMARK   18  A    between atoms: C_22  and  C_25
REMARK   19  A    between atoms: C_25  and  O_26
REMARK   20  A    between atoms: O_26  and  P_27
REMARK   21  A    between atoms: P_27  and  O_29
REMARK                            x       y       z     vdW  Elec       q    Type
REMARK                         _______ _______ _______ _____ _____    ______ ____
ROOT
ATOM      1  C   UNL     1       9.249  -2.489  24.139  0.00  0.00    +0.242 C 
ATOM      2  N   UNL     1       8.229  -3.094  24.857  0.00  0.00    -0.313 N 
ATOM      3  H   UNL     1       7.280  -2.767  24.715  0.00  0.00    +0.149 HD
ATOM      4  O   UNL     1      10.332  -3.043  23.933  0.00  0.00    -0.273 OA
ENDROOT
BRANCH   2   5
ATOM      5  C   UNL     1       8.459  -4.452  25.293  0.00  0.00    +0.113 C 
BRANCH   5   6
ATOM      6  C   UNL     1       8.331  -4.697  26.783  0.00  0.00    +0.114 C 
BRANCH   6   7
ATOM      7  C   UNL     1       7.182  -5.633  27.157  0.00  0.00    +0.215 C 
ATOM      8  N   UNL     1       6.237  -5.889  26.194  0.00  0.00    -0.314 N 
ATOM      9  H   UNL     1       6.174  -5.316  25.363  0.00  0.00    +0.149 HD
ATOM     10  O   UNL     1       7.143  -6.150  28.271  0.00  0.00    -0.276 OA
BRANCH   8  11
ATOM     11  C   UNL     1       5.070  -6.715  26.441  0.00  0.00    +0.115 C 
BRANCH  11  12
ATOM     12  C   UNL     1       3.836  -6.265  25.656  0.00  0.00    +0.096 C 
BRANCH  12  13
ATOM     13  S   UNL     1       3.748  -4.440  25.550  0.00  0.00    -0.087 S 
BRANCH  13  14
ATOM     14  C   UNL     1       4.067  -4.242  23.825  0.00  0.00    +0.189 C 
ATOM     15  O   UNL     1       3.456  -4.881  22.980  0.00  0.00    -0.285 OA
BRANCH  14  16
ATOM     16  C   UNL     1       5.188  -3.270  23.509  0.00  0.00    +0.086 C 
BRANCH  16  17
ATOM     17  C   UNL     1       5.531  -3.222  22.019  0.00  0.00    +0.008 C 
BRANCH  17  18
ATOM     18  C   UNL     1       6.955  -3.704  21.729  0.00  0.00    +0.000 C 
BRANCH  18  19
ATOM     19  C   UNL     1       7.084  -5.214  21.924  0.00  0.00    -0.003 C 
ATOM     20  C   UNL     1       6.177  -5.974  20.969  0.00  0.00    +0.004 C 
ENDBRANCH  18  19
ENDBRANCH  17  18
ENDBRANCH  16  17
ENDBRANCH  14  16
ENDBRANCH  13  14
ENDBRANCH  12  13
ENDBRANCH  11  12
ENDBRANCH   8  11
ENDBRANCH   6   7
ENDBRANCH   5   6
ENDBRANCH   2   5
BRANCH   1  21
ATOM     21  C   UNL     1       8.959  -1.072  23.626  0.00  0.00    +0.208 C 
BRANCH  21  22
ATOM     22  C   UNL     1       9.310   0.028  24.675  0.00  0.00    +0.023 C 
ATOM     23  C   UNL     1      10.746   0.566  24.495  0.00  0.00    +0.016 C 
ATOM     24  C   UNL     1       9.186  -0.551  26.101  0.00  0.00    +0.016 C 
BRANCH  22  25
ATOM     25  C   UNL     1       8.314   1.213  24.567  0.00  0.00    +0.179 C 
BRANCH  25  26
ATOM     26  O   UNL     1       8.712   2.154  23.585  0.00  0.00    -0.309 OA
BRANCH  26  27
ATOM     27  P   UNL     1       7.823   2.274  22.240  0.00  0.00    +0.319 P 
ATOM     28  H   UNL     1       6.864   1.247  22.352  0.00  0.00    +0.159 HD
ATOM     29  O   UNL     1       7.513   3.703  21.911  0.00  0.00    -0.262 OA
BRANCH  27  30
ATOM     30  O   UNL     1       8.890   1.729  21.154  0.00  0.00    -0.326 OA
ATOM     31  H   UNL     1       9.708   2.261  21.212  0.00  0.00    +0.220 HD
ENDBRANCH  27  30
ENDBRANCH  26  27
ENDBRANCH  25  26
ENDBRANCH  22  25
ENDBRANCH  21  22
BRANCH  21  32
ATOM     32  O   UNL     1       9.672  -0.916  22.400  0.00  0.00    -0.382 OA
ATOM     33  H   UNL     1       9.051  -1.146  21.682  0.00  0.00    +0.210 HD
ENDBRANCH  21  32
ENDBRANCH   1  21
TORSDOF 18
ENDMDL
MODEL 6
REMARK VINA RESULT:      -4.9      3.087      8.015
REMARK  Name = 
REMARK  21 active torsions:
REMARK  status: ('A' for Active; 'I' for Inactive)
REMARK    1  A    between atoms: C_2  and  O_3
REMARK    2  A    between atoms: C_2  and  C_4
REMARK    3  A    between atoms: C_2  and  C_22
REMARK    4  A    between atoms: N_6  and  C_7
REMARK    5  A    between atoms: C_7  and  C_8
REMARK    6  A    between atoms: C_8  and  C_9
REMARK    7  A    between atoms: N_11  and  C_12
REMARK    8  A    between atoms: C_12  and  C_13
REMARK    9  A    between atoms: C_13  and  S_14
REMARK   10  A    between atoms: S_14  and  C_15
REMARK   11  A    between atoms: C_15  and  C_17
REMARK   12  A    between atoms: C_17  and  C_18
REMARK   13  A    between atoms: C_18  and  C_19
REMARK   14  A    between atoms: C_19  and  C_20
REMARK   15  A    between atoms: C_20  and  C_21
REMARK   16  A    between atoms: C_22  and  C_23
REMARK   17  A    between atoms: C_22  and  C_24
REMARK   18  A    between atoms: C_22  and  C_25
REMARK   19  A    between atoms: C_25  and  O_26
REMARK   20  A    between atoms: O_26  and  P_27
REMARK   21  A    between atoms: P_27  and  O_29
REMARK                            x       y       z     vdW  Elec       q    Type
REMARK                         _______ _______ _______ _____ _____    ______ ____
ROOT
ATOM      1  C   UNL     1       5.408  -6.228  25.981  0.00  0.00    +0.242 C 
ATOM      2  N   UNL     1       6.581  -5.657  25.510  0.00  0.00    -0.313 N 
ATOM      3  H   UNL     1       6.551  -5.152  24.631  0.00  0.00    +0.149 HD
ATOM      4  O   UNL     1       5.238  -6.502  27.172  0.00  0.00    -0.273 OA
ENDROOT
BRANCH   2   5
ATOM      5  C   UNL     1       7.579  -5.317  26.496  0.00  0.00    +0.113 C 
BRANCH   5   6
ATOM      6  C   UNL     1       8.204  -3.944  26.354  0.00  0.00    +0.114 C 
BRANCH   6   7
ATOM      7  C   UNL     1       9.041  -3.775  25.086  0.00  0.00    +0.215 C 
ATOM      8  N   UNL     1       8.973  -2.562  24.444  0.00  0.00    -0.314 N 
ATOM      9  H   UNL     1       8.242  -1.899  24.661  0.00  0.00    +0.149 HD
ATOM     10  O   UNL     1       9.760  -4.689  24.693  0.00  0.00    -0.276 OA
BRANCH   8  11
ATOM     11  C   UNL     1       9.675  -2.294  23.202  0.00  0.00    +0.115 C 
BRANCH  11  12
ATOM     12  C   UNL     1       8.889  -1.389  22.250  0.00  0.00    +0.096 C 
BRANCH  12  13
ATOM     13  S   UNL     1       9.708   0.235  22.053  0.00  0.00    -0.087 S 
BRANCH  13  14
ATOM     14  C   UNL     1       9.198   0.994  23.562  0.00  0.00    +0.189 C 
ATOM     15  O   UNL     1       8.219   0.600  24.182  0.00  0.00    -0.285 OA
BRANCH  14  16
ATOM     16  C   UNL     1      10.037   2.190  23.971  0.00  0.00    +0.086 C 
BRANCH  16  17
ATOM     17  C   UNL     1       9.395   3.525  23.589  0.00  0.00    +0.008 C 
BRANCH  17  18
ATOM     18  C   UNL     1       8.815   4.264  24.799  0.00  0.00    +0.000 C 
BRANCH  18  19
ATOM     19  C   UNL     1       9.158   5.752  24.761  0.00  0.00    -0.003 C 
ATOM     20  C   UNL     1      10.179   6.057  23.676  0.00  0.00    +0.004 C 
ENDBRANCH  18  19
ENDBRANCH  17  18
ENDBRANCH  16  17
ENDBRANCH  14  16
ENDBRANCH  13  14
ENDBRANCH  12  13
ENDBRANCH  11  12
ENDBRANCH   8  11
ENDBRANCH   6   7
ENDBRANCH   5   6
ENDBRANCH   2   5
BRANCH   1  21
ATOM     21  C   UNL     1       4.333  -6.519  24.926  0.00  0.00    +0.208 C 
BRANCH  21  22
ATOM     22  C   UNL     1       3.642  -5.221  24.401  0.00  0.00    +0.023 C 
ATOM     23  C   UNL     1       3.903  -4.011  25.323  0.00  0.00    +0.016 C 
ATOM     24  C   UNL     1       2.117  -5.441  24.311  0.00  0.00    +0.016 C 
BRANCH  22  25
ATOM     25  C   UNL     1       4.148  -4.883  22.974  0.00  0.00    +0.179 C 
BRANCH  25  26
ATOM     26  O   UNL     1       5.496  -4.446  22.978  0.00  0.00    -0.309 OA
BRANCH  26  27
ATOM     27  P   UNL     1       6.509  -5.093  21.897  0.00  0.00    +0.319 P 
ATOM     28  H   UNL     1       6.722  -4.072  20.950  0.00  0.00    +0.159 HD
ATOM     29  O   UNL     1       7.595  -5.883  22.565  0.00  0.00    -0.262 OA
BRANCH  27  30
ATOM     30  O   UNL     1       5.508  -6.133  21.169  0.00  0.00    -0.326 OA
ATOM     31  H   UNL     1       5.455  -5.918  20.217  0.00  0.00    +0.220 HD
ENDBRANCH  27  30
ENDBRANCH  26  27
ENDBRANCH  25  26
ENDBRANCH  22  25
ENDBRANCH  21  22
BRANCH  21  32
ATOM     32  O   UNL     1       4.956  -7.273  23.888  0.00  0.00    -0.382 OA
ATOM     33  H   UNL     1       4.296  -7.367  23.173  0.00  0.00    +0.210 HD
ENDBRANCH  21  32
ENDBRANCH   1  21
TORSDOF 18
ENDMDL
MODEL 7
REMARK VINA RESULT:      -4.8      3.547      5.577
REMARK  Name = 
REMARK  21 active torsions:
REMARK  status: ('A' for Active; 'I' for Inactive)
REMARK    1  A    between atoms: C_2  and  O_3
REMARK    2  A    between atoms: C_2  and  C_4
REMARK    3  A    between atoms: C_2  and  C_22
REMARK    4  A    between atoms: N_6  and  C_7
REMARK    5  A    between atoms: C_7  and  C_8
REMARK    6  A    between atoms: C_8  and  C_9
REMARK    7  A    between atoms: N_11  and  C_12
REMARK    8  A    between atoms: C_12  and  C_13
REMARK    9  A    between atoms: C_13  and  S_14
REMARK   10  A    between atoms: S_14  and  C_15
REMARK   11  A    between atoms: C_15  and  C_17
REMARK   12  A    between atoms: C_17  and  C_18
REMARK   13  A    between atoms: C_18  and  C_19
REMARK   14  A    between atoms: C_19  and  C_20
REMARK   15  A    between atoms: C_20  and  C_21
REMARK   16  A    between atoms: C_22  and  C_23
REMARK   17  A    between atoms: C_22  and  C_24
REMARK   18  A    between atoms: C_22  and  C_25
REMARK   19  A    between atoms: C_25  and  O_26
REMARK   20  A    between atoms: O_26  and  P_27
REMARK   21  A    between atoms: P_27  and  O_29
REMARK                            x       y       z     vdW  Elec       q    Type
REMARK                         _______ _______ _______ _____ _____    ______ ____
ROOT
ATOM      1  C   UNL     1       7.949   2.705  22.217  0.00  0.00    +0.242 C 
ATOM      2  N   UNL     1       9.215   3.158  22.553  0.00  0.00    -0.313 N 
ATOM      3  H   UNL     1       9.292   3.999  23.115  0.00  0.00    +0.149 HD
ATOM      4  O   UNL     1       7.729   1.532  21.900  0.00  0.00    -0.273 OA
ENDROOT
BRANCH   2   5
ATOM      5  C   UNL     1      10.269   2.171  22.597  0.00  0.00    +0.113 C 
BRANCH   5   6
ATOM      6  C   UNL     1      10.554   1.572  23.959  0.00  0.00    +0.114 C 
BRANCH   6   7
ATOM      7  C   UNL     1      10.183   0.094  24.073  0.00  0.00    +0.215 C 
ATOM      8  N   UNL     1       9.947  -0.589  22.904  0.00  0.00    -0.314 N 
ATOM      9  H   UNL     1       9.800  -0.094  22.034  0.00  0.00    +0.149 HD
ATOM     10  O   UNL     1      10.134  -0.450  25.174  0.00  0.00    -0.276 OA
BRANCH   8  11
ATOM     11  C   UNL     1       9.533  -1.980  22.879  0.00  0.00    +0.115 C 
BRANCH  11  12
ATOM     12  C   UNL     1       8.090  -2.170  22.406  0.00  0.00    +0.096 C 
BRANCH  12  13
ATOM     13  S   UNL     1       6.900  -1.815  23.749  0.00  0.00    -0.087 S 
BRANCH  13  14
ATOM     14  C   UNL     1       7.383  -3.069  24.894  0.00  0.00    +0.189 C 
ATOM     15  O   UNL     1       7.955  -2.798  25.941  0.00  0.00    -0.285 OA
BRANCH  14  16
ATOM     16  C   UNL     1       7.080  -4.481  24.431  0.00  0.00    +0.086 C 
BRANCH  16  17
ATOM     17  C   UNL     1       5.581  -4.784  24.386  0.00  0.00    +0.008 C 
BRANCH  17  18
ATOM     18  C   UNL     1       5.196  -5.664  23.193  0.00  0.00    +0.000 C 
BRANCH  18  19
ATOM     19  C   UNL     1       6.422  -6.056  22.370  0.00  0.00    -0.003 C 
ATOM     20  C   UNL     1       6.254  -5.668  20.909  0.00  0.00    +0.004 C 
ENDBRANCH  18  19
ENDBRANCH  17  18
ENDBRANCH  16  17
ENDBRANCH  14  16
ENDBRANCH  13  14
ENDBRANCH  12  13
ENDBRANCH  11  12
ENDBRANCH   8  11
ENDBRANCH   6   7
ENDBRANCH   5   6
ENDBRANCH   2   5
BRANCH   1  21
ATOM     21  C   UNL     1       6.831   3.755  22.243  0.00  0.00    +0.208 C 
BRANCH  21  22
ATOM     22  C   UNL     1       6.286   4.014  23.682  0.00  0.00    +0.023 C 
ATOM     23  C   UNL     1       6.670   2.883  24.661  0.00  0.00    +0.016 C 
ATOM     24  C   UNL     1       4.746   4.120  23.647  0.00  0.00    +0.016 C 
BRANCH  22  25
ATOM     25  C   UNL     1       6.832   5.359  24.230  0.00  0.00    +0.179 C 
BRANCH  25  26
ATOM     26  O   UNL     1       8.204   5.274  24.573  0.00  0.00    -0.309 OA
BRANCH  26  27
ATOM     27  P   UNL     1       9.144   6.556  24.276  0.00  0.00    +0.319 P 
ATOM     28  H   UNL     1       8.246   7.582  23.918  0.00  0.00    +0.159 HD
ATOM     29  O   UNL     1      10.233   6.688  25.297  0.00  0.00    -0.262 OA
BRANCH  27  30
ATOM     30  O   UNL     1       9.816   6.088  22.882  0.00  0.00    -0.326 OA
ATOM     31  H   UNL     1       9.415   6.590  22.146  0.00  0.00    +0.220 HD
ENDBRANCH  27  30
ENDBRANCH  26  27
ENDBRANCH  25  26
ENDBRANCH  22  25
ENDBRANCH  21  22
BRANCH  21  32
ATOM     32  O   UNL     1       7.347   4.933  21.626  0.00  0.00    -0.382 OA
ATOM     33  H   UNL     1       8.320   4.886  21.699  0.00  0.00    +0.210 HD
ENDBRANCH  21  32
ENDBRANCH   1  21
TORSDOF 18
ENDMDL
MODEL 8
REMARK VINA RESULT:      -4.8      2.761      6.348
REMARK  Name = 
REMARK  21 active torsions:
REMARK  status: ('A' for Active; 'I' for Inactive)
REMARK    1  A    between atoms: C_2  and  O_3
REMARK    2  A    between atoms: C_2  and  C_4
REMARK    3  A    between atoms: C_2  and  C_22
REMARK    4  A    between atoms: N_6  and  C_7
REMARK    5  A    between atoms: C_7  and  C_8
REMARK    6  A    between atoms: C_8  and  C_9
REMARK    7  A    between atoms: N_11  and  C_12
REMARK    8  A    between atoms: C_12  and  C_13
REMARK    9  A    between atoms: C_13  and  S_14
REMARK   10  A    between atoms: S_14  and  C_15
REMARK   11  A    between atoms: C_15  and  C_17
REMARK   12  A    between atoms: C_17  and  C_18
REMARK   13  A    between atoms: C_18  and  C_19
REMARK   14  A    between atoms: C_19  and  C_20
REMARK   15  A    between atoms: C_20  and  C_21
REMARK   16  A    between atoms: C_22  and  C_23
REMARK   17  A    between atoms: C_22  and  C_24
REMARK   18  A    between atoms: C_22  and  C_25
REMARK   19  A    between atoms: C_25  and  O_26
REMARK   20  A    between atoms: O_26  and  P_27
REMARK   21  A    between atoms: P_27  and  O_29
REMARK                            x       y       z     vdW  Elec       q    Type
REMARK                         _______ _______ _______ _____ _____    ______ ____
ROOT
ATOM      1  C   UNL     1       4.257  -6.157  23.003  0.00  0.00    +0.242 C 
ATOM      2  N   UNL     1       4.631  -6.948  24.079  0.00  0.00    -0.313 N 
ATOM      3  H   UNL     1       5.564  -6.835  24.457  0.00  0.00    +0.149 HD
ATOM      4  O   UNL     1       3.075  -5.925  22.731  0.00  0.00    -0.273 OA
ENDROOT
BRANCH   2   5
ATOM      5  C   UNL     1       3.569  -7.430  24.930  0.00  0.00    +0.113 C 
BRANCH   5   6
ATOM      6  C   UNL     1       3.380  -6.685  26.236  0.00  0.00    +0.114 C 
BRANCH   6   7
ATOM      7  C   UNL     1       4.639  -5.969  26.725  0.00  0.00    +0.215 C 
ATOM      8  N   UNL     1       4.532  -4.630  27.012  0.00  0.00    -0.314 N 
ATOM      9  H   UNL     1       3.732  -4.094  26.701  0.00  0.00    +0.149 HD
ATOM     10  O   UNL     1       5.686  -6.593  26.876  0.00  0.00    -0.276 OA
BRANCH   8  11
ATOM     11  C   UNL     1       5.664  -3.825  27.430  0.00  0.00    +0.115 C 
BRANCH  11  12
ATOM     12  C   UNL     1       5.472  -2.330  27.164  0.00  0.00    +0.096 C 
BRANCH  12  13
ATOM     13  S   UNL     1       7.040  -1.542  26.647  0.00  0.00    -0.087 S 
BRANCH  13  14
ATOM     14  C   UNL     1       6.474  -0.711  25.197  0.00  0.00    +0.189 C 
ATOM     15  O   UNL     1       5.317  -0.329  25.084  0.00  0.00    -0.285 OA
BRANCH  14  16
ATOM     16  C   UNL     1       7.523  -0.576  24.109  0.00  0.00    +0.086 C 
BRANCH  16  17
ATOM     17  C   UNL     1       8.829  -1.294  24.450  0.00  0.00    +0.008 C 
BRANCH  17  18
ATOM     18  C   UNL     1      10.053  -0.383  24.313  0.00  0.00    +0.000 C 
BRANCH  18  19
ATOM     19  C   UNL     1       9.715   1.063  24.674  0.00  0.00    -0.003 C 
ATOM     20  C   UNL     1      10.403   2.042  23.736  0.00  0.00    +0.004 C 
ENDBRANCH  18  19
ENDBRANCH  17  18
ENDBRANCH  16  17
ENDBRANCH  14  16
ENDBRANCH  13  14
ENDBRANCH  12  13
ENDBRANCH  11  12
ENDBRANCH   8  11
ENDBRANCH   6   7
ENDBRANCH   5   6
ENDBRANCH   2   5
BRANCH   1  21
ATOM     21  C   UNL     1       5.404  -5.597  22.151  0.00  0.00    +0.208 C 
BRANCH  21  22
ATOM     22  C   UNL     1       5.913  -4.215  22.666  0.00  0.00    +0.023 C 
ATOM     23  C   UNL     1       4.991  -3.625  23.755  0.00  0.00    +0.016 C 
ATOM     24  C   UNL     1       5.979  -3.212  21.494  0.00  0.00    +0.016 C 
BRANCH  22  25
ATOM     25  C   UNL     1       7.347  -4.351  23.243  0.00  0.00    +0.179 C 
BRANCH  25  26
ATOM     26  O   UNL     1       7.363  -5.078  24.459  0.00  0.00    -0.309 OA
BRANCH  26  27
ATOM     27  P   UNL     1       8.786  -5.623  25.001  0.00  0.00    +0.319 P 
ATOM     28  H   UNL     1       8.873  -6.943  24.513  0.00  0.00    +0.159 HD
ATOM     29  O   UNL     1       9.860  -4.586  24.865  0.00  0.00    -0.262 OA
BRANCH  27  30
ATOM     30  O   UNL     1       8.439  -5.783  26.572  0.00  0.00    -0.326 OA
ATOM     31  H   UNL     1       8.933  -6.544  26.935  0.00  0.00    +0.220 HD
ENDBRANCH  27  30
ENDBRANCH  26  27
ENDBRANCH  25  26
ENDBRANCH  22  25
ENDBRANCH  21  22
BRANCH  21  32
ATOM     32  O   UNL     1       6.429  -6.589  22.123  0.00  0.00    -0.382 OA
ATOM     33  H   UNL     1       6.185  -7.266  22.784  0.00  0.00    +0.210 HD
ENDBRANCH  21  32
ENDBRANCH   1  21
TORSDOF 18
ENDMDL
MODEL 9
REMARK VINA RESULT:      -4.8      3.294      4.798
REMARK  Name = 
REMARK  21 active torsions:
REMARK  status: ('A' for Active; 'I' for Inactive)
REMARK    1  A    between atoms: C_2  and  O_3
REMARK    2  A    between atoms: C_2  and  C_4
REMARK    3  A    between atoms: C_2  and  C_22
REMARK    4  A    between atoms: N_6  and  C_7
REMARK    5  A    between atoms: C_7  and  C_8
REMARK    6  A    between atoms: C_8  and  C_9
REMARK    7  A    between atoms: N_11  and  C_12
REMARK    8  A    between atoms: C_12  and  C_13
REMARK    9  A    between atoms: C_13  and  S_14
REMARK   10  A    between atoms: S_14  and  C_15
REMARK   11  A    between atoms: C_15  and  C_17
REMARK   12  A    between atoms: C_17  and  C_18
REMARK   13  A    between atoms: C_18  and  C_19
REMARK   14  A    between atoms: C_19  and  C_20
REMARK   15  A    between atoms: C_20  and  C_21
REMARK   16  A    between atoms: C_22  and  C_23
REMARK   17  A    between atoms: C_22  and  C_24
REMARK   18  A    between atoms: C_22  and  C_25
REMARK   19  A    between atoms: C_25  and  O_26
REMARK   20  A    between atoms: O_26  and  P_27
REMARK   21  A    between atoms: P_27  and  O_29
REMARK                            x       y       z     vdW  Elec       q    Type
REMARK                         _______ _______ _______ _____ _____    ______ ____
ROOT
ATOM      1  C   UNL     1       7.946   1.199  22.517  0.00  0.00    +0.242 C 
ATOM      2  N   UNL     1       8.408  -0.104  22.625  0.00  0.00    -0.313 N 
ATOM      3  H   UNL     1       9.343  -0.255  22.986  0.00  0.00    +0.149 HD
ATOM      4  O   UNL     1       6.744   1.474  22.479  0.00  0.00    -0.273 OA
ENDROOT
BRANCH   2   5
ATOM      5  C   UNL     1       7.409  -1.136  22.776  0.00  0.00    +0.113 C 
BRANCH   5   6
ATOM      6  C   UNL     1       7.848  -2.538  22.404  0.00  0.00    +0.114 C 
BRANCH   6   7
ATOM      7  C   UNL     1       6.696  -3.536  22.294  0.00  0.00    +0.215 C 
ATOM      8  N   UNL     1       6.849  -4.747  22.925  0.00  0.00    -0.314 N 
ATOM      9  H   UNL     1       7.756  -5.053  23.250  0.00  0.00    +0.149 HD
ATOM     10  O   UNL     1       5.672  -3.236  21.686  0.00  0.00    -0.276 OA
BRANCH   8  11
ATOM     11  C   UNL     1       5.854  -5.800  22.850  0.00  0.00    +0.115 C 
BRANCH  11  12
ATOM     12  C   UNL     1       4.631  -5.537  23.732  0.00  0.00    +0.096 C 
BRANCH  12  13
ATOM     13  S   UNL     1       4.646  -6.601  25.221  0.00  0.00    -0.087 S 
BRANCH  13  14
ATOM     14  C   UNL     1       4.659  -5.348  26.464  0.00  0.00    +0.189 C 
ATOM     15  O   UNL     1       4.468  -5.611  27.643  0.00  0.00    -0.285 OA
BRANCH  14  16
ATOM     16  C   UNL     1       4.863  -3.944  25.928  0.00  0.00    +0.086 C 
BRANCH  16  17
ATOM     17  C   UNL     1       6.042  -3.223  26.585  0.00  0.00    +0.008 C 
BRANCH  17  18
ATOM     18  C   UNL     1       7.363  -3.977  26.408  0.00  0.00    +0.000 C 
BRANCH  18  19
ATOM     19  C   UNL     1       8.514  -3.022  26.096  0.00  0.00    -0.003 C 
ATOM     20  C   UNL     1       8.145  -1.585  26.427  0.00  0.00    +0.004 C 
ENDBRANCH  18  19
ENDBRANCH  17  18
ENDBRANCH  16  17
ENDBRANCH  14  16
ENDBRANCH  13  14
ENDBRANCH  12  13
ENDBRANCH  11  12
ENDBRANCH   8  11
ENDBRANCH   6   7
ENDBRANCH   5   6
ENDBRANCH   2   5
BRANCH   1  21
ATOM     21  C   UNL     1       9.024   2.287  22.427  0.00  0.00    +0.208 C 
BRANCH  21  22
ATOM     22  C   UNL     1       9.699   2.577  23.805  0.00  0.00    +0.023 C 
ATOM     23  C   UNL     1      10.781   1.532  24.153  0.00  0.00    +0.016 C 
ATOM     24  C   UNL     1       8.633   2.560  24.922  0.00  0.00    +0.016 C 
BRANCH  22  25
ATOM     25  C   UNL     1      10.345   3.987  23.800  0.00  0.00    +0.179 C 
BRANCH  25  26
ATOM     26  O   UNL     1      11.671   3.962  23.301  0.00  0.00    -0.309 OA
BRANCH  26  27
ATOM     27  P   UNL     1      12.476   5.361  23.205  0.00  0.00    +0.319 P 
ATOM     28  H   UNL     1      12.274   5.800  21.881  0.00  0.00    +0.159 HD
ATOM     29  O   UNL     1      12.264   6.202  24.428  0.00  0.00    -0.262 OA
BRANCH  27  30
ATOM     30  O   UNL     1      13.995   4.808  23.233  0.00  0.00    -0.326 OA
ATOM     31  H   UNL     1      14.053   4.057  23.856  0.00  0.00    +0.220 HD
ENDBRANCH  27  30
ENDBRANCH  26  27
ENDBRANCH  25  26
ENDBRANCH  22  25
ENDBRANCH  21  22
BRANCH  21  32
ATOM     32  O   UNL     1       9.957   1.873  21.431  0.00  0.00    -0.382 OA
ATOM     33  H   UNL     1      10.840   2.163  21.733  0.00  0.00    +0.210 HD
ENDBRANCH  21  32
ENDBRANCH   1  21
TORSDOF 18
ENDMDL
