MODEL 1
REMARK VINA RESULT:      -5.5      0.000      0.000
REMARK  Name = 
REMARK  5 active torsions:
REMARK  status: ('A' for Active; 'I' for Inactive)
REMARK    1  A    between atoms: N_1  and  CA_2
REMARK    2  A    between atoms: CA_2  and  C_4
REMARK    3  A    between atoms: CA_2  and  C_13
REMARK    4  A    between atoms: C_4  and  N_5
REMARK    5  A    between atoms: C_13  and  O_14
REMARK                            x       y       z     vdW  Elec       q    Type
REMARK                         _______ _______ _______ _____ _____    ______ ____
ROOT
ATOM      1  C   UNL     1       8.889  -3.709  24.380  0.00  0.00    +0.156 C 
ENDROOT
BRANCH   1   2
ATOM      2  N   UNL     1       9.246  -2.284  24.505  0.00  0.00    -0.298 N 
ATOM      3  C   UNL     1      10.065  -1.702  23.547  0.00  0.00    +0.329 A 
ATOM      4  O   UNL     1      10.477  -2.299  22.554  0.00  0.00    -0.246 OA
ATOM      5  N   UNL     1      10.351  -0.375  23.733  0.00  0.00    -0.275 N 
ATOM      6  H   UNL     1      10.910   0.075  23.026  0.00  0.00    +0.173 HD
ATOM      7  C   UNL     1       9.790   0.434  24.677  0.00  0.00    +0.254 A 
ATOM      8  O   UNL     1       9.959   1.647  24.701  0.00  0.00    -0.268 OA
ATOM      9  C   UNL     1       8.943  -0.238  25.674  0.00  0.00    +0.088 A 
ATOM     10  C   UNL     1       8.718  -1.546  25.549  0.00  0.00    +0.096 A 
ENDBRANCH   1   2
BRANCH   1  11
ATOM     11  CA  UNL     1       9.205  -4.557  25.632  0.00  0.00    +0.181 C 
BRANCH  11  12
ATOM     12  N   UNL     1      10.298  -5.568  25.448  0.00  0.00    -0.317 NA
ATOM     13  H1  UNL     1       9.879  -6.504  25.519  0.00  0.00    +0.119 HD
ATOM     14  H2  UNL     1      10.564  -5.546  24.456  0.00  0.00    +0.119 HD
ENDBRANCH  11  12
BRANCH  11  15
ATOM     15  C   UNL     1       7.940  -5.282  26.109  0.00  0.00    +0.323 C 
ATOM     16  OXT UNL     1       6.912  -5.401  25.463  0.00  0.00    -0.249 OA
BRANCH  15  17
ATOM     17  O   UNL     1       8.099  -5.789  27.360  0.00  0.00    -0.479 OA
ATOM     18  H   UNL     1       9.013  -5.525  27.641  0.00  0.00    +0.295 HD
ENDBRANCH  15  17
ENDBRANCH  11  15
ENDBRANCH   1  11
TORSDOF 5
ENDMDL
MODEL 2
REMARK VINA RESULT:      -5.4      2.436      5.306
REMARK  Name = 
REMARK  5 active torsions:
REMARK  status: ('A' for Active; 'I' for Inactive)
REMARK    1  A    between atoms: N_1  and  CA_2
REMARK    2  A    between atoms: CA_2  and  C_4
REMARK    3  A    between atoms: CA_2  and  C_13
REMARK    4  A    between atoms: C_4  and  N_5
REMARK    5  A    between atoms: C_13  and  O_14
REMARK                            x       y       z     vdW  Elec       q    Type
REMARK                         _______ _______ _______ _____ _____    ______ ____
ROOT
ATOM      1  C   UNL     1       7.910  -3.834  23.279  0.00  0.00    +0.156 C 
ENDROOT
BRANCH   1   2
ATOM      2  N   UNL     1       7.706  -4.501  24.577  0.00  0.00    -0.298 N 
ATOM      3  C   UNL     1       8.795  -5.054  25.237  0.00  0.00    +0.329 A 
ATOM      4  O   UNL     1       9.950  -4.975  24.822  0.00  0.00    -0.246 OA
ATOM      5  N   UNL     1       8.524  -5.655  26.438  0.00  0.00    -0.275 N 
ATOM      6  H   UNL     1       9.308  -6.026  26.950  0.00  0.00    +0.173 HD
ATOM      7  C   UNL     1       7.325  -5.625  27.089  0.00  0.00    +0.254 A 
ATOM      8  O   UNL     1       7.177  -6.042  28.231  0.00  0.00    -0.268 OA
ATOM      9  C   UNL     1       6.203  -5.042  26.338  0.00  0.00    +0.088 A 
ATOM     10  C   UNL     1       6.439  -4.520  25.133  0.00  0.00    +0.096 A 
ENDBRANCH   1   2
BRANCH   1  11
ATOM     11  CA  UNL     1       8.116  -2.306  23.372  0.00  0.00    +0.181 C 
BRANCH  11  12
ATOM     12  N   UNL     1       6.975  -1.483  22.852  0.00  0.00    -0.317 NA
ATOM     13  H1  UNL     1       6.928  -0.620  23.408  0.00  0.00    +0.119 HD
ATOM     14  H2  UNL     1       7.264  -1.113  21.937  0.00  0.00    +0.119 HD
ENDBRANCH  11  12
BRANCH  11  15
ATOM     15  C   UNL     1       9.394  -1.902  22.625  0.00  0.00    +0.323 C 
ATOM     16  OXT UNL     1       9.448  -1.096  21.710  0.00  0.00    -0.249 OA
BRANCH  15  17
ATOM     17  O   UNL     1      10.482  -2.555  23.111  0.00  0.00    -0.479 OA
ATOM     18  H   UNL     1      11.048  -2.753  22.321  0.00  0.00    +0.295 HD
ENDBRANCH  15  17
ENDBRANCH  11  15
ENDBRANCH   1  11
TORSDOF 5
ENDMDL
MODEL 3
REMARK VINA RESULT:      -5.4      2.023      2.297
REMARK  Name = 
REMARK  5 active torsions:
REMARK  status: ('A' for Active; 'I' for Inactive)
REMARK    1  A    between atoms: N_1  and  CA_2
REMARK    2  A    between atoms: CA_2  and  C_4
REMARK    3  A    between atoms: CA_2  and  C_13
REMARK    4  A    between atoms: C_4  and  N_5
REMARK    5  A    between atoms: C_13  and  O_14
REMARK                            x       y       z     vdW  Elec       q    Type
REMARK                         _______ _______ _______ _____ _____    ______ ____
ROOT
ATOM      1  C   UNL     1       8.256  -4.375  24.287  0.00  0.00    +0.156 C 
ENDROOT
BRANCH   1   2
ATOM      2  N   UNL     1       8.722  -3.213  23.510  0.00  0.00    -0.298 N 
ATOM      3  C   UNL     1       7.965  -2.765  22.435  0.00  0.00    +0.329 A 
ATOM      4  O   UNL     1       6.883  -3.256  22.118  0.00  0.00    -0.246 OA
ATOM      5  N   UNL     1       8.465  -1.681  21.763  0.00  0.00    -0.275 N 
ATOM      6  H   UNL     1       7.908  -1.318  21.006  0.00  0.00    +0.173 HD
ATOM      7  C   UNL     1       9.542  -0.936  22.146  0.00  0.00    +0.254 A 
ATOM      8  O   UNL     1       9.851   0.116  21.600  0.00  0.00    -0.268 OA
ATOM      9  C   UNL     1      10.315  -1.464  23.280  0.00  0.00    +0.088 A 
ATOM     10  C   UNL     1       9.880  -2.564  23.897  0.00  0.00    +0.096 A 
ENDBRANCH   1   2
BRANCH   1  11
ATOM     11  CA  UNL     1       9.027  -4.611  25.605  0.00  0.00    +0.181 C 
BRANCH  11  12
ATOM     12  N   UNL     1       9.981  -5.768  25.579  0.00  0.00    -0.317 NA
ATOM     13  H1  UNL     1       9.453  -6.620  25.810  0.00  0.00    +0.119 HD
ATOM     14  H2  UNL     1      10.214  -5.943  24.593  0.00  0.00    +0.119 HD
ENDBRANCH  11  12
BRANCH  11  15
ATOM     15  C   UNL     1       8.041  -4.813  26.762  0.00  0.00    +0.323 C 
ATOM     16  OXT UNL     1       7.321  -3.946  27.231  0.00  0.00    -0.249 OA
BRANCH  15  17
ATOM     17  O   UNL     1       8.059  -6.094  27.214  0.00  0.00    -0.479 OA
ATOM     18  H   UNL     1       8.152  -6.028  28.200  0.00  0.00    +0.295 HD
ENDBRANCH  15  17
ENDBRANCH  11  15
ENDBRANCH   1  11
TORSDOF 5
ENDMDL
MODEL 4
REMARK VINA RESULT:      -5.2      2.605      3.306
REMARK  Name = 
REMARK  5 active torsions:
REMARK  status: ('A' for Active; 'I' for Inactive)
REMARK    1  A    between atoms: N_1  and  CA_2
REMARK    2  A    between atoms: CA_2  and  C_4
REMARK    3  A    between atoms: CA_2  and  C_13
REMARK    4  A    between atoms: C_4  and  N_5
REMARK    5  A    between atoms: C_13  and  O_14
REMARK                            x       y       z     vdW  Elec       q    Type
REMARK                         _______ _______ _______ _____ _____    ______ ____
ROOT
ATOM      1  C   UNL     1      10.219  -1.779  22.640  0.00  0.00    +0.156 C 
ENDROOT
BRANCH   1   2
ATOM      2  N   UNL     1      10.244  -0.312  22.782  0.00  0.00    -0.298 N 
ATOM      3  C   UNL     1       9.733   0.480  21.762  0.00  0.00    +0.329 A 
ATOM      4  O   UNL     1       9.203   0.022  20.752  0.00  0.00    -0.246 OA
ATOM      5  N   UNL     1       9.793   1.832  21.969  0.00  0.00    -0.275 N 
ATOM      6  H   UNL     1       9.389   2.421  21.258  0.00  0.00    +0.173 HD
ATOM      7  C   UNL     1      10.170   2.443  23.130  0.00  0.00    +0.254 A 
ATOM      8  O   UNL     1      10.055   3.648  23.316  0.00  0.00    -0.268 OA
ATOM      9  C   UNL     1      10.718   1.558  24.170  0.00  0.00    +0.088 A 
ATOM     10  C   UNL     1      10.736   0.243  23.950  0.00  0.00    +0.096 A 
ENDBRANCH   1   2
BRANCH   1  11
ATOM     11  CA  UNL     1       9.265  -2.498  23.620  0.00  0.00    +0.181 C 
BRANCH  11  12
ATOM     12  N   UNL     1       9.886  -3.622  24.394  0.00  0.00    -0.317 NA
ATOM     13  H1  UNL     1       9.436  -4.498  24.098  0.00  0.00    +0.119 HD
ATOM     14  H2  UNL     1      10.835  -3.754  24.022  0.00  0.00    +0.119 HD
ENDBRANCH  11  12
BRANCH  11  15
ATOM     15  C   UNL     1       8.044  -3.037  22.864  0.00  0.00    +0.323 C 
ATOM     16  OXT UNL     1       7.669  -4.199  22.872  0.00  0.00    -0.249 OA
BRANCH  15  17
ATOM     17  O   UNL     1       7.413  -2.054  22.171  0.00  0.00    -0.479 OA
ATOM     18  H   UNL     1       8.120  -1.609  21.636  0.00  0.00    +0.295 HD
ENDBRANCH  15  17
ENDBRANCH  11  15
ENDBRANCH   1  11
TORSDOF 5
ENDMDL
MODEL 5
REMARK VINA RESULT:      -5.2      1.862      2.396
REMARK  Name = 
REMARK  5 active torsions:
REMARK  status: ('A' for Active; 'I' for Inactive)
REMARK    1  A    between atoms: N_1  and  CA_2
REMARK    2  A    between atoms: CA_2  and  C_4
REMARK    3  A    between atoms: CA_2  and  C_13
REMARK    4  A    between atoms: C_4  and  N_5
REMARK    5  A    between atoms: C_13  and  O_14
REMARK                            x       y       z     vdW  Elec       q    Type
REMARK                         _______ _______ _______ _____ _____    ______ ____
ROOT
ATOM      1  C   UNL     1       8.039  -2.832  24.784  0.00  0.00    +0.156 C 
ENDROOT
BRANCH   1   2
ATOM      2  N   UNL     1       8.853  -1.614  24.628  0.00  0.00    -0.298 N 
ATOM      3  C   UNL     1       9.114  -0.823  25.739  0.00  0.00    +0.329 A 
ATOM      4  O   UNL     1       8.743  -1.108  26.876  0.00  0.00    -0.246 OA
ATOM      5  N   UNL     1       9.877   0.292  25.512  0.00  0.00    -0.275 N 
ATOM      6  H   UNL     1      10.111   0.856  26.314  0.00  0.00    +0.173 HD
ATOM      7  C   UNL     1      10.508   0.598  24.342  0.00  0.00    +0.254 A 
ATOM      8  O   UNL     1      11.307   1.521  24.237  0.00  0.00    -0.268 OA
ATOM      9  C   UNL     1      10.185  -0.264  23.195  0.00  0.00    +0.088 A 
ATOM     10  C   UNL     1       9.380  -1.311  23.386  0.00  0.00    +0.096 A 
ENDBRANCH   1   2
BRANCH   1  11
ATOM     11  CA  UNL     1       8.782  -4.144  24.449  0.00  0.00    +0.181 C 
BRANCH  11  12
ATOM     12  N   UNL     1       7.943  -5.191  23.780  0.00  0.00    -0.317 NA
ATOM     13  H1  UNL     1       6.979  -5.093  24.123  0.00  0.00    +0.119 HD
ATOM     14  H2  UNL     1       7.834  -4.906  22.798  0.00  0.00    +0.119 HD
ENDBRANCH  11  12
BRANCH  11  15
ATOM     15  C   UNL     1       9.392  -4.743  25.723  0.00  0.00    +0.323 C 
ATOM     16  OXT UNL     1       9.042  -4.478  26.862  0.00  0.00    -0.249 OA
BRANCH  15  17
ATOM     17  O   UNL     1      10.386  -5.622  25.433  0.00  0.00    -0.479 OA
ATOM     18  H   UNL     1      10.458  -5.627  24.443  0.00  0.00    +0.295 HD
ENDBRANCH  15  17
ENDBRANCH  11  15
ENDBRANCH   1  11
TORSDOF 5
ENDMDL
MODEL 6
REMARK VINA RESULT:      -5.2      3.200      5.245
REMARK  Name = 
REMARK  5 active torsions:
REMARK  status: ('A' for Active; 'I' for Inactive)
REMARK    1  A    between atoms: N_1  and  CA_2
REMARK    2  A    between atoms: CA_2  and  C_4
REMARK    3  A    between atoms: CA_2  and  C_13
REMARK    4  A    between atoms: C_4  and  N_5
REMARK    5  A    between atoms: C_13  and  O_14
REMARK                            x       y       z     vdW  Elec       q    Type
REMARK                         _______ _______ _______ _____ _____    ______ ____
ROOT
ATOM      1  C   UNL     1       7.566  -4.908  23.023  0.00  0.00    +0.156 C 
ENDROOT
BRANCH   1   2
ATOM      2  N   UNL     1       7.406  -5.179  24.463  0.00  0.00    -0.298 N 
ATOM      3  C   UNL     1       8.536  -5.336  25.255  0.00  0.00    +0.329 A 
ATOM      4  O   UNL     1       9.683  -5.209  24.831  0.00  0.00    -0.246 OA
ATOM      5  N   UNL     1       8.304  -5.586  26.582  0.00  0.00    -0.275 N 
ATOM      6  H   UNL     1       9.112  -5.662  27.179  0.00  0.00    +0.173 HD
ATOM      7  C   UNL     1       7.087  -5.547  27.198  0.00  0.00    +0.254 A 
ATOM      8  O   UNL     1       6.953  -5.620  28.413  0.00  0.00    -0.268 OA
ATOM      9  C   UNL     1       5.925  -5.393  26.309  0.00  0.00    +0.088 A 
ATOM     10  C   UNL     1       6.134  -5.225  25.002  0.00  0.00    +0.096 A 
ENDBRANCH   1   2
BRANCH   1  11
ATOM     11  CA  UNL     1       7.635  -3.408  22.660  0.00  0.00    +0.181 C 
BRANCH  11  12
ATOM     12  N   UNL     1       8.235  -2.530  23.718  0.00  0.00    -0.317 NA
ATOM     13  H1  UNL     1       8.301  -3.078  24.585  0.00  0.00    +0.119 HD
ATOM     14  H2  UNL     1       9.228  -2.412  23.482  0.00  0.00    +0.119 HD
ENDBRANCH  11  12
BRANCH  11  15
ATOM     15  C   UNL     1       6.234  -2.883  22.322  0.00  0.00    +0.323 C 
ATOM     16  OXT UNL     1       5.388  -3.495  21.689  0.00  0.00    -0.249 OA
BRANCH  15  17
ATOM     17  O   UNL     1       6.036  -1.635  22.820  0.00  0.00    -0.479 OA
ATOM     18  H   UNL     1       5.097  -1.404  22.595  0.00  0.00    +0.295 HD
ENDBRANCH  15  17
ENDBRANCH  11  15
ENDBRANCH   1  11
TORSDOF 5
ENDMDL
MODEL 7
REMARK VINA RESULT:      -5.1      2.511      6.031
REMARK  Name = 
REMARK  5 active torsions:
REMARK  status: ('A' for Active; 'I' for Inactive)
REMARK    1  A    between atoms: N_1  and  CA_2
REMARK    2  A    between atoms: CA_2  and  C_4
REMARK    3  A    between atoms: CA_2  and  C_13
REMARK    4  A    between atoms: C_4  and  N_5
REMARK    5  A    between atoms: C_13  and  O_14
REMARK                            x       y       z     vdW  Elec       q    Type
REMARK                         _______ _______ _______ _____ _____    ______ ____
ROOT
ATOM      1  C   UNL     1       8.577   1.227  23.348  0.00  0.00    +0.156 C 
ENDROOT
BRANCH   1   2
ATOM      2  N   UNL     1       8.885  -0.192  23.602  0.00  0.00    -0.298 N 
ATOM      3  C   UNL     1       9.551  -0.928  22.632  0.00  0.00    +0.329 A 
ATOM      4  O   UNL     1       9.953  -0.447  21.574  0.00  0.00    -0.246 OA
ATOM      5  N   UNL     1       9.800  -2.239  22.943  0.00  0.00    -0.275 N 
ATOM      6  H   UNL     1      10.319  -2.777  22.268  0.00  0.00    +0.173 HD
ATOM      7  C   UNL     1       9.584  -2.823  24.157  0.00  0.00    +0.254 A 
ATOM      8  O   UNL     1       9.970  -3.952  24.432  0.00  0.00    -0.268 OA
ATOM      9  C   UNL     1       8.862  -2.002  25.142  0.00  0.00    +0.088 A 
ATOM     10  C   UNL     1       8.545  -0.747  24.823  0.00  0.00    +0.096 A 
ENDBRANCH   1   2
BRANCH   1  11
ATOM     11  CA  UNL     1       9.518   2.222  24.062  0.00  0.00    +0.181 C 
BRANCH  11  12
ATOM     12  N   UNL     1       8.826   3.337  24.787  0.00  0.00    -0.317 NA
ATOM     13  H1  UNL     1       8.268   3.863  24.102  0.00  0.00    +0.119 HD
ATOM     14  H2  UNL     1       8.085   2.909  25.357  0.00  0.00    +0.119 HD
ENDBRANCH  11  12
BRANCH  11  15
ATOM     15  C   UNL     1      10.504   2.828  23.054  0.00  0.00    +0.323 C 
ATOM     16  OXT UNL     1      11.428   3.574  23.337  0.00  0.00    -0.249 OA
BRANCH  15  17
ATOM     17  O   UNL     1      10.225   2.432  21.785  0.00  0.00    -0.479 OA
ATOM     18  H   UNL     1      11.099   2.181  21.387  0.00  0.00    +0.295 HD
ENDBRANCH  15  17
ENDBRANCH  11  15
ENDBRANCH   1  11
TORSDOF 5
ENDMDL
MODEL 8
REMARK VINA RESULT:      -5.1      3.808      6.349
REMARK  Name = 
REMARK  5 active torsions:
REMARK  status: ('A' for Active; 'I' for Inactive)
REMARK    1  A    between atoms: N_1  and  CA_2
REMARK    2  A    between atoms: CA_2  and  C_4
REMARK    3  A    between atoms: CA_2  and  C_13
REMARK    4  A    between atoms: C_4  and  N_5
REMARK    5  A    between atoms: C_13  and  O_14
REMARK                            x       y       z     vdW  Elec       q    Type
REMARK                         _______ _______ _______ _____ _____    ______ ____
ROOT
ATOM      1  C   UNL     1       6.881  -4.766  25.250  0.00  0.00    +0.156 C 
ENDROOT
BRANCH   1   2
ATOM      2  N   UNL     1       5.732  -5.650  24.983  0.00  0.00    -0.298 N 
ATOM      3  C   UNL     1       5.434  -6.001  23.673  0.00  0.00    +0.329 A 
ATOM      4  O   UNL     1       6.113  -5.656  22.708  0.00  0.00    -0.246 OA
ATOM      5  N   UNL     1       4.352  -6.825  23.508  0.00  0.00    -0.275 N 
ATOM      6  H   UNL     1       4.146  -7.124  22.568  0.00  0.00    +0.173 HD
ATOM      7  C   UNL     1       3.653  -7.431  24.511  0.00  0.00    +0.254 A 
ATOM      8  O   UNL     1       2.797  -8.282  24.306  0.00  0.00    -0.268 OA
ATOM      9  C   UNL     1       4.001  -7.011  25.877  0.00  0.00    +0.088 A 
ATOM     10  C   UNL     1       5.004  -6.148  26.048  0.00  0.00    +0.096 A 
ENDBRANCH   1   2
BRANCH   1  11
ATOM     11  CA  UNL     1       8.152  -5.500  25.731  0.00  0.00    +0.181 C 
BRANCH  11  12
ATOM     12  N   UNL     1       8.356  -5.503  27.216  0.00  0.00    -0.317 NA
ATOM     13  H1  UNL     1       7.493  -5.159  27.655  0.00  0.00    +0.119 HD
ATOM     14  H2  UNL     1       8.352  -6.486  27.517  0.00  0.00    +0.119 HD
ENDBRANCH  11  12
BRANCH  11  15
ATOM     15  C   UNL     1       9.394  -4.891  25.066  0.00  0.00    +0.323 C 
ATOM     16  OXT UNL     1       9.384  -3.949  24.288  0.00  0.00    -0.249 OA
BRANCH  15  17
ATOM     17  O   UNL     1      10.529  -5.530  25.450  0.00  0.00    -0.479 OA
ATOM     18  H   UNL     1      10.339  -5.890  26.355  0.00  0.00    +0.295 HD
ENDBRANCH  15  17
ENDBRANCH  11  15
ENDBRANCH   1  11
TORSDOF 5
ENDMDL
MODEL 9
REMARK VINA RESULT:      -5.1      1.784      5.238
REMARK  Name = 
REMARK  5 active torsions:
REMARK  status: ('A' for Active; 'I' for Inactive)
REMARK    1  A    between atoms: N_1  and  CA_2
REMARK    2  A    between atoms: CA_2  and  C_4
REMARK    3  A    between atoms: CA_2  and  C_13
REMARK    4  A    between atoms: C_4  and  N_5
REMARK    5  A    between atoms: C_13  and  O_14
REMARK                            x       y       z     vdW  Elec       q    Type
REMARK                         _______ _______ _______ _____ _____    ______ ____
ROOT
ATOM      1  C   UNL     1       8.507  -3.092  23.714  0.00  0.00    +0.156 C 
ENDROOT
BRANCH   1   2
ATOM      2  N   UNL     1       8.127  -3.940  24.858  0.00  0.00    -0.298 N 
ATOM      3  C   UNL     1       9.026  -4.887  25.331  0.00  0.00    +0.329 A 
ATOM      4  O   UNL     1      10.160  -5.029  24.878  0.00  0.00    -0.246 OA
ATOM      5  N   UNL     1       8.599  -5.636  26.395  0.00  0.00    -0.275 N 
ATOM      6  H   UNL     1       9.254  -6.300  26.778  0.00  0.00    +0.173 HD
ATOM      7  C   UNL     1       7.450  -5.430  27.103  0.00  0.00    +0.254 A 
ATOM      8  O   UNL     1       7.193  -6.025  28.142  0.00  0.00    -0.268 OA
ATOM      9  C   UNL     1       6.529  -4.426  26.549  0.00  0.00    +0.088 A 
ATOM     10  C   UNL     1       6.901  -3.742  25.465  0.00  0.00    +0.096 A 
ENDBRANCH   1   2
BRANCH   1  11
ATOM     11  CA  UNL     1       9.534  -1.989  24.052  0.00  0.00    +0.181 C 
BRANCH  11  12
ATOM     12  N   UNL     1       9.176  -1.130  25.228  0.00  0.00    -0.317 NA
ATOM     13  H1  UNL     1       9.103  -0.159  24.901  0.00  0.00    +0.119 HD
ATOM     14  H2  UNL     1       8.196  -1.334  25.460  0.00  0.00    +0.119 HD
ENDBRANCH  11  12
BRANCH  11  15
ATOM     15  C   UNL     1       9.754  -1.084  22.832  0.00  0.00    +0.323 C 
ATOM     16  OXT UNL     1       9.342   0.059  22.722  0.00  0.00    -0.249 OA
BRANCH  15  17
ATOM     17  O   UNL     1      10.476  -1.714  21.869  0.00  0.00    -0.479 OA
ATOM     18  H   UNL     1      10.035  -2.593  21.737  0.00  0.00    +0.295 HD
ENDBRANCH  15  17
ENDBRANCH  11  15
ENDBRANCH   1  11
TORSDOF 5
ENDMDL
