MODEL 1
REMARK VINA RESULT:      -8.6      0.000      0.000
REMARK  Name = 
REMARK  10 active torsions:
REMARK  status: ('A' for Active; 'I' for Inactive)
REMARK    1  A    between atoms: C_1  and  C_2
REMARK    2  A    between atoms: C_3  and  C_4
REMARK    3  A    between atoms: C_9  and  C_10
REMARK    4  A    between atoms: C_9  and  C_11
REMARK    5  A    between atoms: C_11  and  O_12
REMARK    6  A    between atoms: O_12  and  C_13
REMARK    7  A    between atoms: C_16  and  C_17
REMARK    8  A    between atoms: C_17  and  C_18
REMARK    9  A    between atoms: C_28  and  C_29
REMARK   10  A    between atoms: C_30  and  O_31
REMARK                            x       y       z     vdW  Elec       q    Type
REMARK                         _______ _______ _______ _____ _____    ______ ____
ROOT
ATOM      1  C   UNL     1       8.618  -2.397  22.314  0.00  0.00    +0.276 C 
ENDROOT
BRANCH   1  10
ATOM      2  C   UNL     1       3.626  -7.341  24.539  0.00  0.00    +0.048 C 
ATOM      3  C   UNL     1       4.813  -6.446  24.793  0.00  0.00    -0.002 A 
ATOM      4  C   UNL     1       5.305  -6.386  26.115  0.00  0.00    +0.123 A 
ATOM      5  C   UNL     1       6.406  -5.593  26.481  0.00  0.00    -0.002 A 
ATOM      6  C   UNL     1       6.858  -5.543  27.920  0.00  0.00    +0.048 C 
ATOM      7  C   UNL     1       7.056  -4.846  25.476  0.00  0.00    +0.001 A 
ATOM      8  C   UNL     1       8.268  -4.012  25.804  0.00  0.00    +0.043 C 
ATOM      9  C   UNL     1       8.939  -3.464  24.561  0.00  0.00    +0.056 C 
ATOM     10  C   UNL     1       7.889  -2.957  23.566  0.00  0.00    +0.142 C 
ATOM     11  O   UNL     1       7.068  -4.066  23.152  0.00  0.00    -0.482 OA
ATOM     12  C   UNL     1       6.998  -1.833  24.137  0.00  0.00    +0.059 C 
ATOM     13  C   UNL     1       6.541  -4.852  24.161  0.00  0.00    +0.128 A 
ATOM     14  C   UNL     1       5.441  -5.664  23.799  0.00  0.00    -0.002 A 
ATOM     15  C   UNL     1       4.997  -5.638  22.357  0.00  0.00    +0.048 C 
BRANCH   4  16
ATOM     16  O   UNL     1       4.642  -7.154  27.044  0.00  0.00    -0.506 OA
ATOM     17  H   UNL     1       3.753  -7.370  26.726  0.00  0.00    +0.292 HD
ENDBRANCH   4  16
ENDBRANCH   1  10
BRANCH   1  18
ATOM     18  O   UNL     1       9.927  -1.977  22.712  0.00  0.00    -0.488 OA
BRANCH  18  19
ATOM     19  C   UNL     1      10.157  -0.665  22.984  0.00  0.00    +0.121 A 
ATOM     20  C   UNL     1       9.834   0.200  21.935  0.00  0.00    +0.046 A 
ATOM     21  C   UNL     1       9.957   1.582  22.081  0.00  0.00    +0.007 A 
ATOM     22  C   UNL     1      10.405   2.128  23.290  0.00  0.00    -0.046 A 
ATOM     23  C   UNL     1      10.768   1.254  24.325  0.00  0.00    +0.007 A 
ATOM     24  C   UNL     1      10.650  -0.136  24.172  0.00  0.00    +0.046 A 
BRANCH  22  25
ATOM     25  C   UNL     1      10.383   3.629  23.485  0.00  0.00    +0.059 C 
BRANCH  25  26
ATOM     26  C   UNL     1       9.016   4.263  23.744  0.00  0.00    +0.146 C 
ATOM     27  C   UNL     1       9.204   5.715  24.136  0.00  0.00    +0.234 C 
ATOM     28  O   UNL     1       9.618   6.591  23.388  0.00  0.00    -0.274 OA
ATOM     29  N   UNL     1       8.851   5.954  25.429  0.00  0.00    -0.246 N 
ATOM     30  H   UNL     1       8.877   6.891  25.799  0.00  0.00    +0.158 HD
ATOM     31  C   UNL     1       8.152   4.999  26.082  0.00  0.00    +0.279 C 
ATOM     32  O   UNL     1       7.564   5.152  27.139  0.00  0.00    -0.263 OA
ATOM     33  S   UNL     1       8.145   3.515  25.165  0.00  0.00    -0.054 S 
ENDBRANCH  25  26
ENDBRANCH  22  25
ENDBRANCH  18  19
ENDBRANCH   1  18
TORSDOF 6
ENDMDL
MODEL 2
REMARK VINA RESULT:      -8.5      1.709      1.994
REMARK  Name = 
REMARK  10 active torsions:
REMARK  status: ('A' for Active; 'I' for Inactive)
REMARK    1  A    between atoms: C_1  and  C_2
REMARK    2  A    between atoms: C_3  and  C_4
REMARK    3  A    between atoms: C_9  and  C_10
REMARK    4  A    between atoms: C_9  and  C_11
REMARK    5  A    between atoms: C_11  and  O_12
REMARK    6  A    between atoms: O_12  and  C_13
REMARK    7  A    between atoms: C_16  and  C_17
REMARK    8  A    between atoms: C_17  and  C_18
REMARK    9  A    between atoms: C_28  and  C_29
REMARK   10  A    between atoms: C_30  and  O_31
REMARK                            x       y       z     vdW  Elec       q    Type
REMARK                         _______ _______ _______ _____ _____    ______ ____
ROOT
ATOM      1  C   UNL     1       8.667  -3.259  23.212  0.00  0.00    +0.276 C 
ENDROOT
BRANCH   1  10
ATOM      2  C   UNL     1       3.039  -7.563  25.242  0.00  0.00    +0.048 C 
ATOM      3  C   UNL     1       4.303  -6.797  25.546  0.00  0.00    -0.002 A 
ATOM      4  C   UNL     1       4.723  -6.757  26.894  0.00  0.00    +0.123 A 
ATOM      5  C   UNL     1       5.883  -6.080  27.308  0.00  0.00    -0.002 A 
ATOM      6  C   UNL     1       6.256  -6.041  28.769  0.00  0.00    +0.048 C 
ATOM      7  C   UNL     1       6.668  -5.435  26.327  0.00  0.00    +0.001 A 
ATOM      8  C   UNL     1       7.944  -4.732  26.709  0.00  0.00    +0.043 C 
ATOM      9  C   UNL     1       8.741  -4.294  25.496  0.00  0.00    +0.056 C 
ATOM     10  C   UNL     1       7.811  -3.702  24.431  0.00  0.00    +0.142 C 
ATOM     11  O   UNL     1       6.896  -4.725  23.993  0.00  0.00    -0.482 OA
ATOM     12  C   UNL     1       7.020  -2.472  24.926  0.00  0.00    +0.059 C 
ATOM     13  C   UNL     1       6.230  -5.421  24.985  0.00  0.00    +0.128 A 
ATOM     14  C   UNL     1       5.068  -6.116  24.575  0.00  0.00    -0.002 A 
ATOM     15  C   UNL     1       4.711  -6.080  23.110  0.00  0.00    +0.048 C 
BRANCH   4  16
ATOM     16  O   UNL     1       3.928  -7.421  27.797  0.00  0.00    -0.506 OA
ATOM     17  H   UNL     1       4.456  -8.053  28.307  0.00  0.00    +0.292 HD
ENDBRANCH   4  16
ENDBRANCH   1  10
BRANCH   1  18
ATOM     18  O   UNL     1       9.848  -2.620  23.707  0.00  0.00    -0.488 OA
BRANCH  18  19
ATOM     19  C   UNL     1       9.963  -1.267  23.626  0.00  0.00    +0.121 A 
ATOM     20  C   UNL     1       9.829  -0.760  22.331  0.00  0.00    +0.046 A 
ATOM     21  C   UNL     1       9.862   0.613  22.093  0.00  0.00    +0.007 A 
ATOM     22  C   UNL     1      10.029   1.512  23.153  0.00  0.00    -0.046 A 
ATOM     23  C   UNL     1      10.205   0.996  24.446  0.00  0.00    +0.007 A 
ATOM     24  C   UNL     1      10.178  -0.387  24.681  0.00  0.00    +0.046 A 
BRANCH  22  25
ATOM     25  C   UNL     1       9.906   2.999  22.899  0.00  0.00    +0.059 C 
BRANCH  25  26
ATOM     26  C   UNL     1       8.633   3.675  23.410  0.00  0.00    +0.146 C 
ATOM     27  C   UNL     1       7.580   3.648  22.320  0.00  0.00    +0.234 C 
ATOM     28  O   UNL     1       7.035   2.635  21.903  0.00  0.00    -0.274 OA
ATOM     29  N   UNL     1       7.289   4.892  21.847  0.00  0.00    -0.246 N 
ATOM     30  H   UNL     1       6.566   5.018  21.157  0.00  0.00    +0.158 HD
ATOM     31  C   UNL     1       7.731   5.957  22.553  0.00  0.00    +0.279 C 
ATOM     32  O   UNL     1       7.359   7.108  22.401  0.00  0.00    -0.263 OA
ATOM     33  S   UNL     1       8.869   5.450  23.773  0.00  0.00    -0.054 S 
ENDBRANCH  25  26
ENDBRANCH  22  25
ENDBRANCH  18  19
ENDBRANCH   1  18
TORSDOF 6
ENDMDL
MODEL 3
REMARK VINA RESULT:      -8.2      1.701      2.178
REMARK  Name = 
REMARK  10 active torsions:
REMARK  status: ('A' for Active; 'I' for Inactive)
REMARK    1  A    between atoms: C_1  and  C_2
REMARK    2  A    between atoms: C_3  and  C_4
REMARK    3  A    between atoms: C_9  and  C_10
REMARK    4  A    between atoms: C_9  and  C_11
REMARK    5  A    between atoms: C_11  and  O_12
REMARK    6  A    between atoms: O_12  and  C_13
REMARK    7  A    between atoms: C_16  and  C_17
REMARK    8  A    between atoms: C_17  and  C_18
REMARK    9  A    between atoms: C_28  and  C_29
REMARK   10  A    between atoms: C_30  and  O_31
REMARK                            x       y       z     vdW  Elec       q    Type
REMARK                         _______ _______ _______ _____ _____    ______ ____
ROOT
ATOM      1  C   UNL     1       9.265  -2.992  24.464  0.00  0.00    +0.276 C 
ENDROOT
BRANCH   1  10
ATOM      2  C   UNL     1       3.011  -6.831  23.772  0.00  0.00    +0.048 C 
ATOM      3  C   UNL     1       4.213  -6.381  24.565  0.00  0.00    -0.002 A 
ATOM      4  C   UNL     1       4.290  -6.799  25.912  0.00  0.00    +0.123 A 
ATOM      5  C   UNL     1       5.358  -6.451  26.756  0.00  0.00    -0.002 A 
ATOM      6  C   UNL     1       5.361  -6.897  28.197  0.00  0.00    +0.048 C 
ATOM      7  C   UNL     1       6.405  -5.669  26.222  0.00  0.00    +0.001 A 
ATOM      8  C   UNL     1       7.596  -5.303  27.070  0.00  0.00    +0.043 C 
ATOM      9  C   UNL     1       8.697  -4.650  26.258  0.00  0.00    +0.056 C 
ATOM     10  C   UNL     1       8.105  -3.643  25.267  0.00  0.00    +0.142 C 
ATOM     11  O   UNL     1       7.254  -4.347  24.341  0.00  0.00    -0.482 OA
ATOM     12  C   UNL     1       7.308  -2.510  25.949  0.00  0.00    +0.059 C 
ATOM     13  C   UNL     1       6.314  -5.198  24.894  0.00  0.00    +0.128 A 
ATOM     14  C   UNL     1       5.242  -5.564  24.048  0.00  0.00    -0.002 A 
ATOM     15  C   UNL     1       5.262  -5.049  22.630  0.00  0.00    +0.048 C 
BRANCH   4  16
ATOM     16  O   UNL     1       3.250  -7.576  26.365  0.00  0.00    -0.506 OA
ATOM     17  H   UNL     1       2.494  -7.509  25.764  0.00  0.00    +0.292 HD
ENDBRANCH   4  16
ENDBRANCH   1  10
BRANCH   1  18
ATOM     18  O   UNL     1       8.802  -2.746  23.132  0.00  0.00    -0.488 OA
BRANCH  18  19
ATOM     19  C   UNL     1       8.684  -1.466  22.689  0.00  0.00    +0.121 A 
ATOM     20  C   UNL     1       7.490  -0.842  23.061  0.00  0.00    +0.046 A 
ATOM     21  C   UNL     1       7.246   0.491  22.733  0.00  0.00    +0.007 A 
ATOM     22  C   UNL     1       8.200   1.232  22.026  0.00  0.00    -0.046 A 
ATOM     23  C   UNL     1       9.379   0.590  21.618  0.00  0.00    +0.007 A 
ATOM     24  C   UNL     1       9.617  -0.755  21.943  0.00  0.00    +0.046 A 
BRANCH  22  25
ATOM     25  C   UNL     1       7.989   2.716  21.815  0.00  0.00    +0.059 C 
BRANCH  25  26
ATOM     26  C   UNL     1       7.957   3.585  23.073  0.00  0.00    +0.146 C 
ATOM     27  C   UNL     1       7.689   5.024  22.680  0.00  0.00    +0.234 C 
ATOM     28  O   UNL     1       6.636   5.433  22.209  0.00  0.00    -0.274 OA
ATOM     29  N   UNL     1       8.756   5.836  22.917  0.00  0.00    -0.246 N 
ATOM     30  H   UNL     1       8.690   6.827  22.750  0.00  0.00    +0.158 HD
ATOM     31  C   UNL     1       9.759   5.355  23.686  0.00  0.00    +0.279 C 
ATOM     32  O   UNL     1      10.651   6.023  24.181  0.00  0.00    -0.263 OA
ATOM     33  S   UNL     1       9.566   3.640  23.938  0.00  0.00    -0.054 S 
ENDBRANCH  25  26
ENDBRANCH  22  25
ENDBRANCH  18  19
ENDBRANCH   1  18
TORSDOF 6
ENDMDL
MODEL 4
REMARK VINA RESULT:      -8.2      1.667      2.896
REMARK  Name = 
REMARK  10 active torsions:
REMARK  status: ('A' for Active; 'I' for Inactive)
REMARK    1  A    between atoms: C_1  and  C_2
REMARK    2  A    between atoms: C_3  and  C_4
REMARK    3  A    between atoms: C_9  and  C_10
REMARK    4  A    between atoms: C_9  and  C_11
REMARK    5  A    between atoms: C_11  and  O_12
REMARK    6  A    between atoms: O_12  and  C_13
REMARK    7  A    between atoms: C_16  and  C_17
REMARK    8  A    between atoms: C_17  and  C_18
REMARK    9  A    between atoms: C_28  and  C_29
REMARK   10  A    between atoms: C_30  and  O_31
REMARK                            x       y       z     vdW  Elec       q    Type
REMARK                         _______ _______ _______ _____ _____    ______ ____
ROOT
ATOM      1  C   UNL     1       7.697  -3.145  22.147  0.00  0.00    +0.276 C 
ENDROOT
BRANCH   1  10
ATOM      2  C   UNL     1       6.386  -6.333  28.662  0.00  0.00    +0.048 C 
ATOM      3  C   UNL     1       5.976  -5.963  27.258  0.00  0.00    -0.002 A 
ATOM      4  C   UNL     1       4.736  -6.457  26.797  0.00  0.00    +0.123 A 
ATOM      5  C   UNL     1       4.241  -6.182  25.510  0.00  0.00    -0.002 A 
ATOM      6  C   UNL     1       2.926  -6.773  25.064  0.00  0.00    +0.048 C 
ATOM      7  C   UNL     1       5.009  -5.359  24.659  0.00  0.00    +0.001 A 
ATOM      8  C   UNL     1       4.504  -4.997  23.286  0.00  0.00    +0.043 C 
ATOM      9  C   UNL     1       5.366  -3.943  22.620  0.00  0.00    +0.056 C 
ATOM     10  C   UNL     1       6.851  -4.241  22.853  0.00  0.00    +0.142 C 
ATOM     11  O   UNL     1       7.121  -4.180  24.267  0.00  0.00    -0.482 OA
ATOM     12  C   UNL     1       7.294  -5.611  22.296  0.00  0.00    +0.059 C 
ATOM     13  C   UNL     1       6.275  -4.905  25.087  0.00  0.00    +0.128 A 
ATOM     14  C   UNL     1       6.760  -5.175  26.387  0.00  0.00    -0.002 A 
ATOM     15  C   UNL     1       8.104  -4.603  26.766  0.00  0.00    +0.048 C 
BRANCH   4  16
ATOM     16  O   UNL     1       4.026  -7.234  27.681  0.00  0.00    -0.506 OA
ATOM     17  H   UNL     1       3.080  -7.046  27.606  0.00  0.00    +0.292 HD
ENDBRANCH   4  16
ENDBRANCH   1  10
BRANCH   1  18
ATOM     18  O   UNL     1       8.850  -2.885  22.954  0.00  0.00    -0.488 OA
BRANCH  18  19
ATOM     19  C   UNL     1       9.313  -1.611  23.070  0.00  0.00    +0.121 A 
ATOM     20  C   UNL     1       9.323  -0.896  21.870  0.00  0.00    +0.046 A 
ATOM     21  C   UNL     1       9.715   0.442  21.836  0.00  0.00    +0.007 A 
ATOM     22  C   UNL     1      10.102   1.096  23.012  0.00  0.00    -0.046 A 
ATOM     23  C   UNL     1      10.129   0.363  24.207  0.00  0.00    +0.007 A 
ATOM     24  C   UNL     1       9.742  -0.986  24.236  0.00  0.00    +0.046 A 
BRANCH  22  25
ATOM     25  C   UNL     1      10.372   2.585  22.985  0.00  0.00    +0.059 C 
BRANCH  25  26
ATOM     26  C   UNL     1       9.445   3.461  23.829  0.00  0.00    +0.146 C 
ATOM     27  C   UNL     1       8.118   3.620  23.114  0.00  0.00    +0.234 C 
ATOM     28  O   UNL     1       7.314   2.717  22.928  0.00  0.00    -0.274 OA
ATOM     29  N   UNL     1       7.902   4.899  22.699  0.00  0.00    -0.246 N 
ATOM     30  H   UNL     1       7.032   5.151  22.257  0.00  0.00    +0.158 HD
ATOM     31  C   UNL     1       8.706   5.869  23.189  0.00  0.00    +0.279 C 
ATOM     32  O   UNL     1       8.497   7.067  23.107  0.00  0.00    -0.263 OA
ATOM     33  S   UNL     1      10.067   5.168  24.024  0.00  0.00    -0.054 S 
ENDBRANCH  25  26
ENDBRANCH  22  25
ENDBRANCH  18  19
ENDBRANCH   1  18
TORSDOF 6
ENDMDL
MODEL 5
REMARK VINA RESULT:      -7.9      3.738      9.744
REMARK  Name = 
REMARK  10 active torsions:
REMARK  status: ('A' for Active; 'I' for Inactive)
REMARK    1  A    between atoms: C_1  and  C_2
REMARK    2  A    between atoms: C_3  and  C_4
REMARK    3  A    between atoms: C_9  and  C_10
REMARK    4  A    between atoms: C_9  and  C_11
REMARK    5  A    between atoms: C_11  and  O_12
REMARK    6  A    between atoms: O_12  and  C_13
REMARK    7  A    between atoms: C_16  and  C_17
REMARK    8  A    between atoms: C_17  and  C_18
REMARK    9  A    between atoms: C_28  and  C_29
REMARK   10  A    between atoms: C_30  and  O_31
REMARK                            x       y       z     vdW  Elec       q    Type
REMARK                         _______ _______ _______ _____ _____    ______ ____
ROOT
ATOM      1  C   UNL     1       8.916  -1.867  23.905  0.00  0.00    +0.276 C 
ENDROOT
BRANCH   1  10
ATOM      2  C   UNL     1       6.600   5.037  22.768  0.00  0.00    +0.048 C 
ATOM      3  C   UNL     1       7.681   4.034  23.084  0.00  0.00    -0.002 A 
ATOM      4  C   UNL     1       8.999   4.525  23.210  0.00  0.00    +0.123 A 
ATOM      5  C   UNL     1      10.094   3.695  23.505  0.00  0.00    -0.002 A 
ATOM      6  C   UNL     1      11.484   4.276  23.587  0.00  0.00    +0.048 C 
ATOM      7  C   UNL     1       9.855   2.318  23.705  0.00  0.00    +0.001 A 
ATOM      8  C   UNL     1      10.986   1.390  24.067  0.00  0.00    +0.043 C 
ATOM      9  C   UNL     1      10.492   0.008  24.445  0.00  0.00    +0.056 C 
ATOM     10  C   UNL     1       9.386  -0.445  23.487  0.00  0.00    +0.142 C 
ATOM     11  O   UNL     1       8.267   0.454  23.610  0.00  0.00    -0.482 OA
ATOM     12  C   UNL     1       9.842  -0.512  22.014  0.00  0.00    +0.059 C 
ATOM     13  C   UNL     1       8.552   1.805  23.528  0.00  0.00    +0.128 A 
ATOM     14  C   UNL     1       7.454   2.650  23.244  0.00  0.00    -0.002 A 
ATOM     15  C   UNL     1       6.093   2.011  23.122  0.00  0.00    +0.048 C 
BRANCH   4  16
ATOM     16  O   UNL     1       9.163   5.877  23.024  0.00  0.00    -0.506 OA
ATOM     17  H   UNL     1      10.026   6.160  23.360  0.00  0.00    +0.292 HD
ENDBRANCH   4  16
ENDBRANCH   1  10
BRANCH   1  18
ATOM     18  O   UNL     1       8.369  -2.511  22.750  0.00  0.00    -0.488 OA
BRANCH  18  19
ATOM     19  C   UNL     1       7.242  -3.263  22.873  0.00  0.00    +0.121 A 
ATOM     20  C   UNL     1       7.438  -4.627  22.637  0.00  0.00    +0.046 A 
ATOM     21  C   UNL     1       6.392  -5.537  22.783  0.00  0.00    +0.007 A 
ATOM     22  C   UNL     1       5.122  -5.098  23.174  0.00  0.00    -0.046 A 
ATOM     23  C   UNL     1       4.919  -3.723  23.369  0.00  0.00    +0.007 A 
ATOM     24  C   UNL     1       5.973  -2.810  23.214  0.00  0.00    +0.046 A 
BRANCH  22  25
ATOM     25  C   UNL     1       4.041  -6.113  23.479  0.00  0.00    +0.059 C 
BRANCH  25  26
ATOM     26  C   UNL     1       4.338  -7.109  24.601  0.00  0.00    +0.146 C 
ATOM     27  C   UNL     1       3.050  -7.789  25.020  0.00  0.00    +0.234 C 
ATOM     28  O   UNL     1       2.411  -8.563  24.320  0.00  0.00    -0.274 OA
ATOM     29  N   UNL     1       2.671  -7.452  26.284  0.00  0.00    -0.246 N 
ATOM     30  H   UNL     1       1.860  -7.877  26.703  0.00  0.00    +0.158 HD
ATOM     31  C   UNL     1       3.573  -6.820  27.068  0.00  0.00    +0.279 C 
ATOM     32  O   UNL     1       3.477  -6.669  28.274  0.00  0.00    -0.263 OA
ATOM     33  S   UNL     1       4.945  -6.301  26.123  0.00  0.00    -0.054 S 
ENDBRANCH  25  26
ENDBRANCH  22  25
ENDBRANCH  18  19
ENDBRANCH   1  18
TORSDOF 6
ENDMDL
MODEL 6
REMARK VINA RESULT:      -7.9      3.744      9.024
REMARK  Name = 
REMARK  10 active torsions:
REMARK  status: ('A' for Active; 'I' for Inactive)
REMARK    1  A    between atoms: C_1  and  C_2
REMARK    2  A    between atoms: C_3  and  C_4
REMARK    3  A    between atoms: C_9  and  C_10
REMARK    4  A    between atoms: C_9  and  C_11
REMARK    5  A    between atoms: C_11  and  O_12
REMARK    6  A    between atoms: O_12  and  C_13
REMARK    7  A    between atoms: C_16  and  C_17
REMARK    8  A    between atoms: C_17  and  C_18
REMARK    9  A    between atoms: C_28  and  C_29
REMARK   10  A    between atoms: C_30  and  O_31
REMARK                            x       y       z     vdW  Elec       q    Type
REMARK                         _______ _______ _______ _____ _____    ______ ____
ROOT
ATOM      1  C   UNL     1      10.764   0.905  24.365  0.00  0.00    +0.276 C 
ENDROOT
BRANCH   1  10
ATOM      2  C   UNL     1       3.813   3.125  23.326  0.00  0.00    +0.048 C 
ATOM      3  C   UNL     1       5.302   3.362  23.292  0.00  0.00    -0.002 A 
ATOM      4  C   UNL     1       5.747   4.594  22.764  0.00  0.00    +0.123 A 
ATOM      5  C   UNL     1       7.107   4.938  22.679  0.00  0.00    -0.002 A 
ATOM      6  C   UNL     1       7.519   6.254  22.068  0.00  0.00    +0.048 C 
ATOM      7  C   UNL     1       8.061   4.017  23.164  0.00  0.00    +0.001 A 
ATOM      8  C   UNL     1       9.530   4.352  23.137  0.00  0.00    +0.043 C 
ATOM      9  C   UNL     1      10.363   3.335  23.891  0.00  0.00    +0.056 C 
ATOM     10  C   UNL     1       9.880   1.914  23.581  0.00  0.00    +0.142 C 
ATOM     11  O   UNL     1       8.521   1.775  24.038  0.00  0.00    -0.482 OA
ATOM     12  C   UNL     1       9.965   1.553  22.082  0.00  0.00    +0.059 C 
ATOM     13  C   UNL     1       7.634   2.760  23.643  0.00  0.00    +0.128 A 
ATOM     14  C   UNL     1       6.263   2.428  23.737  0.00  0.00    -0.002 A 
ATOM     15  C   UNL     1       5.907   1.078  24.308  0.00  0.00    +0.048 C 
BRANCH   4  16
ATOM     16  O   UNL     1       4.768   5.456  22.328  0.00  0.00    -0.506 OA
ATOM     17  H   UNL     1       4.079   5.548  23.002  0.00  0.00    +0.292 HD
ENDBRANCH   4  16
ENDBRANCH   1  10
BRANCH   1  18
ATOM     18  O   UNL     1       9.947   0.273  25.355  0.00  0.00    -0.488 OA
BRANCH  18  19
ATOM     19  C   UNL     1       9.468  -0.980  25.129  0.00  0.00    +0.121 A 
ATOM     20  C   UNL     1       8.448  -1.366  26.003  0.00  0.00    +0.046 A 
ATOM     21  C   UNL     1       7.812  -2.599  25.862  0.00  0.00    +0.007 A 
ATOM     22  C   UNL     1       8.185  -3.474  24.835  0.00  0.00    -0.046 A 
ATOM     23  C   UNL     1       9.238  -3.100  23.986  0.00  0.00    +0.007 A 
ATOM     24  C   UNL     1       9.880  -1.861  24.136  0.00  0.00    +0.046 A 
BRANCH  22  25
ATOM     25  C   UNL     1       7.383  -4.736  24.599  0.00  0.00    +0.059 C 
BRANCH  25  26
ATOM     26  C   UNL     1       6.164  -4.608  23.684  0.00  0.00    +0.146 C 
ATOM     27  C   UNL     1       5.543  -5.977  23.485  0.00  0.00    +0.234 C 
ATOM     28  O   UNL     1       4.985  -6.622  24.362  0.00  0.00    -0.274 OA
ATOM     29  N   UNL     1       5.663  -6.420  22.203  0.00  0.00    -0.246 N 
ATOM     30  H   UNL     1       5.245  -7.294  21.925  0.00  0.00    +0.158 HD
ATOM     31  C   UNL     1       6.041  -5.531  21.257  0.00  0.00    +0.279 C 
ATOM     32  O   UNL     1       5.963  -5.705  20.053  0.00  0.00    -0.263 OA
ATOM     33  S   UNL     1       6.598  -4.054  21.998  0.00  0.00    -0.054 S 
ENDBRANCH  25  26
ENDBRANCH  22  25
ENDBRANCH  18  19
ENDBRANCH   1  18
TORSDOF 6
ENDMDL
MODEL 7
REMARK VINA RESULT:      -7.7      3.420      8.766
REMARK  Name = 
REMARK  10 active torsions:
REMARK  status: ('A' for Active; 'I' for Inactive)
REMARK    1  A    between atoms: C_1  and  C_2
REMARK    2  A    between atoms: C_3  and  C_4
REMARK    3  A    between atoms: C_9  and  C_10
REMARK    4  A    between atoms: C_9  and  C_11
REMARK    5  A    between atoms: C_11  and  O_12
REMARK    6  A    between atoms: O_12  and  C_13
REMARK    7  A    between atoms: C_16  and  C_17
REMARK    8  A    between atoms: C_17  and  C_18
REMARK    9  A    between atoms: C_28  and  C_29
REMARK   10  A    between atoms: C_30  and  O_31
REMARK                            x       y       z     vdW  Elec       q    Type
REMARK                         _______ _______ _______ _____ _____    ______ ____
ROOT
ATOM      1  C   UNL     1      10.195   0.090  22.230  0.00  0.00    +0.276 C 
ENDROOT
BRANCH   1  10
ATOM      2  C   UNL     1       6.008   2.490  27.801  0.00  0.00    +0.048 C 
ATOM      3  C   UNL     1       7.001   2.723  26.689  0.00  0.00    -0.002 A 
ATOM      4  C   UNL     1       7.386   4.059  26.438  0.00  0.00    +0.123 A 
ATOM      5  C   UNL     1       8.305   4.408  25.433  0.00  0.00    -0.002 A 
ATOM      6  C   UNL     1       8.645   5.857  25.190  0.00  0.00    +0.048 C 
ATOM      7  C   UNL     1       8.880   3.374  24.663  0.00  0.00    +0.001 A 
ATOM      8  C   UNL     1       9.902   3.688  23.602  0.00  0.00    +0.043 C 
ATOM      9  C   UNL     1      10.548   2.437  23.041  0.00  0.00    +0.056 C 
ATOM     10  C   UNL     1       9.494   1.348  22.812  0.00  0.00    +0.142 C 
ATOM     11  O   UNL     1       8.908   0.994  24.079  0.00  0.00    -0.482 OA
ATOM     12  C   UNL     1       8.384   1.771  21.825  0.00  0.00    +0.059 C 
ATOM     13  C   UNL     1       8.462   2.041  24.866  0.00  0.00    +0.128 A 
ATOM     14  C   UNL     1       7.547   1.697  25.888  0.00  0.00    -0.002 A 
ATOM     15  C   UNL     1       7.202   0.238  26.056  0.00  0.00    +0.048 C 
BRANCH   4  16
ATOM     16  O   UNL     1       6.808   5.017  27.236  0.00  0.00    -0.506 OA
ATOM     17  H   UNL     1       7.043   4.866  28.164  0.00  0.00    +0.292 HD
ENDBRANCH   4  16
ENDBRANCH   1  10
BRANCH   1  18
ATOM     18  O   UNL     1       9.187  -0.772  21.692  0.00  0.00    -0.488 OA
BRANCH  18  19
ATOM     19  C   UNL     1       8.791  -1.864  22.399  0.00  0.00    +0.121 A 
ATOM     20  C   UNL     1       9.660  -2.217  23.435  0.00  0.00    +0.046 A 
ATOM     21  C   UNL     1       9.361  -3.279  24.290  0.00  0.00    +0.007 A 
ATOM     22  C   UNL     1       8.179  -4.010  24.124  0.00  0.00    -0.046 A 
ATOM     23  C   UNL     1       7.331  -3.678  23.057  0.00  0.00    +0.007 A 
ATOM     24  C   UNL     1       7.638  -2.614  22.195  0.00  0.00    +0.046 A 
BRANCH  22  25
ATOM     25  C   UNL     1       7.796  -5.053  25.151  0.00  0.00    +0.059 C 
BRANCH  25  26
ATOM     26  C   UNL     1       6.425  -4.891  25.810  0.00  0.00    +0.146 C 
ATOM     27  C   UNL     1       6.388  -5.695  27.094  0.00  0.00    +0.234 C 
ATOM     28  O   UNL     1       7.048  -5.442  28.093  0.00  0.00    -0.274 OA
ATOM     29  N   UNL     1       5.523  -6.744  27.025  0.00  0.00    -0.246 N 
ATOM     30  H   UNL     1       5.364  -7.327  27.832  0.00  0.00    +0.158 HD
ATOM     31  C   UNL     1       4.646  -6.777  25.996  0.00  0.00    +0.279 C 
ATOM     32  O   UNL     1       3.669  -7.502  25.924  0.00  0.00    -0.263 OA
ATOM     33  S   UNL     1       5.067  -5.579  24.800  0.00  0.00    -0.054 S 
ENDBRANCH  25  26
ENDBRANCH  22  25
ENDBRANCH  18  19
ENDBRANCH   1  18
TORSDOF 6
ENDMDL
MODEL 8
REMARK VINA RESULT:      -7.6      2.008      3.003
REMARK  Name = 
REMARK  10 active torsions:
REMARK  status: ('A' for Active; 'I' for Inactive)
REMARK    1  A    between atoms: C_1  and  C_2
REMARK    2  A    between atoms: C_3  and  C_4
REMARK    3  A    between atoms: C_9  and  C_10
REMARK    4  A    between atoms: C_9  and  C_11
REMARK    5  A    between atoms: C_11  and  O_12
REMARK    6  A    between atoms: O_12  and  C_13
REMARK    7  A    between atoms: C_16  and  C_17
REMARK    8  A    between atoms: C_17  and  C_18
REMARK    9  A    between atoms: C_28  and  C_29
REMARK   10  A    between atoms: C_30  and  O_31
REMARK                            x       y       z     vdW  Elec       q    Type
REMARK                         _______ _______ _______ _____ _____    ______ ____
ROOT
ATOM      1  C   UNL     1       9.068  -1.305  25.277  0.00  0.00    +0.276 C 
ENDROOT
BRANCH   1  10
ATOM      2  C   UNL     1       4.509  -6.987  26.397  0.00  0.00    +0.048 C 
ATOM      3  C   UNL     1       5.302  -6.078  25.490  0.00  0.00    -0.002 A 
ATOM      4  C   UNL     1       5.301  -6.384  24.111  0.00  0.00    +0.123 A 
ATOM      5  C   UNL     1       5.997  -5.614  23.162  0.00  0.00    -0.002 A 
ATOM      6  C   UNL     1       5.988  -6.017  21.709  0.00  0.00    +0.048 C 
ATOM      7  C   UNL     1       6.705  -4.479  23.611  0.00  0.00    +0.001 A 
ATOM      8  C   UNL     1       7.433  -3.594  22.632  0.00  0.00    +0.043 C 
ATOM      9  C   UNL     1       7.944  -2.323  23.280  0.00  0.00    +0.056 C 
ATOM     10  C   UNL     1       8.549  -2.630  24.654  0.00  0.00    +0.142 C 
ATOM     11  O   UNL     1       7.517  -3.158  25.509  0.00  0.00    -0.482 OA
ATOM     12  C   UNL     1       9.732  -3.620  24.593  0.00  0.00    +0.059 C 
ATOM     13  C   UNL     1       6.760  -4.194  24.993  0.00  0.00    +0.128 A 
ATOM     14  C   UNL     1       6.046  -4.966  25.939  0.00  0.00    -0.002 A 
ATOM     15  C   UNL     1       6.130  -4.550  27.387  0.00  0.00    +0.048 C 
BRANCH   4  16
ATOM     16  O   UNL     1       4.575  -7.489  23.735  0.00  0.00    -0.506 OA
ATOM     17  H   UNL     1       3.667  -7.235  23.517  0.00  0.00    +0.292 HD
ENDBRANCH   4  16
ENDBRANCH   1  10
BRANCH   1  18
ATOM     18  O   UNL     1       9.894  -0.651  24.309  0.00  0.00    -0.488 OA
BRANCH  18  19
ATOM     19  C   UNL     1       9.794   0.695  24.141  0.00  0.00    +0.121 A 
ATOM     20  C   UNL     1       8.769   1.287  24.883  0.00  0.00    +0.046 A 
ATOM     21  C   UNL     1       8.576   2.668  24.863  0.00  0.00    +0.007 A 
ATOM     22  C   UNL     1       9.413   3.489  24.099  0.00  0.00    -0.046 A 
ATOM     23  C   UNL     1      10.415   2.886  23.323  0.00  0.00    +0.007 A 
ATOM     24  C   UNL     1      10.601   1.495  23.339  0.00  0.00    +0.046 A 
BRANCH  22  25
ATOM     25  C   UNL     1       9.291   4.993  24.211  0.00  0.00    +0.059 C 
BRANCH  25  26
ATOM     26  C   UNL     1       8.146   5.644  23.435  0.00  0.00    +0.146 C 
ATOM     27  C   UNL     1       7.033   6.009  24.397  0.00  0.00    +0.234 C 
ATOM     28  O   UNL     1       7.114   6.871  25.262  0.00  0.00    -0.274 OA
ATOM     29  N   UNL     1       5.906   5.272  24.191  0.00  0.00    -0.246 N 
ATOM     30  H   UNL     1       5.074   5.454  24.730  0.00  0.00    +0.158 HD
ATOM     31  C   UNL     1       5.819   4.553  23.050  0.00  0.00    +0.279 C 
ATOM     32  O   UNL     1       4.801   4.044  22.613  0.00  0.00    -0.263 OA
ATOM     33  S   UNL     1       7.362   4.506  22.239  0.00  0.00    -0.054 S 
ENDBRANCH  25  26
ENDBRANCH  22  25
ENDBRANCH  18  19
ENDBRANCH   1  18
TORSDOF 6
ENDMDL
MODEL 9
REMARK VINA RESULT:      -7.6      1.983      2.960
REMARK  Name = 
REMARK  10 active torsions:
REMARK  status: ('A' for Active; 'I' for Inactive)
REMARK    1  A    between atoms: C_1  and  C_2
REMARK    2  A    between atoms: C_3  and  C_4
REMARK    3  A    between atoms: C_9  and  C_10
REMARK    4  A    between atoms: C_9  and  C_11
REMARK    5  A    between atoms: C_11  and  O_12
REMARK    6  A    between atoms: O_12  and  C_13
REMARK    7  A    between atoms: C_16  and  C_17
REMARK    8  A    between atoms: C_17  and  C_18
REMARK    9  A    between atoms: C_28  and  C_29
REMARK   10  A    between atoms: C_30  and  O_31
REMARK                            x       y       z     vdW  Elec       q    Type
REMARK                         _______ _______ _______ _____ _____    ______ ____
ROOT
ATOM      1  C   UNL     1       9.284  -2.853  23.699  0.00  0.00    +0.276 C 
ENDROOT
BRANCH   1  10
ATOM      2  C   UNL     1       3.301  -3.611  27.936  0.00  0.00    +0.048 C 
ATOM      3  C   UNL     1       4.182  -4.047  26.792  0.00  0.00    -0.002 A 
ATOM      4  C   UNL     1       3.822  -5.234  26.117  0.00  0.00    +0.123 A 
ATOM      5  C   UNL     1       4.558  -5.745  25.034  0.00  0.00    -0.002 A 
ATOM      6  C   UNL     1       4.142  -7.039  24.380  0.00  0.00    +0.048 C 
ATOM      7  C   UNL     1       5.691  -5.026  24.596  0.00  0.00    +0.001 A 
ATOM      8  C   UNL     1       6.491  -5.505  23.413  0.00  0.00    +0.043 C 
ATOM      9  C   UNL     1       7.528  -4.490  22.974  0.00  0.00    +0.056 C 
ATOM     10  C   UNL     1       8.226  -3.878  24.193  0.00  0.00    +0.142 C 
ATOM     11  O   UNL     1       7.249  -3.175  24.984  0.00  0.00    -0.482 OA
ATOM     12  C   UNL     1       8.951  -4.922  25.069  0.00  0.00    +0.059 C 
ATOM     13  C   UNL     1       6.094  -3.869  25.297  0.00  0.00    +0.128 A 
ATOM     14  C   UNL     1       5.340  -3.354  26.377  0.00  0.00    -0.002 A 
ATOM     15  C   UNL     1       5.828  -2.085  27.029  0.00  0.00    +0.048 C 
BRANCH   4  16
ATOM     16  O   UNL     1       2.697  -5.876  26.578  0.00  0.00    -0.506 OA
ATOM     17  H   UNL     1       2.116  -5.249  27.032  0.00  0.00    +0.292 HD
ENDBRANCH   4  16
ENDBRANCH   1  10
BRANCH   1  18
ATOM     18  O   UNL     1       8.792  -2.250  22.499  0.00  0.00    -0.488 OA
BRANCH  18  19
ATOM     19  C   UNL     1       8.447  -0.934  22.503  0.00  0.00    +0.121 A 
ATOM     20  C   UNL     1       9.264  -0.128  21.706  0.00  0.00    +0.046 A 
ATOM     21  C   UNL     1       9.002   1.234  21.559  0.00  0.00    +0.007 A 
ATOM     22  C   UNL     1       7.907   1.818  22.207  0.00  0.00    -0.046 A 
ATOM     23  C   UNL     1       7.114   1.013  23.039  0.00  0.00    +0.007 A 
ATOM     24  C   UNL     1       7.386  -0.355  23.190  0.00  0.00    +0.046 A 
BRANCH  22  25
ATOM     25  C   UNL     1       7.545   3.258  21.913  0.00  0.00    +0.059 C 
BRANCH  25  26
ATOM     26  C   UNL     1       7.620   4.234  23.089  0.00  0.00    +0.146 C 
ATOM     27  C   UNL     1       7.628   5.654  22.560  0.00  0.00    +0.234 C 
ATOM     28  O   UNL     1       6.684   6.194  21.998  0.00  0.00    -0.274 OA
ATOM     29  N   UNL     1       8.813   6.286  22.787  0.00  0.00    -0.246 N 
ATOM     30  H   UNL     1       8.931   7.254  22.532  0.00  0.00    +0.158 HD
ATOM     31  C   UNL     1       9.683   5.712  23.649  0.00  0.00    +0.279 C 
ATOM     32  O   UNL     1      10.659   6.258  24.133  0.00  0.00    -0.263 OA
ATOM     33  S   UNL     1       9.177   4.088  24.034  0.00  0.00    -0.054 S 
ENDBRANCH  25  26
ENDBRANCH  22  25
ENDBRANCH  18  19
ENDBRANCH   1  18
TORSDOF 6
ENDMDL
