MODEL 1
REMARK VINA RESULT:      -4.5      0.000      0.000
REMARK  Name = 
REMARK  29 active torsions:
REMARK  status: ('A' for Active; 'I' for Inactive)
REMARK    1  A    between atoms: C_1  and  C_2
REMARK    2  A    between atoms: C_2  and  C_3
REMARK    3  A    between atoms: C_3  and  C_4
REMARK    4  A    between atoms: C_4  and  C_5
REMARK    5  A    between atoms: C_5  and  C_6
REMARK    6  A    between atoms: C_6  and  C_7
REMARK    7  A    between atoms: C_7  and  C_8
REMARK    8  A    between atoms: C_8  and  C_9
REMARK    9  A    between atoms: C_9  and  C_10
REMARK   10  A    between atoms: C_10  and  C_11
REMARK   11  A    between atoms: C_11  and  C_12
REMARK   12  A    between atoms: C_12  and  C_13
REMARK   13  A    between atoms: C_13  and  C_15
REMARK   14  A    between atoms: C_13  and  O_19
REMARK   15  A    between atoms: C_15  and  C_16
REMARK   16  A    between atoms: C_16  and  O_17
REMARK   17  A    between atoms: O_19  and  C_20
REMARK   18  A    between atoms: C_20  and  C_22
REMARK   19  A    between atoms: C_22  and  C_23
REMARK   20  A    between atoms: C_23  and  C_24
REMARK   21  A    between atoms: C_24  and  C_25
REMARK   22  A    between atoms: C_25  and  C_26
REMARK   23  A    between atoms: C_26  and  C_27
REMARK   24  A    between atoms: C_27  and  C_28
REMARK   25  A    between atoms: C_28  and  C_29
REMARK   26  A    between atoms: C_29  and  C_30
REMARK   27  A    between atoms: C_30  and  C_31
REMARK   28  A    between atoms: C_31  and  C_32
REMARK   29  A    between atoms: C_32  and  C_33
REMARK                            x       y       z     vdW  Elec       q    Type
REMARK                         _______ _______ _______ _____ _____    ______ ____
ROOT
ATOM      1  C   UNL     1       7.687  -3.830  23.737  0.00  0.00    +0.187 C 
ENDROOT
BRANCH   1   2
ATOM      2  C   UNL     1       8.286  -5.124  24.267  0.00  0.00    +0.165 C 
BRANCH   2   3
ATOM      3  C   UNL     1       9.308  -4.972  25.369  0.00  0.00    +0.308 C 
ATOM      4  O   UNL     1       8.985  -4.621  26.497  0.00  0.00    -0.251 OA
BRANCH   3   5
ATOM      5  O   UNL     1      10.577  -5.323  25.091  0.00  0.00    -0.481 OA
ATOM      6  H   UNL     1      10.973  -6.087  25.555  0.00  0.00    +0.295 HD
ENDBRANCH   3   5
ENDBRANCH   2   3
ENDBRANCH   1   2
BRANCH   1   7
ATOM      7  O   UNL     1       7.300  -4.017  22.359  0.00  0.00    -0.461 OA
BRANCH   7   8
ATOM      8  C   UNL     1       5.995  -3.756  22.057  0.00  0.00    +0.307 C 
ATOM      9  O   UNL     1       5.565  -3.663  20.915  0.00  0.00    -0.251 OA
BRANCH   8  10
ATOM     10  C   UNL     1       5.187  -3.561  23.318  0.00  0.00    +0.120 C 
BRANCH  10  11
ATOM     11  C   UNL     1       3.968  -4.482  23.390  0.00  0.00    +0.011 C 
BRANCH  11  12
ATOM     12  C   UNL     1       4.332  -5.957  23.199  0.00  0.00    +0.001 C 
BRANCH  12  13
ATOM     13  C   UNL     1       4.977  -6.545  24.456  0.00  0.00    +0.000 C 
BRANCH  13  14
ATOM     14  C   UNL     1       3.914  -6.959  25.472  0.00  0.00    +0.000 C 
BRANCH  14  15
ATOM     15  C   UNL     1       4.306  -6.549  26.892  0.00  0.00    +0.000 C 
BRANCH  15  16
ATOM     16  C   UNL     1       5.708  -5.942  26.915  0.00  0.00    -0.000 C 
BRANCH  16  17
ATOM     17  C   UNL     1       5.744  -4.660  27.747  0.00  0.00    -0.000 C 
BRANCH  17  18
ATOM     18  C   UNL     1       5.623  -3.425  26.854  0.00  0.00    -0.000 C 
BRANCH  18  19
ATOM     19  C   UNL     1       4.875  -2.301  27.570  0.00  0.00    -0.000 C 
BRANCH  19  20
ATOM     20  C   UNL     1       3.641  -1.867  26.782  0.00  0.00    -0.003 C 
ATOM     21  C   UNL     1       2.755  -3.056  26.448  0.00  0.00    +0.004 C 
ENDBRANCH  19  20
ENDBRANCH  18  19
ENDBRANCH  17  18
ENDBRANCH  16  17
ENDBRANCH  15  16
ENDBRANCH  14  15
ENDBRANCH  13  14
ENDBRANCH  12  13
ENDBRANCH  11  12
ENDBRANCH  10  11
ENDBRANCH   8  10
ENDBRANCH   7   8
ENDBRANCH   1   7
BRANCH   1  22
ATOM     22  C   UNL     1       8.703  -2.678  23.793  0.00  0.00    +0.045 C 
BRANCH  22  23
ATOM     23  C   UNL     1       8.148  -1.526  24.630  0.00  0.00    +0.004 C 
BRANCH  23  24
ATOM     24  C   UNL     1       7.246  -0.594  23.833  0.00  0.00    +0.000 C 
BRANCH  24  25
ATOM     25  C   UNL     1       6.138  -0.082  24.750  0.00  0.00    +0.000 C 
BRANCH  25  26
ATOM     26  C   UNL     1       5.790   1.370  24.461  0.00  0.00    +0.000 C 
BRANCH  26  27
ATOM     27  C   UNL     1       6.272   1.752  23.065  0.00  0.00    -0.000 C 
BRANCH  27  28
ATOM     28  C   UNL     1       6.718   3.208  23.035  0.00  0.00    -0.000 C 
BRANCH  28  29
ATOM     29  C   UNL     1       8.148   3.330  22.519  0.00  0.00    -0.000 C 
BRANCH  29  30
ATOM     30  C   UNL     1       8.549   2.062  21.772  0.00  0.00    -0.000 C 
BRANCH  30  31
ATOM     31  C   UNL     1       9.977   1.650  22.116  0.00  0.00    -0.000 C 
BRANCH  31  33
ATOM     32  C   UNL     1      10.811   0.917  24.368  0.00  0.00    +0.004 C 
ATOM     33  C   UNL     1      10.343   2.094  23.529  0.00  0.00    -0.003 C 
ENDBRANCH  31  33
ENDBRANCH  30  31
ENDBRANCH  29  30
ENDBRANCH  28  29
ENDBRANCH  27  28
ENDBRANCH  26  27
ENDBRANCH  25  26
ENDBRANCH  24  25
ENDBRANCH  23  24
ENDBRANCH  22  23
ENDBRANCH   1  22
TORSDOF 27
ENDMDL
MODEL 2
REMARK VINA RESULT:      -4.5      3.965      7.219
REMARK  Name = 
REMARK  29 active torsions:
REMARK  status: ('A' for Active; 'I' for Inactive)
REMARK    1  A    between atoms: C_1  and  C_2
REMARK    2  A    between atoms: C_2  and  C_3
REMARK    3  A    between atoms: C_3  and  C_4
REMARK    4  A    between atoms: C_4  and  C_5
REMARK    5  A    between atoms: C_5  and  C_6
REMARK    6  A    between atoms: C_6  and  C_7
REMARK    7  A    between atoms: C_7  and  C_8
REMARK    8  A    between atoms: C_8  and  C_9
REMARK    9  A    between atoms: C_9  and  C_10
REMARK   10  A    between atoms: C_10  and  C_11
REMARK   11  A    between atoms: C_11  and  C_12
REMARK   12  A    between atoms: C_12  and  C_13
REMARK   13  A    between atoms: C_13  and  C_15
REMARK   14  A    between atoms: C_13  and  O_19
REMARK   15  A    between atoms: C_15  and  C_16
REMARK   16  A    between atoms: C_16  and  O_17
REMARK   17  A    between atoms: O_19  and  C_20
REMARK   18  A    between atoms: C_20  and  C_22
REMARK   19  A    between atoms: C_22  and  C_23
REMARK   20  A    between atoms: C_23  and  C_24
REMARK   21  A    between atoms: C_24  and  C_25
REMARK   22  A    between atoms: C_25  and  C_26
REMARK   23  A    between atoms: C_26  and  C_27
REMARK   24  A    between atoms: C_27  and  C_28
REMARK   25  A    between atoms: C_28  and  C_29
REMARK   26  A    between atoms: C_29  and  C_30
REMARK   27  A    between atoms: C_30  and  C_31
REMARK   28  A    between atoms: C_31  and  C_32
REMARK   29  A    between atoms: C_32  and  C_33
REMARK                            x       y       z     vdW  Elec       q    Type
REMARK                         _______ _______ _______ _____ _____    ______ ____
ROOT
ATOM      1  C   UNL     1      11.071   4.546  23.949  0.00  0.00    +0.187 C 
ENDROOT
BRANCH   1   2
ATOM      2  C   UNL     1      11.905   5.738  23.503  0.00  0.00    +0.165 C 
BRANCH   2   3
ATOM      3  C   UNL     1      13.137   5.413  22.693  0.00  0.00    +0.308 C 
ATOM      4  O   UNL     1      13.204   5.673  21.497  0.00  0.00    -0.251 OA
BRANCH   3   5
ATOM      5  O   UNL     1      14.197   4.908  23.350  0.00  0.00    -0.481 OA
ATOM      6  H   UNL     1      14.701   4.173  22.949  0.00  0.00    +0.295 HD
ENDBRANCH   3   5
ENDBRANCH   2   3
ENDBRANCH   1   2
BRANCH   1   7
ATOM      7  O   UNL     1      11.245   3.468  23.004  0.00  0.00    -0.461 OA
BRANCH   7   8
ATOM      8  C   UNL     1      10.514   2.339  23.235  0.00  0.00    +0.307 C 
ATOM      9  O   UNL     1      10.481   1.757  24.311  0.00  0.00    -0.251 OA
BRANCH   8  10
ATOM     10  C   UNL     1       9.800   1.901  21.978  0.00  0.00    +0.120 C 
BRANCH  10  11
ATOM     11  C   UNL     1       8.387   1.383  22.249  0.00  0.00    +0.011 C 
BRANCH  11  12
ATOM     12  C   UNL     1       8.330  -0.143  22.364  0.00  0.00    +0.001 C 
BRANCH  12  13
ATOM     13  C   UNL     1       9.538  -0.802  21.695  0.00  0.00    +0.000 C 
BRANCH  13  14
ATOM     14  C   UNL     1      10.392  -1.546  22.721  0.00  0.00    +0.000 C 
BRANCH  14  15
ATOM     15  C   UNL     1       9.614  -1.812  24.010  0.00  0.00    +0.000 C 
BRANCH  15  16
ATOM     16  C   UNL     1       9.478  -3.313  24.263  0.00  0.00    -0.000 C 
BRANCH  16  17
ATOM     17  C   UNL     1       8.100  -3.656  24.829  0.00  0.00    -0.000 C 
BRANCH  17  18
ATOM     18  C   UNL     1       6.989  -3.148  23.911  0.00  0.00    -0.000 C 
BRANCH  18  19
ATOM     19  C   UNL     1       6.258  -4.309  23.238  0.00  0.00    -0.000 C 
BRANCH  19  20
ATOM     20  C   UNL     1       7.135  -4.977  22.181  0.00  0.00    -0.003 C 
ATOM     21  C   UNL     1       6.319  -5.905  21.295  0.00  0.00    +0.004 C 
ENDBRANCH  19  20
ENDBRANCH  18  19
ENDBRANCH  17  18
ENDBRANCH  16  17
ENDBRANCH  15  16
ENDBRANCH  14  15
ENDBRANCH  13  14
ENDBRANCH  12  13
ENDBRANCH  11  12
ENDBRANCH  10  11
ENDBRANCH   8  10
ENDBRANCH   7   8
ENDBRANCH   1   7
BRANCH   1  22
ATOM     22  C   UNL     1       9.576   4.897  24.001  0.00  0.00    +0.045 C 
BRANCH  22  23
ATOM     23  C   UNL     1       9.343   6.298  23.438  0.00  0.00    +0.004 C 
BRANCH  23  24
ATOM     24  C   UNL     1       8.062   6.405  22.624  0.00  0.00    +0.000 C 
BRANCH  24  25
ATOM     25  C   UNL     1       6.890   5.953  23.491  0.00  0.00    +0.000 C 
BRANCH  25  26
ATOM     26  C   UNL     1       6.016   4.936  22.775  0.00  0.00    +0.000 C 
BRANCH  26  27
ATOM     27  C   UNL     1       5.949   3.645  23.586  0.00  0.00    -0.000 C 
BRANCH  27  28
ATOM     28  C   UNL     1       6.124   3.938  25.070  0.00  0.00    -0.000 C 
BRANCH  28  29
ATOM     29  C   UNL     1       5.974   2.666  25.898  0.00  0.00    -0.000 C 
BRANCH  29  30
ATOM     30  C   UNL     1       5.531   1.507  25.011  0.00  0.00    -0.000 C 
BRANCH  30  31
ATOM     31  C   UNL     1       6.281   0.227  25.363  0.00  0.00    -0.000 C 
BRANCH  31  33
ATOM     32  C   UNL     1       8.017  -0.533  27.010  0.00  0.00    +0.004 C 
ATOM     33  C   UNL     1       7.622   0.547  26.018  0.00  0.00    -0.003 C 
ENDBRANCH  31  33
ENDBRANCH  30  31
ENDBRANCH  29  30
ENDBRANCH  28  29
ENDBRANCH  27  28
ENDBRANCH  26  27
ENDBRANCH  25  26
ENDBRANCH  24  25
ENDBRANCH  23  24
ENDBRANCH  22  23
ENDBRANCH   1  22
TORSDOF 27
ENDMDL
MODEL 3
REMARK VINA RESULT:      -4.5      1.854      7.410
REMARK  Name = 
REMARK  29 active torsions:
REMARK  status: ('A' for Active; 'I' for Inactive)
REMARK    1  A    between atoms: C_1  and  C_2
REMARK    2  A    between atoms: C_2  and  C_3
REMARK    3  A    between atoms: C_3  and  C_4
REMARK    4  A    between atoms: C_4  and  C_5
REMARK    5  A    between atoms: C_5  and  C_6
REMARK    6  A    between atoms: C_6  and  C_7
REMARK    7  A    between atoms: C_7  and  C_8
REMARK    8  A    between atoms: C_8  and  C_9
REMARK    9  A    between atoms: C_9  and  C_10
REMARK   10  A    between atoms: C_10  and  C_11
REMARK   11  A    between atoms: C_11  and  C_12
REMARK   12  A    between atoms: C_12  and  C_13
REMARK   13  A    between atoms: C_13  and  C_15
REMARK   14  A    between atoms: C_13  and  O_19
REMARK   15  A    between atoms: C_15  and  C_16
REMARK   16  A    between atoms: C_16  and  O_17
REMARK   17  A    between atoms: O_19  and  C_20
REMARK   18  A    between atoms: C_20  and  C_22
REMARK   19  A    between atoms: C_22  and  C_23
REMARK   20  A    between atoms: C_23  and  C_24
REMARK   21  A    between atoms: C_24  and  C_25
REMARK   22  A    between atoms: C_25  and  C_26
REMARK   23  A    between atoms: C_26  and  C_27
REMARK   24  A    between atoms: C_27  and  C_28
REMARK   25  A    between atoms: C_28  and  C_29
REMARK   26  A    between atoms: C_29  and  C_30
REMARK   27  A    between atoms: C_30  and  C_31
REMARK   28  A    between atoms: C_31  and  C_32
REMARK   29  A    between atoms: C_32  and  C_33
REMARK                            x       y       z     vdW  Elec       q    Type
REMARK                         _______ _______ _______ _____ _____    ______ ____
ROOT
ATOM      1  C   UNL     1       8.515  -2.683  25.105  0.00  0.00    +0.187 C 
ENDROOT
BRANCH   1   2
ATOM      2  C   UNL     1       8.455  -4.078  25.708  0.00  0.00    +0.165 C 
BRANCH   2   3
ATOM      3  C   UNL     1       9.231  -5.145  24.974  0.00  0.00    +0.308 C 
ATOM      4  O   UNL     1       8.828  -5.617  23.917  0.00  0.00    -0.251 OA
BRANCH   3   5
ATOM      5  O   UNL     1      10.429  -5.498  25.476  0.00  0.00    -0.481 OA
ATOM      6  H   UNL     1      11.123  -5.824  24.870  0.00  0.00    +0.295 HD
ENDBRANCH   3   5
ENDBRANCH   2   3
ENDBRANCH   1   2
BRANCH   1   7
ATOM      7  O   UNL     1       9.744  -2.541  24.360  0.00  0.00    -0.461 OA
BRANCH   7   8
ATOM      8  C   UNL     1       9.677  -1.794  23.221  0.00  0.00    +0.307 C 
ATOM      9  O   UNL     1       8.923  -2.039  22.289  0.00  0.00    -0.251 OA
BRANCH   8  10
ATOM     10  C   UNL     1      10.682  -0.666  23.265  0.00  0.00    +0.120 C 
BRANCH  10  11
ATOM     11  C   UNL     1      10.024   0.713  23.322  0.00  0.00    +0.011 C 
BRANCH  11  12
ATOM     12  C   UNL     1       9.860   1.347  21.938  0.00  0.00    +0.001 C 
BRANCH  12  13
ATOM     13  C   UNL     1       8.519   2.073  21.809  0.00  0.00    +0.000 C 
BRANCH  13  14
ATOM     14  C   UNL     1       7.600   1.737  22.983  0.00  0.00    +0.000 C 
BRANCH  14  15
ATOM     15  C   UNL     1       7.183   2.994  23.746  0.00  0.00    +0.000 C 
BRANCH  15  16
ATOM     16  C   UNL     1       8.044   3.184  24.994  0.00  0.00    -0.000 C 
BRANCH  16  17
ATOM     17  C   UNL     1       8.570   4.616  25.092  0.00  0.00    -0.000 C 
BRANCH  17  18
ATOM     18  C   UNL     1       9.215   5.053  23.777  0.00  0.00    -0.000 C 
BRANCH  18  19
ATOM     19  C   UNL     1      10.666   5.483  23.994  0.00  0.00    -0.000 C 
BRANCH  19  20
ATOM     20  C   UNL     1      11.638   4.494  23.357  0.00  0.00    -0.003 C 
ATOM     21  C   UNL     1      12.941   5.174  22.968  0.00  0.00    +0.004 C 
ENDBRANCH  19  20
ENDBRANCH  18  19
ENDBRANCH  17  18
ENDBRANCH  16  17
ENDBRANCH  15  16
ENDBRANCH  14  15
ENDBRANCH  13  14
ENDBRANCH  12  13
ENDBRANCH  11  12
ENDBRANCH  10  11
ENDBRANCH   8  10
ENDBRANCH   7   8
ENDBRANCH   1   7
BRANCH   1  22
ATOM     22  C   UNL     1       8.492  -1.600  26.195  0.00  0.00    +0.045 C 
BRANCH  22  23
ATOM     23  C   UNL     1       7.458  -0.528  25.852  0.00  0.00    +0.004 C 
BRANCH  23  24
ATOM     24  C   UNL     1       6.306  -1.062  25.014  0.00  0.00    +0.000 C 
BRANCH  24  25
ATOM     25  C   UNL     1       5.138  -1.393  25.940  0.00  0.00    +0.000 C 
BRANCH  25  26
ATOM     26  C   UNL     1       4.847  -2.885  25.971  0.00  0.00    +0.000 C 
BRANCH  26  27
ATOM     27  C   UNL     1       3.537  -3.176  25.244  0.00  0.00    -0.000 C 
BRANCH  27  28
ATOM     28  C   UNL     1       3.469  -4.640  24.833  0.00  0.00    -0.000 C 
BRANCH  28  29
ATOM     29  C   UNL     1       4.768  -5.363  25.173  0.00  0.00    -0.000 C 
BRANCH  29  30
ATOM     30  C   UNL     1       5.255  -6.166  23.971  0.00  0.00    -0.000 C 
BRANCH  30  31
ATOM     31  C   UNL     1       4.957  -5.437  22.665  0.00  0.00    -0.000 C 
BRANCH  31  33
ATOM     32  C   UNL     1       5.620  -3.101  22.027  0.00  0.00    +0.004 C 
ATOM     33  C   UNL     1       6.112  -4.515  22.284  0.00  0.00    -0.003 C 
ENDBRANCH  31  33
ENDBRANCH  30  31
ENDBRANCH  29  30
ENDBRANCH  28  29
ENDBRANCH  27  28
ENDBRANCH  26  27
ENDBRANCH  25  26
ENDBRANCH  24  25
ENDBRANCH  23  24
ENDBRANCH  22  23
ENDBRANCH   1  22
TORSDOF 27
ENDMDL
MODEL 4
REMARK VINA RESULT:      -4.5      1.914      6.803
REMARK  Name = 
REMARK  29 active torsions:
REMARK  status: ('A' for Active; 'I' for Inactive)
REMARK    1  A    between atoms: C_1  and  C_2
REMARK    2  A    between atoms: C_2  and  C_3
REMARK    3  A    between atoms: C_3  and  C_4
REMARK    4  A    between atoms: C_4  and  C_5
REMARK    5  A    between atoms: C_5  and  C_6
REMARK    6  A    between atoms: C_6  and  C_7
REMARK    7  A    between atoms: C_7  and  C_8
REMARK    8  A    between atoms: C_8  and  C_9
REMARK    9  A    between atoms: C_9  and  C_10
REMARK   10  A    between atoms: C_10  and  C_11
REMARK   11  A    between atoms: C_11  and  C_12
REMARK   12  A    between atoms: C_12  and  C_13
REMARK   13  A    between atoms: C_13  and  C_15
REMARK   14  A    between atoms: C_13  and  O_19
REMARK   15  A    between atoms: C_15  and  C_16
REMARK   16  A    between atoms: C_16  and  O_17
REMARK   17  A    between atoms: O_19  and  C_20
REMARK   18  A    between atoms: C_20  and  C_22
REMARK   19  A    between atoms: C_22  and  C_23
REMARK   20  A    between atoms: C_23  and  C_24
REMARK   21  A    between atoms: C_24  and  C_25
REMARK   22  A    between atoms: C_25  and  C_26
REMARK   23  A    between atoms: C_26  and  C_27
REMARK   24  A    between atoms: C_27  and  C_28
REMARK   25  A    between atoms: C_28  and  C_29
REMARK   26  A    between atoms: C_29  and  C_30
REMARK   27  A    between atoms: C_30  and  C_31
REMARK   28  A    between atoms: C_31  and  C_32
REMARK   29  A    between atoms: C_32  and  C_33
REMARK                            x       y       z     vdW  Elec       q    Type
REMARK                         _______ _______ _______ _____ _____    ______ ____
ROOT
ATOM      1  C   UNL     1       7.040  -3.777  26.080  0.00  0.00    +0.187 C 
ENDROOT
BRANCH   1   2
ATOM      2  C   UNL     1       7.895  -4.739  25.269  0.00  0.00    +0.165 C 
BRANCH   2   3
ATOM      3  C   UNL     1       9.340  -4.851  25.691  0.00  0.00    +0.308 C 
ATOM      4  O   UNL     1      10.253  -4.759  24.880  0.00  0.00    -0.251 OA
BRANCH   3   5
ATOM      5  O   UNL     1       9.595  -4.964  27.008  0.00  0.00    -0.481 OA
ATOM      6  H   UNL     1       9.694  -5.854  27.400  0.00  0.00    +0.295 HD
ENDBRANCH   3   5
ENDBRANCH   2   3
ENDBRANCH   1   2
BRANCH   1   7
ATOM      7  O   UNL     1       7.901  -2.862  26.790  0.00  0.00    -0.461 OA
BRANCH   7   8
ATOM      8  C   UNL     1       7.974  -1.593  26.294  0.00  0.00    +0.307 C 
ATOM      9  O   UNL     1       8.946  -0.862  26.431  0.00  0.00    -0.251 OA
BRANCH   8  10
ATOM     10  C   UNL     1       6.686  -1.219  25.599  0.00  0.00    +0.120 C 
BRANCH  10  11
ATOM     11  C   UNL     1       6.907  -0.703  24.176  0.00  0.00    +0.011 C 
BRANCH  11  12
ATOM     12  C   UNL     1       6.539  -1.738  23.109  0.00  0.00    +0.001 C 
BRANCH  12  13
ATOM     13  C   UNL     1       7.702  -1.992  22.148  0.00  0.00    +0.000 C 
BRANCH  13  14
ATOM     14  C   UNL     1       9.025  -2.095  22.908  0.00  0.00    +0.000 C 
BRANCH  14  15
ATOM     15  C   UNL     1      10.121  -1.268  22.237  0.00  0.00    +0.000 C 
BRANCH  15  16
ATOM     16  C   UNL     1      10.279   0.088  22.924  0.00  0.00    -0.000 C 
BRANCH  16  17
ATOM     17  C   UNL     1      10.004   1.237  21.954  0.00  0.00    -0.000 C 
BRANCH  17  18
ATOM     18  C   UNL     1       8.539   1.667  22.015  0.00  0.00    -0.000 C 
BRANCH  18  19
ATOM     19  C   UNL     1       8.388   2.998  22.751  0.00  0.00    -0.000 C 
BRANCH  19  20
ATOM     20  C   UNL     1       9.095   2.966  24.104  0.00  0.00    -0.003 C 
ATOM     21  C   UNL     1       8.123   2.639  25.227  0.00  0.00    +0.004 C 
ENDBRANCH  19  20
ENDBRANCH  18  19
ENDBRANCH  17  18
ENDBRANCH  16  17
ENDBRANCH  15  16
ENDBRANCH  14  15
ENDBRANCH  13  14
ENDBRANCH  12  13
ENDBRANCH  11  12
ENDBRANCH  10  11
ENDBRANCH   8  10
ENDBRANCH   7   8
ENDBRANCH   1   7
BRANCH   1  22
ATOM     22  C   UNL     1       6.184  -4.525  27.114  0.00  0.00    +0.045 C 
BRANCH  22  23
ATOM     23  C   UNL     1       6.056  -5.998  26.728  0.00  0.00    +0.004 C 
BRANCH  23  24
ATOM     24  C   UNL     1       4.777  -6.639  27.246  0.00  0.00    +0.000 C 
BRANCH  24  25
ATOM     25  C   UNL     1       3.976  -5.587  28.009  0.00  0.00    +0.000 C 
BRANCH  25  26
ATOM     26  C   UNL     1       2.533  -5.521  27.536  0.00  0.00    +0.000 C 
BRANCH  26  27
ATOM     27  C   UNL     1       2.489  -5.267  26.032  0.00  0.00    -0.000 C 
BRANCH  27  28
ATOM     28  C   UNL     1       2.702  -3.789  25.735  0.00  0.00    -0.000 C 
BRANCH  28  29
ATOM     29  C   UNL     1       3.677  -3.600  24.578  0.00  0.00    -0.000 C 
BRANCH  29  30
ATOM     30  C   UNL     1       4.011  -4.946  23.943  0.00  0.00    -0.000 C 
BRANCH  30  31
ATOM     31  C   UNL     1       5.032  -4.787  22.821  0.00  0.00    -0.000 C 
BRANCH  31  33
ATOM     32  C   UNL     1       7.049  -5.864  21.783  0.00  0.00    +0.004 C 
ATOM     33  C   UNL     1       5.773  -6.098  22.574  0.00  0.00    -0.003 C 
ENDBRANCH  31  33
ENDBRANCH  30  31
ENDBRANCH  29  30
ENDBRANCH  28  29
ENDBRANCH  27  28
ENDBRANCH  26  27
ENDBRANCH  25  26
ENDBRANCH  24  25
ENDBRANCH  23  24
ENDBRANCH  22  23
ENDBRANCH   1  22
TORSDOF 27
ENDMDL
MODEL 5
REMARK VINA RESULT:      -4.5      1.560      7.350
REMARK  Name = 
REMARK  29 active torsions:
REMARK  status: ('A' for Active; 'I' for Inactive)
REMARK    1  A    between atoms: C_1  and  C_2
REMARK    2  A    between atoms: C_2  and  C_3
REMARK    3  A    between atoms: C_3  and  C_4
REMARK    4  A    between atoms: C_4  and  C_5
REMARK    5  A    between atoms: C_5  and  C_6
REMARK    6  A    between atoms: C_6  and  C_7
REMARK    7  A    between atoms: C_7  and  C_8
REMARK    8  A    between atoms: C_8  and  C_9
REMARK    9  A    between atoms: C_9  and  C_10
REMARK   10  A    between atoms: C_10  and  C_11
REMARK   11  A    between atoms: C_11  and  C_12
REMARK   12  A    between atoms: C_12  and  C_13
REMARK   13  A    between atoms: C_13  and  C_15
REMARK   14  A    between atoms: C_13  and  O_19
REMARK   15  A    between atoms: C_15  and  C_16
REMARK   16  A    between atoms: C_16  and  O_17
REMARK   17  A    between atoms: O_19  and  C_20
REMARK   18  A    between atoms: C_20  and  C_22
REMARK   19  A    between atoms: C_22  and  C_23
REMARK   20  A    between atoms: C_23  and  C_24
REMARK   21  A    between atoms: C_24  and  C_25
REMARK   22  A    between atoms: C_25  and  C_26
REMARK   23  A    between atoms: C_26  and  C_27
REMARK   24  A    between atoms: C_27  and  C_28
REMARK   25  A    between atoms: C_28  and  C_29
REMARK   26  A    between atoms: C_29  and  C_30
REMARK   27  A    between atoms: C_30  and  C_31
REMARK   28  A    between atoms: C_31  and  C_32
REMARK   29  A    between atoms: C_32  and  C_33
REMARK                            x       y       z     vdW  Elec       q    Type
REMARK                         _______ _______ _______ _____ _____    ______ ____
ROOT
ATOM      1  C   UNL     1       7.370  -4.645  23.549  0.00  0.00    +0.187 C 
ENDROOT
BRANCH   1   2
ATOM      2  C   UNL     1       6.845  -5.806  22.717  0.00  0.00    +0.165 C 
BRANCH   2   3
ATOM      3  C   UNL     1       6.101  -5.429  21.459  0.00  0.00    +0.308 C 
ATOM      4  O   UNL     1       6.158  -6.120  20.449  0.00  0.00    -0.251 OA
BRANCH   3   5
ATOM      5  O   UNL     1       5.297  -4.350  21.513  0.00  0.00    -0.481 OA
ATOM      6  H   UNL     1       4.404  -4.400  21.119  0.00  0.00    +0.295 HD
ENDBRANCH   3   5
ENDBRANCH   2   3
ENDBRANCH   1   2
BRANCH   1   7
ATOM      7  O   UNL     1       7.770  -3.574  22.668  0.00  0.00    -0.461 OA
BRANCH   7   8
ATOM      8  C   UNL     1       7.269  -2.338  22.954  0.00  0.00    +0.307 C 
ATOM      9  O   UNL     1       6.155  -2.145  23.421  0.00  0.00    -0.251 OA
BRANCH   8  10
ATOM     10  C   UNL     1       8.261  -1.262  22.577  0.00  0.00    +0.120 C 
BRANCH  10  11
ATOM     11  C   UNL     1       9.703  -1.638  22.920  0.00  0.00    +0.011 C 
BRANCH  11  12
ATOM     12  C   UNL     1      10.039  -1.402  24.396  0.00  0.00    +0.001 C 
BRANCH  12  13
ATOM     13  C   UNL     1       9.656   0.011  24.840  0.00  0.00    +0.000 C 
BRANCH  13  14
ATOM     14  C   UNL     1      10.722   1.023  24.422  0.00  0.00    +0.000 C 
BRANCH  14  15
ATOM     15  C   UNL     1      10.098   2.252  23.762  0.00  0.00    +0.000 C 
BRANCH  15  16
ATOM     16  C   UNL     1       9.992   2.064  22.249  0.00  0.00    -0.000 C 
BRANCH  16  17
ATOM     17  C   UNL     1       8.535   2.072  21.789  0.00  0.00    -0.000 C 
BRANCH  17  18
ATOM     18  C   UNL     1       7.814   3.328  22.278  0.00  0.00    -0.000 C 
BRANCH  18  19
ATOM     19  C   UNL     1       6.383   3.009  22.708  0.00  0.00    -0.000 C 
BRANCH  19  20
ATOM     20  C   UNL     1       6.312   1.676  23.450  0.00  0.00    -0.003 C 
ATOM     21  C   UNL     1       6.519   1.865  24.944  0.00  0.00    +0.004 C 
ENDBRANCH  19  20
ENDBRANCH  18  19
ENDBRANCH  17  18
ENDBRANCH  16  17
ENDBRANCH  15  16
ENDBRANCH  14  15
ENDBRANCH  13  14
ENDBRANCH  12  13
ENDBRANCH  11  12
ENDBRANCH  10  11
ENDBRANCH   8  10
ENDBRANCH   7   8
ENDBRANCH   1   7
BRANCH   1  22
ATOM     22  C   UNL     1       8.595  -5.061  24.380  0.00  0.00    +0.045 C 
BRANCH  22  23
ATOM     23  C   UNL     1       8.245  -5.070  25.867  0.00  0.00    +0.004 C 
BRANCH  23  24
ATOM     24  C   UNL     1       7.706  -3.734  26.359  0.00  0.00    +0.000 C 
BRANCH  24  25
ATOM     25  C   UNL     1       6.462  -3.989  27.205  0.00  0.00    +0.000 C 
BRANCH  25  26
ATOM     26  C   UNL     1       6.231  -5.473  27.440  0.00  0.00    +0.000 C 
BRANCH  26  27
ATOM     27  C   UNL     1       4.833  -5.699  28.008  0.00  0.00    -0.000 C 
BRANCH  27  28
ATOM     28  C   UNL     1       4.029  -6.616  27.096  0.00  0.00    -0.000 C 
BRANCH  28  29
ATOM     29  C   UNL     1       4.639  -6.667  25.699  0.00  0.00    -0.000 C 
BRANCH  29  30
ATOM     30  C   UNL     1       3.688  -6.040  24.685  0.00  0.00    -0.000 C 
BRANCH  30  31
ATOM     31  C   UNL     1       3.862  -4.525  24.631  0.00  0.00    -0.000 C 
BRANCH  31  33
ATOM     32  C   UNL     1       2.867  -2.885  26.250  0.00  0.00    +0.004 C 
ATOM     33  C   UNL     1       2.588  -3.817  25.084  0.00  0.00    -0.003 C 
ENDBRANCH  31  33
ENDBRANCH  30  31
ENDBRANCH  29  30
ENDBRANCH  28  29
ENDBRANCH  27  28
ENDBRANCH  26  27
ENDBRANCH  25  26
ENDBRANCH  24  25
ENDBRANCH  23  24
ENDBRANCH  22  23
ENDBRANCH   1  22
TORSDOF 27
ENDMDL
MODEL 6
REMARK VINA RESULT:      -4.5      4.121      8.082
REMARK  Name = 
REMARK  29 active torsions:
REMARK  status: ('A' for Active; 'I' for Inactive)
REMARK    1  A    between atoms: C_1  and  C_2
REMARK    2  A    between atoms: C_2  and  C_3
REMARK    3  A    between atoms: C_3  and  C_4
REMARK    4  A    between atoms: C_4  and  C_5
REMARK    5  A    between atoms: C_5  and  C_6
REMARK    6  A    between atoms: C_6  and  C_7
REMARK    7  A    between atoms: C_7  and  C_8
REMARK    8  A    between atoms: C_8  and  C_9
REMARK    9  A    between atoms: C_9  and  C_10
REMARK   10  A    between atoms: C_10  and  C_11
REMARK   11  A    between atoms: C_11  and  C_12
REMARK   12  A    between atoms: C_12  and  C_13
REMARK   13  A    between atoms: C_13  and  C_15
REMARK   14  A    between atoms: C_13  and  O_19
REMARK   15  A    between atoms: C_15  and  C_16
REMARK   16  A    between atoms: C_16  and  O_17
REMARK   17  A    between atoms: O_19  and  C_20
REMARK   18  A    between atoms: C_20  and  C_22
REMARK   19  A    between atoms: C_22  and  C_23
REMARK   20  A    between atoms: C_23  and  C_24
REMARK   21  A    between atoms: C_24  and  C_25
REMARK   22  A    between atoms: C_25  and  C_26
REMARK   23  A    between atoms: C_26  and  C_27
REMARK   24  A    between atoms: C_27  and  C_28
REMARK   25  A    between atoms: C_28  and  C_29
REMARK   26  A    between atoms: C_29  and  C_30
REMARK   27  A    between atoms: C_30  and  C_31
REMARK   28  A    between atoms: C_31  and  C_32
REMARK   29  A    between atoms: C_32  and  C_33
REMARK                            x       y       z     vdW  Elec       q    Type
REMARK                         _______ _______ _______ _____ _____    ______ ____
ROOT
ATOM      1  C   UNL     1      10.772   4.457  23.446  0.00  0.00    +0.187 C 
ENDROOT
BRANCH   1   2
ATOM      2  C   UNL     1      12.021   5.226  23.849  0.00  0.00    +0.165 C 
BRANCH   2   3
ATOM      3  C   UNL     1      13.142   5.236  22.837  0.00  0.00    +0.308 C 
ATOM      4  O   UNL     1      12.939   5.500  21.658  0.00  0.00    -0.251 OA
BRANCH   3   5
ATOM      5  O   UNL     1      14.392   5.031  23.294  0.00  0.00    -0.481 OA
ATOM      6  H   UNL     1      15.152   5.310  22.745  0.00  0.00    +0.295 HD
ENDBRANCH   3   5
ENDBRANCH   2   3
ENDBRANCH   1   2
BRANCH   1   7
ATOM      7  O   UNL     1       9.683   4.833  24.315  0.00  0.00    -0.461 OA
BRANCH   7   8
ATOM      8  C   UNL     1       8.821   5.773  23.831  0.00  0.00    +0.307 C 
ATOM      9  O   UNL     1       9.130   6.938  23.622  0.00  0.00    -0.251 OA
BRANCH   8  10
ATOM     10  C   UNL     1       7.445   5.181  23.633  0.00  0.00    +0.120 C 
BRANCH  10  11
ATOM     11  C   UNL     1       7.252   4.582  22.240  0.00  0.00    +0.011 C 
BRANCH  11  12
ATOM     12  C   UNL     1       6.700   3.153  22.282  0.00  0.00    +0.001 C 
BRANCH  12  13
ATOM     13  C   UNL     1       5.305   3.109  22.911  0.00  0.00    +0.000 C 
BRANCH  13  14
ATOM     14  C   UNL     1       5.291   2.208  24.145  0.00  0.00    +0.000 C 
BRANCH  14  15
ATOM     15  C   UNL     1       6.214   1.003  23.969  0.00  0.00    +0.000 C 
BRANCH  15  16
ATOM     16  C   UNL     1       5.973  -0.032  25.067  0.00  0.00    -0.000 C 
BRANCH  16  17
ATOM     17  C   UNL     1       5.974  -1.452  24.500  0.00  0.00    -0.000 C 
BRANCH  17  18
ATOM     18  C   UNL     1       6.436  -1.459  23.043  0.00  0.00    -0.000 C 
BRANCH  18  19
ATOM     19  C   UNL     1       6.196  -2.824  22.398  0.00  0.00    -0.000 C 
BRANCH  19  20
ATOM     20  C   UNL     1       5.128  -3.613  23.151  0.00  0.00    -0.003 C 
ATOM     21  C   UNL     1       5.526  -5.072  23.305  0.00  0.00    +0.004 C 
ENDBRANCH  19  20
ENDBRANCH  18  19
ENDBRANCH  17  18
ENDBRANCH  16  17
ENDBRANCH  15  16
ENDBRANCH  14  15
ENDBRANCH  13  14
ENDBRANCH  12  13
ENDBRANCH  11  12
ENDBRANCH  10  11
ENDBRANCH   8  10
ENDBRANCH   7   8
ENDBRANCH   1   7
BRANCH   1  22
ATOM     22  C   UNL     1      10.982   2.940  23.576  0.00  0.00    +0.045 C 
BRANCH  22  23
ATOM     23  C   UNL     1      10.172   2.201  22.512  0.00  0.00    +0.004 C 
BRANCH  23  24
ATOM     24  C   UNL     1       9.979   0.726  22.830  0.00  0.00    +0.000 C 
BRANCH  24  25
ATOM     25  C   UNL     1      10.251   0.505  24.316  0.00  0.00    +0.000 C 
BRANCH  25  26
ATOM     26  C   UNL     1       9.674  -0.814  24.807  0.00  0.00    +0.000 C 
BRANCH  26  27
ATOM     27  C   UNL     1       9.793  -1.873  23.715  0.00  0.00    -0.000 C 
BRANCH  27  28
ATOM     28  C   UNL     1       9.839  -3.266  24.326  0.00  0.00    -0.000 C 
BRANCH  28  29
ATOM     29  C   UNL     1       8.739  -3.441  25.368  0.00  0.00    -0.000 C 
BRANCH  29  30
ATOM     30  C   UNL     1       8.487  -4.923  25.626  0.00  0.00    -0.000 C 
BRANCH  30  31
ATOM     31  C   UNL     1       7.580  -5.124  26.836  0.00  0.00    -0.000 C 
BRANCH  31  33
ATOM     32  C   UNL     1       5.503  -4.336  28.007  0.00  0.00    +0.004 C 
ATOM     33  C   UNL     1       6.438  -4.111  26.831  0.00  0.00    -0.003 C 
ENDBRANCH  31  33
ENDBRANCH  30  31
ENDBRANCH  29  30
ENDBRANCH  28  29
ENDBRANCH  27  28
ENDBRANCH  26  27
ENDBRANCH  25  26
ENDBRANCH  24  25
ENDBRANCH  23  24
ENDBRANCH  22  23
ENDBRANCH   1  22
TORSDOF 27
ENDMDL
MODEL 7
REMARK VINA RESULT:      -4.4      1.746      7.014
REMARK  Name = 
REMARK  29 active torsions:
REMARK  status: ('A' for Active; 'I' for Inactive)
REMARK    1  A    between atoms: C_1  and  C_2
REMARK    2  A    between atoms: C_2  and  C_3
REMARK    3  A    between atoms: C_3  and  C_4
REMARK    4  A    between atoms: C_4  and  C_5
REMARK    5  A    between atoms: C_5  and  C_6
REMARK    6  A    between atoms: C_6  and  C_7
REMARK    7  A    between atoms: C_7  and  C_8
REMARK    8  A    between atoms: C_8  and  C_9
REMARK    9  A    between atoms: C_9  and  C_10
REMARK   10  A    between atoms: C_10  and  C_11
REMARK   11  A    between atoms: C_11  and  C_12
REMARK   12  A    between atoms: C_12  and  C_13
REMARK   13  A    between atoms: C_13  and  C_15
REMARK   14  A    between atoms: C_13  and  O_19
REMARK   15  A    between atoms: C_15  and  C_16
REMARK   16  A    between atoms: C_16  and  O_17
REMARK   17  A    between atoms: O_19  and  C_20
REMARK   18  A    between atoms: C_20  and  C_22
REMARK   19  A    between atoms: C_22  and  C_23
REMARK   20  A    between atoms: C_23  and  C_24
REMARK   21  A    between atoms: C_24  and  C_25
REMARK   22  A    between atoms: C_25  and  C_26
REMARK   23  A    between atoms: C_26  and  C_27
REMARK   24  A    between atoms: C_27  and  C_28
REMARK   25  A    between atoms: C_28  and  C_29
REMARK   26  A    between atoms: C_29  and  C_30
REMARK   27  A    between atoms: C_30  and  C_31
REMARK   28  A    between atoms: C_31  and  C_32
REMARK   29  A    between atoms: C_32  and  C_33
REMARK                            x       y       z     vdW  Elec       q    Type
REMARK                         _______ _______ _______ _____ _____    ______ ____
ROOT
ATOM      1  C   UNL     1       8.218  -2.696  24.813  0.00  0.00    +0.187 C 
ENDROOT
BRANCH   1   2
ATOM      2  C   UNL     1       8.445  -3.552  26.051  0.00  0.00    +0.165 C 
BRANCH   2   3
ATOM      3  C   UNL     1       8.916  -4.964  25.796  0.00  0.00    +0.308 C 
ATOM      4  O   UNL     1       9.708  -5.222  24.897  0.00  0.00    -0.251 OA
BRANCH   3   5
ATOM      5  O   UNL     1       8.505  -5.919  26.650  0.00  0.00    -0.481 OA
ATOM      6  H   UNL     1       8.075  -6.723  26.297  0.00  0.00    +0.295 HD
ENDBRANCH   3   5
ENDBRANCH   2   3
ENDBRANCH   1   2
BRANCH   1   7
ATOM      7  O   UNL     1       9.149  -1.593  24.823  0.00  0.00    -0.461 OA
BRANCH   7   8
ATOM      8  C   UNL     1      10.087  -1.586  23.833  0.00  0.00    +0.307 C 
ATOM      9  O   UNL     1      10.319  -2.543  23.106  0.00  0.00    -0.251 OA
BRANCH   8  10
ATOM     10  C   UNL     1      10.811  -0.261  23.796  0.00  0.00    +0.120 C 
BRANCH  10  11
ATOM     11  C   UNL     1       9.989   0.881  24.394  0.00  0.00    +0.011 C 
BRANCH  11  12
ATOM     12  C   UNL     1      10.107   2.179  23.589  0.00  0.00    +0.001 C 
BRANCH  12  13
ATOM     13  C   UNL     1       9.933   1.927  22.090  0.00  0.00    +0.000 C 
BRANCH  13  14
ATOM     14  C   UNL     1       8.467   1.664  21.747  0.00  0.00    +0.000 C 
BRANCH  14  15
ATOM     15  C   UNL     1       7.574   2.826  22.180  0.00  0.00    +0.000 C 
BRANCH  15  16
ATOM     16  C   UNL     1       6.162   2.337  22.499  0.00  0.00    -0.000 C 
BRANCH  16  17
ATOM     17  C   UNL     1       5.971   2.132  24.002  0.00  0.00    -0.000 C 
BRANCH  17  18
ATOM     18  C   UNL     1       6.833   3.110  24.801  0.00  0.00    -0.000 C 
BRANCH  18  19
ATOM     19  C   UNL     1       7.175   2.542  26.178  0.00  0.00    -0.000 C 
BRANCH  19  20
ATOM     20  C   UNL     1       6.765   1.075  26.289  0.00  0.00    -0.003 C 
ATOM     21  C   UNL     1       7.408   0.414  27.497  0.00  0.00    +0.004 C 
ENDBRANCH  19  20
ENDBRANCH  18  19
ENDBRANCH  17  18
ENDBRANCH  16  17
ENDBRANCH  15  16
ENDBRANCH  14  15
ENDBRANCH  13  14
ENDBRANCH  12  13
ENDBRANCH  11  12
ENDBRANCH  10  11
ENDBRANCH   8  10
ENDBRANCH   7   8
ENDBRANCH   1   7
BRANCH   1  22
ATOM     22  C   UNL     1       6.795  -2.117  24.787  0.00  0.00    +0.045 C 
BRANCH  22  23
ATOM     23  C   UNL     1       6.492  -1.522  23.412  0.00  0.00    +0.004 C 
BRANCH  23  24
ATOM     24  C   UNL     1       6.821  -2.472  22.270  0.00  0.00    +0.000 C 
BRANCH  24  25
ATOM     25  C   UNL     1       5.736  -3.543  22.195  0.00  0.00    +0.000 C 
BRANCH  25  26
ATOM     26  C   UNL     1       6.225  -4.796  21.485  0.00  0.00    +0.000 C 
BRANCH  26  27
ATOM     27  C   UNL     1       6.623  -5.853  22.511  0.00  0.00    -0.000 C 
BRANCH  27  28
ATOM     28  C   UNL     1       5.920  -5.601  23.837  0.00  0.00    -0.000 C 
BRANCH  28  29
ATOM     29  C   UNL     1       4.747  -6.558  24.023  0.00  0.00    -0.000 C 
BRANCH  29  30
ATOM     30  C   UNL     1       3.724  -5.959  24.983  0.00  0.00    -0.000 C 
BRANCH  30  31
ATOM     31  C   UNL     1       4.248  -4.673  25.614  0.00  0.00    -0.000 C 
BRANCH  31  33
ATOM     32  C   UNL     1       3.478  -2.398  26.345  0.00  0.00    +0.004 C 
ATOM     33  C   UNL     1       3.313  -3.504  25.317  0.00  0.00    -0.003 C 
ENDBRANCH  31  33
ENDBRANCH  30  31
ENDBRANCH  29  30
ENDBRANCH  28  29
ENDBRANCH  27  28
ENDBRANCH  26  27
ENDBRANCH  25  26
ENDBRANCH  24  25
ENDBRANCH  23  24
ENDBRANCH  22  23
ENDBRANCH   1  22
TORSDOF 27
ENDMDL
MODEL 8
REMARK VINA RESULT:      -4.4      1.414      3.644
REMARK  Name = 
REMARK  29 active torsions:
REMARK  status: ('A' for Active; 'I' for Inactive)
REMARK    1  A    between atoms: C_1  and  C_2
REMARK    2  A    between atoms: C_2  and  C_3
REMARK    3  A    between atoms: C_3  and  C_4
REMARK    4  A    between atoms: C_4  and  C_5
REMARK    5  A    between atoms: C_5  and  C_6
REMARK    6  A    between atoms: C_6  and  C_7
REMARK    7  A    between atoms: C_7  and  C_8
REMARK    8  A    between atoms: C_8  and  C_9
REMARK    9  A    between atoms: C_9  and  C_10
REMARK   10  A    between atoms: C_10  and  C_11
REMARK   11  A    between atoms: C_11  and  C_12
REMARK   12  A    between atoms: C_12  and  C_13
REMARK   13  A    between atoms: C_13  and  C_15
REMARK   14  A    between atoms: C_13  and  O_19
REMARK   15  A    between atoms: C_15  and  C_16
REMARK   16  A    between atoms: C_16  and  O_17
REMARK   17  A    between atoms: O_19  and  C_20
REMARK   18  A    between atoms: C_20  and  C_22
REMARK   19  A    between atoms: C_22  and  C_23
REMARK   20  A    between atoms: C_23  and  C_24
REMARK   21  A    between atoms: C_24  and  C_25
REMARK   22  A    between atoms: C_25  and  C_26
REMARK   23  A    between atoms: C_26  and  C_27
REMARK   24  A    between atoms: C_27  and  C_28
REMARK   25  A    between atoms: C_28  and  C_29
REMARK   26  A    between atoms: C_29  and  C_30
REMARK   27  A    between atoms: C_30  and  C_31
REMARK   28  A    between atoms: C_31  and  C_32
REMARK   29  A    between atoms: C_32  and  C_33
REMARK                            x       y       z     vdW  Elec       q    Type
REMARK                         _______ _______ _______ _____ _____    ______ ____
ROOT
ATOM      1  C   UNL     1       8.374  -3.518  23.187  0.00  0.00    +0.187 C 
ENDROOT
BRANCH   1   2
ATOM      2  C   UNL     1       7.102  -3.679  22.368  0.00  0.00    +0.165 C 
BRANCH   2   3
ATOM      3  C   UNL     1       6.838  -5.064  21.828  0.00  0.00    +0.308 C 
ATOM      4  O   UNL     1       7.502  -6.028  22.187  0.00  0.00    -0.251 OA
BRANCH   3   5
ATOM      5  O   UNL     1       5.786  -5.218  21.003  0.00  0.00    -0.481 OA
ATOM      6  H   UNL     1       5.603  -4.533  20.329  0.00  0.00    +0.295 HD
ENDBRANCH   3   5
ENDBRANCH   2   3
ENDBRANCH   1   2
BRANCH   1   7
ATOM      7  O   UNL     1       8.093  -3.835  24.567  0.00  0.00    -0.461 OA
BRANCH   7   8
ATOM      8  C   UNL     1       8.963  -4.689  25.179  0.00  0.00    +0.307 C 
ATOM      9  O   UNL     1      10.073  -4.961  24.742  0.00  0.00    -0.251 OA
BRANCH   8  10
ATOM     10  C   UNL     1       8.347  -5.268  26.432  0.00  0.00    +0.120 C 
BRANCH  10  11
ATOM     11  C   UNL     1       7.239  -4.386  27.010  0.00  0.00    +0.011 C 
BRANCH  11  12
ATOM     12  C   UNL     1       6.035  -5.196  27.499  0.00  0.00    +0.001 C 
BRANCH  12  13
ATOM     13  C   UNL     1       5.621  -6.258  26.479  0.00  0.00    +0.000 C 
BRANCH  13  14
ATOM     14  C   UNL     1       5.030  -5.611  25.227  0.00  0.00    +0.000 C 
BRANCH  14  15
ATOM     15  C   UNL     1       3.968  -4.571  25.582  0.00  0.00    +0.000 C 
BRANCH  15  16
ATOM     16  C   UNL     1       3.975  -3.420  24.578  0.00  0.00    -0.000 C 
BRANCH  16  17
ATOM     17  C   UNL     1       4.943  -2.317  25.006  0.00  0.00    -0.000 C 
BRANCH  17  18
ATOM     18  C   UNL     1       4.579  -1.775  26.387  0.00  0.00    -0.000 C 
BRANCH  18  19
ATOM     19  C   UNL     1       5.797  -1.159  27.075  0.00  0.00    -0.000 C 
BRANCH  19  20
ATOM     20  C   UNL     1       5.726   0.366  27.065  0.00  0.00    -0.003 C 
ATOM     21  C   UNL     1       4.296   0.851  26.890  0.00  0.00    +0.004 C 
ENDBRANCH  19  20
ENDBRANCH  18  19
ENDBRANCH  17  18
ENDBRANCH  16  17
ENDBRANCH  15  16
ENDBRANCH  14  15
ENDBRANCH  13  14
ENDBRANCH  12  13
ENDBRANCH  11  12
ENDBRANCH  10  11
ENDBRANCH   8  10
ENDBRANCH   7   8
ENDBRANCH   1   7
BRANCH   1  22
ATOM     22  C   UNL     1       8.899  -2.075  23.128  0.00  0.00    +0.045 C 
BRANCH  22  23
ATOM     23  C   UNL     1       8.189  -1.212  24.171  0.00  0.00    +0.004 C 
BRANCH  23  24
ATOM     24  C   UNL     1       9.119  -0.730  25.275  0.00  0.00    +0.000 C 
BRANCH  24  25
ATOM     25  C   UNL     1       9.253   0.787  25.175  0.00  0.00    +0.000 C 
BRANCH  25  26
ATOM     26  C   UNL     1      10.507   1.196  24.419  0.00  0.00    +0.000 C 
BRANCH  26  27
ATOM     27  C   UNL     1      10.136   2.085  23.236  0.00  0.00    -0.000 C 
BRANCH  27  28
ATOM     28  C   UNL     1      10.060   1.264  21.956  0.00  0.00    -0.000 C 
BRANCH  28  29
ATOM     29  C   UNL     1       8.667   1.343  21.339  0.00  0.00    -0.000 C 
BRANCH  29  30
ATOM     30  C   UNL     1       7.810   2.351  22.098  0.00  0.00    -0.000 C 
BRANCH  30  31
ATOM     31  C   UNL     1       6.476   1.739  22.510  0.00  0.00    -0.000 C 
BRANCH  31  33
ATOM     32  C   UNL     1       6.857   3.460  24.297  0.00  0.00    +0.004 C 
ATOM     33  C   UNL     1       6.055   2.235  23.890  0.00  0.00    -0.003 C 
ENDBRANCH  31  33
ENDBRANCH  30  31
ENDBRANCH  29  30
ENDBRANCH  28  29
ENDBRANCH  27  28
ENDBRANCH  26  27
ENDBRANCH  25  26
ENDBRANCH  24  25
ENDBRANCH  23  24
ENDBRANCH  22  23
ENDBRANCH   1  22
TORSDOF 27
ENDMDL
MODEL 9
REMARK VINA RESULT:      -4.4      2.232      5.822
REMARK  Name = 
REMARK  29 active torsions:
REMARK  status: ('A' for Active; 'I' for Inactive)
REMARK    1  A    between atoms: C_1  and  C_2
REMARK    2  A    between atoms: C_2  and  C_3
REMARK    3  A    between atoms: C_3  and  C_4
REMARK    4  A    between atoms: C_4  and  C_5
REMARK    5  A    between atoms: C_5  and  C_6
REMARK    6  A    between atoms: C_6  and  C_7
REMARK    7  A    between atoms: C_7  and  C_8
REMARK    8  A    between atoms: C_8  and  C_9
REMARK    9  A    between atoms: C_9  and  C_10
REMARK   10  A    between atoms: C_10  and  C_11
REMARK   11  A    between atoms: C_11  and  C_12
REMARK   12  A    between atoms: C_12  and  C_13
REMARK   13  A    between atoms: C_13  and  C_15
REMARK   14  A    between atoms: C_13  and  O_19
REMARK   15  A    between atoms: C_15  and  C_16
REMARK   16  A    between atoms: C_16  and  O_17
REMARK   17  A    between atoms: O_19  and  C_20
REMARK   18  A    between atoms: C_20  and  C_22
REMARK   19  A    between atoms: C_22  and  C_23
REMARK   20  A    between atoms: C_23  and  C_24
REMARK   21  A    between atoms: C_24  and  C_25
REMARK   22  A    between atoms: C_25  and  C_26
REMARK   23  A    between atoms: C_26  and  C_27
REMARK   24  A    between atoms: C_27  and  C_28
REMARK   25  A    between atoms: C_28  and  C_29
REMARK   26  A    between atoms: C_29  and  C_30
REMARK   27  A    between atoms: C_30  and  C_31
REMARK   28  A    between atoms: C_31  and  C_32
REMARK   29  A    between atoms: C_32  and  C_33
REMARK                            x       y       z     vdW  Elec       q    Type
REMARK                         _______ _______ _______ _____ _____    ______ ____
ROOT
ATOM      1  C   UNL     1       7.271  -4.019  23.044  0.00  0.00    +0.187 C 
ENDROOT
BRANCH   1   2
ATOM      2  C   UNL     1       7.424  -5.280  22.205  0.00  0.00    +0.165 C 
BRANCH   2   3
ATOM      3  C   UNL     1       6.137  -5.939  21.769  0.00  0.00    +0.308 C 
ATOM      4  O   UNL     1       5.736  -5.858  20.614  0.00  0.00    -0.251 OA
BRANCH   3   5
ATOM      5  O   UNL     1       5.490  -6.697  22.673  0.00  0.00    -0.481 OA
ATOM      6  H   UNL     1       4.515  -6.755  22.637  0.00  0.00    +0.295 HD
ENDBRANCH   3   5
ENDBRANCH   2   3
ENDBRANCH   1   2
BRANCH   1   7
ATOM      7  O   UNL     1       6.299  -4.258  24.084  0.00  0.00    -0.461 OA
BRANCH   7   8
ATOM      8  C   UNL     1       6.777  -4.284  25.362  0.00  0.00    +0.307 C 
ATOM      9  O   UNL     1       7.313  -5.260  25.869  0.00  0.00    -0.251 OA
BRANCH   8  10
ATOM     10  C   UNL     1       6.514  -2.968  26.055  0.00  0.00    +0.120 C 
BRANCH  10  11
ATOM     11  C   UNL     1       7.783  -2.333  26.625  0.00  0.00    +0.011 C 
BRANCH  11  12
ATOM     12  C   UNL     1       8.702  -1.771  25.536  0.00  0.00    +0.001 C 
BRANCH  12  13
ATOM     13  C   UNL     1       9.180  -0.359  25.879  0.00  0.00    +0.000 C 
BRANCH  13  14
ATOM     14  C   UNL     1       7.995   0.591  26.053  0.00  0.00    +0.000 C 
BRANCH  14  15
ATOM     15  C   UNL     1       7.179   0.710  24.766  0.00  0.00    +0.000 C 
BRANCH  15  16
ATOM     16  C   UNL     1       6.351   1.994  24.763  0.00  0.00    -0.000 C 
BRANCH  16  17
ATOM     17  C   UNL     1       7.172   3.185  25.257  0.00  0.00    -0.000 C 
BRANCH  17  18
ATOM     18  C   UNL     1       6.700   4.483  24.603  0.00  0.00    -0.000 C 
BRANCH  18  19
ATOM     19  C   UNL     1       6.233   4.238  23.169  0.00  0.00    -0.000 C 
BRANCH  19  20
ATOM     20  C   UNL     1       7.124   4.966  22.165  0.00  0.00    -0.003 C 
ATOM     21  C   UNL     1       7.408   6.391  22.611  0.00  0.00    +0.004 C 
ENDBRANCH  19  20
ENDBRANCH  18  19
ENDBRANCH  17  18
ENDBRANCH  16  17
ENDBRANCH  15  16
ENDBRANCH  14  15
ENDBRANCH  13  14
ENDBRANCH  12  13
ENDBRANCH  11  12
ENDBRANCH  10  11
ENDBRANCH   8  10
ENDBRANCH   7   8
ENDBRANCH   1   7
BRANCH   1  22
ATOM     22  C   UNL     1       6.778  -2.838  22.193  0.00  0.00    +0.045 C 
BRANCH  22  23
ATOM     23  C   UNL     1       7.688  -1.627  22.394  0.00  0.00    +0.004 C 
BRANCH  23  24
ATOM     24  C   UNL     1       9.076  -1.824  21.804  0.00  0.00    +0.000 C 
BRANCH  24  25
ATOM     25  C   UNL     1       9.855  -0.518  21.938  0.00  0.00    +0.000 C 
BRANCH  25  26
ATOM     26  C   UNL     1       9.038   0.678  21.476  0.00  0.00    +0.000 C 
BRANCH  26  27
ATOM     27  C   UNL     1       9.442   1.920  22.265  0.00  0.00    -0.000 C 
BRANCH  27  28
ATOM     28  C   UNL     1      10.598   1.603  23.204  0.00  0.00    -0.000 C 
BRANCH  28  29
ATOM     29  C   UNL     1      11.120   2.870  23.873  0.00  0.00    -0.000 C 
BRANCH  29  30
ATOM     30  C   UNL     1      10.198   4.046  23.570  0.00  0.00    -0.000 C 
BRANCH  30  31
ATOM     31  C   UNL     1      10.978   5.355  23.503  0.00  0.00    -0.000 C 
BRANCH  31  33
ATOM     32  C   UNL     1      13.104   5.592  22.188  0.00  0.00    +0.004 C 
ATOM     33  C   UNL     1      12.481   5.088  23.478  0.00  0.00    -0.003 C 
ENDBRANCH  31  33
ENDBRANCH  30  31
ENDBRANCH  29  30
ENDBRANCH  28  29
ENDBRANCH  27  28
ENDBRANCH  26  27
ENDBRANCH  25  26
ENDBRANCH  24  25
ENDBRANCH  23  24
ENDBRANCH  22  23
ENDBRANCH   1  22
TORSDOF 27
ENDMDL
