MODEL 1
REMARK VINA RESULT:      -6.2      0.000      0.000
REMARK  Name = 
REMARK  6 active torsions:
REMARK  status: ('A' for Active; 'I' for Inactive)
REMARK    1  A    between atoms: C_1  and  C_2
REMARK    2  A    between atoms: C_2  and  C_3
REMARK    3  A    between atoms: C_2  and  C_4
REMARK    4  A    between atoms: N_6  and  C_7
REMARK    5  A    between atoms: C_9  and  C_16
REMARK    6  A    between atoms: C_10  and  N_13
REMARK                            x       y       z     vdW  Elec       q    Type
REMARK                         _______ _______ _______ _____ _____    ______ ____
ROOT
ATOM      1  C   UNL     1       7.507  -2.488  23.497  0.00  0.00    +0.034 A 
ATOM      2  C   UNL     1       7.690  -2.184  24.849  0.00  0.00    +0.030 A 
ATOM      3  C   UNL     1       8.429  -1.059  25.218  0.00  0.00    +0.087 A 
ATOM      4  C   UNL     1       8.935  -0.213  24.221  0.00  0.00    +0.285 A 
ATOM      5  C   UNL     1       8.719  -0.466  22.857  0.00  0.00    +0.133 A 
ATOM      6  C   UNL     1       8.033  -1.645  22.513  0.00  0.00    +0.042 A 
ENDROOT
BRANCH   1   8
ATOM      7  C   UNL     1       7.412  -4.911  23.134  0.00  0.00    +0.220 C 
ATOM      8  N   UNL     1       6.835  -3.650  23.085  0.00  0.00    -0.285 N 
ATOM      9  H   UNL     1       5.823  -3.621  23.058  0.00  0.00    +0.155 HD
ATOM     10  O   UNL     1       8.504  -5.153  23.637  0.00  0.00    -0.275 OA
BRANCH   7  12
ATOM     11  C   UNL     1       5.224  -6.082  23.254  0.00  0.00    +0.017 C 
ATOM     12  C   UNL     1       6.542  -5.987  22.489  0.00  0.00    +0.069 C 
ATOM     13  C   UNL     1       6.288  -5.669  21.016  0.00  0.00    +0.017 C 
ENDBRANCH   7  12
ENDBRANCH   1   8
BRANCH   5  14
ATOM     14  C   UNL     1       9.200   0.460  21.773  0.00  0.00    +0.424 C 
ATOM     15  F   UNL     1      10.490   0.843  21.952  0.00  0.00    -0.166 F 
ATOM     16  F   UNL     1       8.458   1.591  21.663  0.00  0.00    -0.166 F 
ATOM     17  F   UNL     1       9.156  -0.116  20.537  0.00  0.00    -0.166 F 
ENDBRANCH   5  14
BRANCH   4  18
ATOM     18  N   UNL     1       9.737   0.922  24.653  0.00  0.00    +0.080 N 
ATOM     19  O   UNL     1      10.930   0.696  24.904  0.00  0.00    +0.041 OA
ATOM     20  O   UNL     1       9.171   2.014  24.755  0.00  0.00    -0.576 OA
ENDBRANCH   4  18
TORSDOF 4
ENDMDL
MODEL 2
REMARK VINA RESULT:      -6.2      3.914      7.317
REMARK  Name = 
REMARK  6 active torsions:
REMARK  status: ('A' for Active; 'I' for Inactive)
REMARK    1  A    between atoms: C_1  and  C_2
REMARK    2  A    between atoms: C_2  and  C_3
REMARK    3  A    between atoms: C_2  and  C_4
REMARK    4  A    between atoms: N_6  and  C_7
REMARK    5  A    between atoms: C_9  and  C_16
REMARK    6  A    between atoms: C_10  and  N_13
REMARK                            x       y       z     vdW  Elec       q    Type
REMARK                         _______ _______ _______ _____ _____    ______ ____
ROOT
ATOM      1  C   UNL     1       9.596   2.450  23.131  0.00  0.00    +0.034 A 
ATOM      2  C   UNL     1       9.867   1.864  21.891  0.00  0.00    +0.030 A 
ATOM      3  C   UNL     1       9.793   0.479  21.743  0.00  0.00    +0.087 A 
ATOM      4  C   UNL     1       9.391  -0.308  22.833  0.00  0.00    +0.285 A 
ATOM      5  C   UNL     1       9.061   0.261  24.073  0.00  0.00    +0.133 A 
ATOM      6  C   UNL     1       9.215   1.653  24.214  0.00  0.00    +0.042 A 
ENDROOT
BRANCH   1   8
ATOM      7  C   UNL     1      10.963   4.449  23.519  0.00  0.00    +0.220 C 
ATOM      8  N   UNL     1       9.733   3.833  23.341  0.00  0.00    -0.285 N 
ATOM      9  H   UNL     1       8.972   4.429  23.041  0.00  0.00    +0.155 HD
ATOM     10  O   UNL     1      12.044   3.883  23.399  0.00  0.00    -0.275 OA
BRANCH   7  12
ATOM     11  C   UNL     1       9.628   6.111  24.794  0.00  0.00    +0.017 C 
ATOM     12  C   UNL     1      10.839   5.926  23.883  0.00  0.00    +0.069 C 
ATOM     13  C   UNL     1      12.110   6.424  24.569  0.00  0.00    +0.017 C 
ENDBRANCH   7  12
ENDBRANCH   1   8
BRANCH   5  14
ATOM     14  C   UNL     1       8.569  -0.556  25.236  0.00  0.00    +0.424 C 
ATOM     15  F   UNL     1       9.458  -1.510  25.614  0.00  0.00    -0.166 F 
ATOM     16  F   UNL     1       7.389  -1.182  24.994  0.00  0.00    -0.166 F 
ATOM     17  F   UNL     1       8.349   0.201  26.350  0.00  0.00    -0.166 F 
ENDBRANCH   5  14
BRANCH   4  18
ATOM     18  N   UNL     1       9.373  -1.750  22.643  0.00  0.00    +0.080 N 
ATOM     19  O   UNL     1      10.433  -2.354  22.862  0.00  0.00    +0.041 OA
ATOM     20  O   UNL     1       8.315  -2.262  22.263  0.00  0.00    -0.576 OA
ENDBRANCH   4  18
TORSDOF 4
ENDMDL
MODEL 3
REMARK VINA RESULT:      -6.2      3.534      6.367
REMARK  Name = 
REMARK  6 active torsions:
REMARK  status: ('A' for Active; 'I' for Inactive)
REMARK    1  A    between atoms: C_1  and  C_2
REMARK    2  A    between atoms: C_2  and  C_3
REMARK    3  A    between atoms: C_2  and  C_4
REMARK    4  A    between atoms: N_6  and  C_7
REMARK    5  A    between atoms: C_9  and  C_16
REMARK    6  A    between atoms: C_10  and  N_13
REMARK                            x       y       z     vdW  Elec       q    Type
REMARK                         _______ _______ _______ _____ _____    ______ ____
ROOT
ATOM      1  C   UNL     1       7.278  -2.211  22.954  0.00  0.00    +0.034 A 
ATOM      2  C   UNL     1       6.258  -1.973  23.879  0.00  0.00    +0.030 A 
ATOM      3  C   UNL     1       5.261  -2.928  24.080  0.00  0.00    +0.087 A 
ATOM      4  C   UNL     1       5.327  -4.146  23.388  0.00  0.00    +0.285 A 
ATOM      5  C   UNL     1       6.372  -4.431  22.494  0.00  0.00    +0.133 A 
ATOM      6  C   UNL     1       7.322  -3.422  22.257  0.00  0.00    +0.042 A 
ENDROOT
BRANCH   1   8
ATOM      7  C   UNL     1       9.509  -1.242  23.264  0.00  0.00    +0.220 C 
ATOM      8  N   UNL     1       8.257  -1.245  22.667  0.00  0.00    -0.285 N 
ATOM      9  H   UNL     1       8.176  -0.741  21.792  0.00  0.00    +0.155 HD
ATOM     10  O   UNL     1       9.926  -2.130  24.001  0.00  0.00    -0.275 OA
BRANCH   7  12
ATOM     11  C   UNL     1       9.627   0.753  21.789  0.00  0.00    +0.017 C 
ATOM     12  C   UNL     1      10.334  -0.008  22.908  0.00  0.00    +0.069 C 
ATOM     13  C   UNL     1      10.526   0.887  24.131  0.00  0.00    +0.017 C 
ENDBRANCH   7  12
ENDBRANCH   1   8
BRANCH   5  14
ATOM     14  C   UNL     1       6.497  -5.754  21.787  0.00  0.00    +0.424 C 
ATOM     15  F   UNL     1       5.563  -5.914  20.815  0.00  0.00    -0.166 F 
ATOM     16  F   UNL     1       6.394  -6.821  22.619  0.00  0.00    -0.166 F 
ATOM     17  F   UNL     1       7.703  -5.901  21.166  0.00  0.00    -0.166 F 
ENDBRANCH   5  14
BRANCH   4  18
ATOM     18  N   UNL     1       4.242  -5.092  23.597  0.00  0.00    +0.080 N 
ATOM     19  O   UNL     1       4.354  -5.862  24.562  0.00  0.00    +0.041 OA
ATOM     20  O   UNL     1       3.304  -5.071  22.794  0.00  0.00    -0.576 OA
ENDBRANCH   4  18
TORSDOF 4
ENDMDL
MODEL 4
REMARK VINA RESULT:      -6.0      3.111      6.009
REMARK  Name = 
REMARK  6 active torsions:
REMARK  status: ('A' for Active; 'I' for Inactive)
REMARK    1  A    between atoms: C_1  and  C_2
REMARK    2  A    between atoms: C_2  and  C_3
REMARK    3  A    between atoms: C_2  and  C_4
REMARK    4  A    between atoms: N_6  and  C_7
REMARK    5  A    between atoms: C_9  and  C_16
REMARK    6  A    between atoms: C_10  and  N_13
REMARK                            x       y       z     vdW  Elec       q    Type
REMARK                         _______ _______ _______ _____ _____    ______ ____
ROOT
ATOM      1  C   UNL     1       8.216  -1.619  23.702  0.00  0.00    +0.034 A 
ATOM      2  C   UNL     1       8.331  -1.679  25.094  0.00  0.00    +0.030 A 
ATOM      3  C   UNL     1       8.041  -2.866  25.768  0.00  0.00    +0.087 A 
ATOM      4  C   UNL     1       7.689  -4.006  25.030  0.00  0.00    +0.285 A 
ATOM      5  C   UNL     1       7.620  -3.986  23.628  0.00  0.00    +0.133 A 
ATOM      6  C   UNL     1       7.847  -2.758  22.981  0.00  0.00    +0.042 A 
ENDROOT
BRANCH   1   8
ATOM      7  C   UNL     1       9.639  -0.106  22.398  0.00  0.00    +0.220 C 
ATOM      8  N   UNL     1       8.427  -0.425  22.994  0.00  0.00    -0.285 N 
ATOM      9  H   UNL     1       7.611   0.058  22.636  0.00  0.00    +0.155 HD
ATOM     10  O   UNL     1      10.597  -0.868  22.330  0.00  0.00    -0.275 OA
BRANCH   7  12
ATOM     11  C   UNL     1       8.235   1.736  21.498  0.00  0.00    +0.017 C 
ATOM     12  C   UNL     1       9.664   1.308  21.824  0.00  0.00    +0.069 C 
ATOM     13  C   UNL     1      10.307   2.282  22.810  0.00  0.00    +0.017 C 
ENDBRANCH   7  12
ENDBRANCH   1   8
BRANCH   5  14
ATOM     14  C   UNL     1       7.305  -5.212  22.814  0.00  0.00    +0.424 C 
ATOM     15  F   UNL     1       6.094  -5.743  23.121  0.00  0.00    -0.166 F 
ATOM     16  F   UNL     1       8.223  -6.202  22.953  0.00  0.00    -0.166 F 
ATOM     17  F   UNL     1       7.262  -4.951  21.475  0.00  0.00    -0.166 F 
ENDBRANCH   5  14
BRANCH   4  18
ATOM     18  N   UNL     1       7.352  -5.207  25.779  0.00  0.00    +0.080 N 
ATOM     19  O   UNL     1       6.152  -5.380  26.041  0.00  0.00    +0.041 OA
ATOM     20  O   UNL     1       8.280  -5.950  26.112  0.00  0.00    -0.576 OA
ENDBRANCH   4  18
TORSDOF 4
ENDMDL
MODEL 5
REMARK VINA RESULT:      -5.9      1.570      2.103
REMARK  Name = 
REMARK  6 active torsions:
REMARK  status: ('A' for Active; 'I' for Inactive)
REMARK    1  A    between atoms: C_1  and  C_2
REMARK    2  A    between atoms: C_2  and  C_3
REMARK    3  A    between atoms: C_2  and  C_4
REMARK    4  A    between atoms: N_6  and  C_7
REMARK    5  A    between atoms: C_9  and  C_16
REMARK    6  A    between atoms: C_10  and  N_13
REMARK                            x       y       z     vdW  Elec       q    Type
REMARK                         _______ _______ _______ _____ _____    ______ ____
ROOT
ATOM      1  C   UNL     1       8.122  -1.305  24.385  0.00  0.00    +0.034 A 
ATOM      2  C   UNL     1       8.018  -0.442  25.481  0.00  0.00    +0.030 A 
ATOM      3  C   UNL     1       8.342   0.907  25.340  0.00  0.00    +0.087 A 
ATOM      4  C   UNL     1       8.715   1.396  24.079  0.00  0.00    +0.285 A 
ATOM      5  C   UNL     1       8.774   0.562  22.951  0.00  0.00    +0.133 A 
ATOM      6  C   UNL     1       8.513  -0.807  23.138  0.00  0.00    +0.042 A 
ENDROOT
BRANCH   1   8
ATOM      7  C   UNL     1       8.870  -3.639  24.336  0.00  0.00    +0.220 C 
ATOM      8  N   UNL     1       7.878  -2.683  24.503  0.00  0.00    -0.285 N 
ATOM      9  H   UNL     1       7.062  -2.971  25.027  0.00  0.00    +0.155 HD
ATOM     10  O   UNL     1      10.060  -3.383  24.185  0.00  0.00    -0.275 OA
BRANCH   7  12
ATOM     11  C   UNL     1       7.495  -5.258  25.625  0.00  0.00    +0.017 C 
ATOM     12  C   UNL     1       8.328  -5.066  24.360  0.00  0.00    +0.069 C 
ATOM     13  C   UNL     1       7.489  -5.348  23.114  0.00  0.00    +0.017 C 
ENDBRANCH   7  12
ENDBRANCH   1   8
BRANCH   5  14
ATOM     14  C   UNL     1       9.112   1.076  21.578  0.00  0.00    +0.424 C 
ATOM     15  F   UNL     1       9.167   0.085  20.652  0.00  0.00    -0.166 F 
ATOM     16  F   UNL     1      10.295   1.739  21.526  0.00  0.00    -0.166 F 
ATOM     17  F   UNL     1       8.186   1.964  21.112  0.00  0.00    -0.166 F 
ENDBRANCH   5  14
BRANCH   4  18
ATOM     18  N   UNL     1       9.086   2.800  23.992  0.00  0.00    +0.080 N 
ATOM     19  O   UNL     1      10.288   3.068  24.136  0.00  0.00    +0.041 OA
ATOM     20  O   UNL     1       8.181   3.618  23.800  0.00  0.00    -0.576 OA
ENDBRANCH   4  18
TORSDOF 4
ENDMDL
MODEL 6
REMARK VINA RESULT:      -5.9      4.010      5.554
REMARK  Name = 
REMARK  6 active torsions:
REMARK  status: ('A' for Active; 'I' for Inactive)
REMARK    1  A    between atoms: C_1  and  C_2
REMARK    2  A    between atoms: C_2  and  C_3
REMARK    3  A    between atoms: C_2  and  C_4
REMARK    4  A    between atoms: N_6  and  C_7
REMARK    5  A    between atoms: C_9  and  C_16
REMARK    6  A    between atoms: C_10  and  N_13
REMARK                            x       y       z     vdW  Elec       q    Type
REMARK                         _______ _______ _______ _____ _____    ______ ____
ROOT
ATOM      1  C   UNL     1       9.669   2.214  23.390  0.00  0.00    +0.034 A 
ATOM      2  C   UNL     1       8.496   2.737  23.942  0.00  0.00    +0.030 A 
ATOM      3  C   UNL     1       8.482   4.039  24.445  0.00  0.00    +0.087 A 
ATOM      4  C   UNL     1       9.636   4.829  24.338  0.00  0.00    +0.285 A 
ATOM      5  C   UNL     1      10.809   4.346  23.739  0.00  0.00    +0.133 A 
ATOM      6  C   UNL     1      10.818   3.007  23.307  0.00  0.00    +0.042 A 
ENDROOT
BRANCH   1   8
ATOM      7  C   UNL     1      10.109  -0.168  23.770  0.00  0.00    +0.220 C 
ATOM      8  N   UNL     1       9.746   0.885  22.942  0.00  0.00    -0.285 N 
ATOM      9  H   UNL     1       9.228   0.641  22.107  0.00  0.00    +0.155 HD
ATOM     10  O   UNL     1      10.284  -0.069  24.980  0.00  0.00    -0.275 OA
BRANCH   7  12
ATOM     11  C   UNL     1       9.879  -2.636  23.942  0.00  0.00    +0.017 C 
ATOM     12  C   UNL     1      10.270  -1.486  23.016  0.00  0.00    +0.069 C 
ATOM     13  C   UNL     1       9.413  -1.497  21.752  0.00  0.00    +0.017 C 
ENDBRANCH   7  12
ENDBRANCH   1   8
BRANCH   5  14
ATOM     14  C   UNL     1      12.038   5.195  23.558  0.00  0.00    +0.424 C 
ATOM     15  F   UNL     1      13.122   4.468  23.184  0.00  0.00    -0.166 F 
ATOM     16  F   UNL     1      12.385   5.886  24.673  0.00  0.00    -0.166 F 
ATOM     17  F   UNL     1      11.879   6.142  22.588  0.00  0.00    -0.166 F 
ENDBRANCH   5  14
BRANCH   4  18
ATOM     18  N   UNL     1       9.586   6.163  24.917  0.00  0.00    +0.080 N 
ATOM     19  O   UNL     1       9.768   6.246  26.141  0.00  0.00    +0.041 OA
ATOM     20  O   UNL     1       9.350   7.106  24.156  0.00  0.00    -0.576 OA
ENDBRANCH   4  18
TORSDOF 4
ENDMDL
MODEL 7
REMARK VINA RESULT:      -5.9      3.430      6.576
REMARK  Name = 
REMARK  6 active torsions:
REMARK  status: ('A' for Active; 'I' for Inactive)
REMARK    1  A    between atoms: C_1  and  C_2
REMARK    2  A    between atoms: C_2  and  C_3
REMARK    3  A    between atoms: C_2  and  C_4
REMARK    4  A    between atoms: N_6  and  C_7
REMARK    5  A    between atoms: C_9  and  C_16
REMARK    6  A    between atoms: C_10  and  N_13
REMARK                            x       y       z     vdW  Elec       q    Type
REMARK                         _______ _______ _______ _____ _____    ______ ____
ROOT
ATOM      1  C   UNL     1       8.832  -1.669  23.440  0.00  0.00    +0.034 A 
ATOM      2  C   UNL     1       7.900  -1.904  22.425  0.00  0.00    +0.030 A 
ATOM      3  C   UNL     1       7.315  -3.163  22.291  0.00  0.00    +0.087 A 
ATOM      4  C   UNL     1       7.629  -4.168  23.219  0.00  0.00    +0.285 A 
ATOM      5  C   UNL     1       8.520  -3.941  24.280  0.00  0.00    +0.133 A 
ATOM      6  C   UNL     1       9.150  -2.685  24.347  0.00  0.00    +0.042 A 
ENDROOT
BRANCH   1   8
ATOM      7  C   UNL     1       8.961   0.645  24.239  0.00  0.00    +0.220 C 
ATOM      8  N   UNL     1       9.499  -0.439  23.562  0.00  0.00    -0.285 N 
ATOM      9  H   UNL     1      10.504  -0.437  23.441  0.00  0.00    +0.155 HD
ATOM     10  O   UNL     1       7.920   0.609  24.887  0.00  0.00    -0.275 OA
BRANCH   7  12
ATOM     11  C   UNL     1      10.243   2.053  22.644  0.00  0.00    +0.017 C 
ATOM     12  C   UNL     1       9.803   1.910  24.099  0.00  0.00    +0.069 C 
ATOM     13  C   UNL     1       9.015   3.140  24.547  0.00  0.00    +0.017 C 
ENDBRANCH   7  12
ENDBRANCH   1   8
BRANCH   5  14
ATOM     14  C   UNL     1       8.824  -4.984  25.322  0.00  0.00    +0.424 C 
ATOM     15  F   UNL     1       9.591  -4.500  26.332  0.00  0.00    -0.166 F 
ATOM     16  F   UNL     1       9.459  -6.075  24.823  0.00  0.00    -0.166 F 
ATOM     17  F   UNL     1       7.696  -5.469  25.918  0.00  0.00    -0.166 F 
ENDBRANCH   5  14
BRANCH   4  18
ATOM     18  N   UNL     1       7.028  -5.476  23.013  0.00  0.00    +0.080 N 
ATOM     19  O   UNL     1       7.652  -6.267  22.288  0.00  0.00    +0.041 OA
ATOM     20  O   UNL     1       5.942  -5.697  23.555  0.00  0.00    -0.576 OA
ENDBRANCH   4  18
TORSDOF 4
ENDMDL
MODEL 8
REMARK VINA RESULT:      -5.9      4.391      5.834
REMARK  Name = 
REMARK  6 active torsions:
REMARK  status: ('A' for Active; 'I' for Inactive)
REMARK    1  A    between atoms: C_1  and  C_2
REMARK    2  A    between atoms: C_2  and  C_3
REMARK    3  A    between atoms: C_2  and  C_4
REMARK    4  A    between atoms: N_6  and  C_7
REMARK    5  A    between atoms: C_9  and  C_16
REMARK    6  A    between atoms: C_10  and  N_13
REMARK                            x       y       z     vdW  Elec       q    Type
REMARK                         _______ _______ _______ _____ _____    ______ ____
ROOT
ATOM      1  C   UNL     1       5.455  -6.170  23.593  0.00  0.00    +0.034 A 
ATOM      2  C   UNL     1       6.400  -5.895  22.600  0.00  0.00    +0.030 A 
ATOM      3  C   UNL     1       7.566  -5.198  22.919  0.00  0.00    +0.087 A 
ATOM      4  C   UNL     1       7.802  -4.829  24.252  0.00  0.00    +0.285 A 
ATOM      5  C   UNL     1       6.895  -5.141  25.277  0.00  0.00    +0.133 A 
ATOM      6  C   UNL     1       5.695  -5.780  24.914  0.00  0.00    +0.042 A 
ENDROOT
BRANCH   1   8
ATOM      7  C   UNL     1       3.062  -6.101  23.065  0.00  0.00    +0.220 C 
ATOM      8  N   UNL     1       4.236  -6.802  23.299  0.00  0.00    -0.285 N 
ATOM      9  H   UNL     1       4.273  -7.747  22.937  0.00  0.00    +0.155 HD
ATOM     10  O   UNL     1       2.991  -4.879  22.977  0.00  0.00    -0.275 OA
BRANCH   7  12
ATOM     11  C   UNL     1       1.897  -8.080  24.011  0.00  0.00    +0.017 C 
ATOM     12  C   UNL     1       1.845  -7.012  22.922  0.00  0.00    +0.069 C 
ATOM     13  C   UNL     1       0.550  -6.206  23.018  0.00  0.00    +0.017 C 
ENDBRANCH   7  12
ENDBRANCH   1   8
BRANCH   5  14
ATOM     14  C   UNL     1       7.157  -4.810  26.721  0.00  0.00    +0.424 C 
ATOM     15  F   UNL     1       6.155  -5.225  27.539  0.00  0.00    -0.166 F 
ATOM     16  F   UNL     1       7.334  -3.484  26.947  0.00  0.00    -0.166 F 
ATOM     17  F   UNL     1       8.289  -5.407  27.196  0.00  0.00    -0.166 F 
ENDBRANCH   5  14
BRANCH   4  18
ATOM     18  N   UNL     1       9.009  -4.065  24.527  0.00  0.00    +0.080 N 
ATOM     19  O   UNL     1       8.915  -2.831  24.454  0.00  0.00    +0.041 OA
ATOM     20  O   UNL     1      10.035  -4.697  24.795  0.00  0.00    -0.576 OA
ENDBRANCH   4  18
TORSDOF 4
ENDMDL
MODEL 9
REMARK VINA RESULT:      -5.8      1.657      2.138
REMARK  Name = 
REMARK  6 active torsions:
REMARK  status: ('A' for Active; 'I' for Inactive)
REMARK    1  A    between atoms: C_1  and  C_2
REMARK    2  A    between atoms: C_2  and  C_3
REMARK    3  A    between atoms: C_2  and  C_4
REMARK    4  A    between atoms: N_6  and  C_7
REMARK    5  A    between atoms: C_9  and  C_16
REMARK    6  A    between atoms: C_10  and  N_13
REMARK                            x       y       z     vdW  Elec       q    Type
REMARK                         _______ _______ _______ _____ _____    ______ ____
ROOT
ATOM      1  C   UNL     1       6.965  -2.150  23.339  0.00  0.00    +0.034 A 
ATOM      2  C   UNL     1       6.147  -1.368  24.159  0.00  0.00    +0.030 A 
ATOM      3  C   UNL     1       6.444  -0.019  24.358  0.00  0.00    +0.087 A 
ATOM      4  C   UNL     1       7.534   0.551  23.684  0.00  0.00    +0.285 A 
ATOM      5  C   UNL     1       8.338  -0.200  22.812  0.00  0.00    +0.133 A 
ATOM      6  C   UNL     1       8.059  -1.573  22.688  0.00  0.00    +0.042 A 
ENDROOT
BRANCH   1   8
ATOM      7  C   UNL     1       5.925  -4.044  22.179  0.00  0.00    +0.220 C 
ATOM      8  N   UNL     1       6.744  -3.527  23.173  0.00  0.00    -0.285 N 
ATOM      9  H   UNL     1       7.429  -4.162  23.564  0.00  0.00    +0.155 HD
ATOM     10  O   UNL     1       5.411  -3.375  21.289  0.00  0.00    -0.275 OA
BRANCH   7  12
ATOM     11  C   UNL     1       7.028  -6.257  21.938  0.00  0.00    +0.017 C 
ATOM     12  C   UNL     1       5.723  -5.552  22.301  0.00  0.00    +0.069 C 
ATOM     13  C   UNL     1       5.283  -5.928  23.715  0.00  0.00    +0.017 C 
ENDBRANCH   7  12
ENDBRANCH   1   8
BRANCH   5  14
ATOM     14  C   UNL     1       9.473   0.404  22.031  0.00  0.00    +0.424 C 
ATOM     15  F   UNL     1       9.066   1.414  21.220  0.00  0.00    -0.166 F 
ATOM     16  F   UNL     1      10.131  -0.493  21.254  0.00  0.00    -0.166 F 
ATOM     17  F   UNL     1      10.431   0.946  22.838  0.00  0.00    -0.166 F 
ENDBRANCH   5  14
BRANCH   4  18
ATOM     18  N   UNL     1       7.830   1.948  23.958  0.00  0.00    +0.080 N 
ATOM     19  O   UNL     1       8.598   2.179  24.904  0.00  0.00    +0.041 OA
ATOM     20  O   UNL     1       7.286   2.797  23.245  0.00  0.00    -0.576 OA
ENDBRANCH   4  18
TORSDOF 4
ENDMDL
