MODEL 1
REMARK VINA RESULT:      -7.0      0.000      0.000
REMARK  Name = 
REMARK  9 active torsions:
REMARK  status: ('A' for Active; 'I' for Inactive)
REMARK    1  A    between atoms: C_5  and  C_6
REMARK    2  A    between atoms: C_6  and  S_7
REMARK    3  A    between atoms: S_7  and  C_8
REMARK    4  A    between atoms: C_11  and  C_12
REMARK    5  A    between atoms: CA_14  and  C_29
REMARK    6  A    between atoms: CA_18  and  N_20
REMARK    7  A    between atoms: C_21  and  C_23
REMARK    8  A    between atoms: C_23  and  N_24
REMARK    9  A    between atoms: C_29  and  O_30
REMARK                            x       y       z     vdW  Elec       q    Type
REMARK                         _______ _______ _______ _____ _____    ______ ____
ROOT
ATOM      1  C   UNL     1       9.071  -3.200  23.971  0.00  0.00    +0.169 C 
ATOM      2  CA  UNL     1       8.555  -3.797  25.321  0.00  0.00    +0.191 C 
ATOM      3  C   UNL     1       8.906  -2.384  25.890  0.00  0.00    +0.244 C 
ATOM      4  O   UNL     1       8.800  -1.798  26.943  0.00  0.00    -0.273 OA
ATOM      5  N   UNL     1       9.161  -1.919  24.650  0.00  0.00    -0.249 N 
ATOM      6  CA  UNL     1       9.337  -0.709  24.036  0.00  0.00    +0.123 C 
ATOM      7  C   UNL     1       9.155  -0.583  22.687  0.00  0.00    -0.021 C 
ATOM      8  C   UNL     1       8.799  -1.762  21.791  0.00  0.00    +0.104 C 
ATOM      9  S   UNL     1       7.876  -3.068  22.632  0.00  0.00    -0.131 S 
ENDROOT
BRANCH   2  10
ATOM     10  N   UNL     1       7.099  -4.143  25.420  0.00  0.00    -0.300 N 
ATOM     11  H   UNL     1       6.458  -3.702  24.765  0.00  0.00    +0.150 HD
ATOM     12  C   UNL     1       6.689  -5.286  26.072  0.00  0.00    +0.235 C 
ATOM     13  O   UNL     1       7.464  -5.972  26.736  0.00  0.00    -0.274 OA
BRANCH  12  14
ATOM     14  C   UNL     1       5.226  -5.627  25.921  0.00  0.00    +0.242 C 
BRANCH  14  15
ATOM     15  N   UNL     1       4.785  -5.467  24.560  0.00  0.00    -0.223 N 
ATOM     16  N   UNL     1       5.523  -5.929  23.538  0.00  0.00    -0.044 NA
ATOM     17  N   UNL     1       4.882  -5.536  22.446  0.00  0.00    -0.023 NA
ATOM     18  N   UNL     1       3.757  -4.815  22.769  0.00  0.00    -0.117 NA
ATOM     19  C   UNL     1       3.715  -4.780  24.080  0.00  0.00    +0.245 A 
ENDBRANCH  14  15
ENDBRANCH  12  14
ENDBRANCH   2  10
BRANCH   6  20
ATOM     20  C   UNL     1       9.801   0.483  24.849  0.00  0.00    +0.351 C 
ATOM     21  OXT UNL     1      10.981   0.799  24.934  0.00  0.00    -0.244 OA
BRANCH  20  22
ATOM     22  O   UNL     1       8.870   1.171  25.533  0.00  0.00    -0.476 OA
ATOM     23  H   UNL     1       7.952   1.173  25.184  0.00  0.00    +0.295 HD
ENDBRANCH  20  22
ENDBRANCH   6  20
BRANCH   7  24
ATOM     24  C   UNL     1       9.297   0.766  21.970  0.00  0.00    +0.110 C 
BRANCH  24  25
ATOM     25  S   UNL     1       7.799   1.780  21.785  0.00  0.00    -0.093 S 
BRANCH  25  26
ATOM     26  C   UNL     1       8.274   3.270  22.566  0.00  0.00    +0.159 A 
ATOM     27  S   UNL     1       7.329   4.696  22.483  0.00  0.00    -0.044 S 
ATOM     28  C   UNL     1       8.458   5.411  23.563  0.00  0.00    +0.100 A 
ATOM     29  C   UNL     1       8.275   6.804  24.040  0.00  0.00    +0.075 C 
ATOM     30  N   UNL     1       9.452   4.619  23.907  0.00  0.00    -0.146 NA
ATOM     31  N   UNL     1       9.350   3.377  23.315  0.00  0.00    -0.135 NA
ENDBRANCH  25  26
ENDBRANCH  24  25
ENDBRANCH   7  24
TORSDOF 8
ENDMDL
MODEL 2
REMARK VINA RESULT:      -6.9      2.686      3.492
REMARK  Name = 
REMARK  9 active torsions:
REMARK  status: ('A' for Active; 'I' for Inactive)
REMARK    1  A    between atoms: C_5  and  C_6
REMARK    2  A    between atoms: C_6  and  S_7
REMARK    3  A    between atoms: S_7  and  C_8
REMARK    4  A    between atoms: C_11  and  C_12
REMARK    5  A    between atoms: CA_14  and  C_29
REMARK    6  A    between atoms: CA_18  and  N_20
REMARK    7  A    between atoms: C_21  and  C_23
REMARK    8  A    between atoms: C_23  and  N_24
REMARK    9  A    between atoms: C_29  and  O_30
REMARK                            x       y       z     vdW  Elec       q    Type
REMARK                         _______ _______ _______ _____ _____    ______ ____
ROOT
ATOM      1  C   UNL     1       6.234  -1.538  23.987  0.00  0.00    +0.169 C 
ATOM      2  CA  UNL     1       5.702  -2.932  23.522  0.00  0.00    +0.191 C 
ATOM      3  C   UNL     1       7.012  -2.964  22.669  0.00  0.00    +0.244 C 
ATOM      4  O   UNL     1       7.576  -3.743  21.937  0.00  0.00    -0.273 OA
ATOM      5  N   UNL     1       7.458  -1.840  23.265  0.00  0.00    -0.249 N 
ATOM      6  CA  UNL     1       8.633  -1.149  23.378  0.00  0.00    +0.123 C 
ATOM      7  C   UNL     1       8.829  -0.275  24.411  0.00  0.00    -0.021 C 
ATOM      8  C   UNL     1       7.759   0.016  25.455  0.00  0.00    +0.104 C 
ATOM      9  S   UNL     1       6.617  -1.356  25.736  0.00  0.00    -0.131 S 
ENDROOT
BRANCH   2  10
ATOM     10  N   UNL     1       5.621  -4.026  24.546  0.00  0.00    -0.300 N 
ATOM     11  H   UNL     1       5.592  -3.759  25.527  0.00  0.00    +0.150 HD
ATOM     12  C   UNL     1       5.197  -5.290  24.195  0.00  0.00    +0.235 C 
ATOM     13  O   UNL     1       5.034  -5.621  23.022  0.00  0.00    -0.274 OA
BRANCH  12  14
ATOM     14  C   UNL     1       4.961  -6.235  25.348  0.00  0.00    +0.242 C 
BRANCH  14  15
ATOM     15  N   UNL     1       5.819  -5.931  26.463  0.00  0.00    -0.223 N 
ATOM     16  N   UNL     1       7.143  -5.780  26.293  0.00  0.00    -0.044 NA
ATOM     17  N   UNL     1       7.628  -5.605  27.515  0.00  0.00    -0.023 NA
ATOM     18  N   UNL     1       6.626  -5.663  28.455  0.00  0.00    -0.117 NA
ATOM     19  C   UNL     1       5.516  -5.867  27.786  0.00  0.00    +0.245 A 
ENDBRANCH  14  15
ENDBRANCH  12  14
ENDBRANCH   2  10
BRANCH   6  20
ATOM     20  C   UNL     1       9.699  -1.305  22.311  0.00  0.00    +0.351 C 
ATOM     21  OXT UNL     1      10.737  -1.923  22.508  0.00  0.00    -0.244 OA
BRANCH  20  22
ATOM     22  O   UNL     1       9.494  -0.691  21.132  0.00  0.00    -0.476 OA
ATOM     23  H   UNL     1       9.570  -1.230  20.314  0.00  0.00    +0.295 HD
ENDBRANCH  20  22
ENDBRANCH   6  20
BRANCH   7  24
ATOM     24  C   UNL     1      10.150   0.482  24.597  0.00  0.00    +0.110 C 
BRANCH  24  25
ATOM     25  S   UNL     1      10.512   1.835  23.437  0.00  0.00    -0.093 S 
BRANCH  25  26
ATOM     26  C   UNL     1       8.909   2.423  23.058  0.00  0.00    +0.159 A 
ATOM     27  S   UNL     1       8.070   3.524  24.066  0.00  0.00    -0.044 S 
ATOM     28  C   UNL     1       6.842   3.562  22.866  0.00  0.00    +0.100 A 
ATOM     29  C   UNL     1       5.645   4.424  23.031  0.00  0.00    +0.075 C 
ATOM     30  N   UNL     1       7.074   2.782  21.830  0.00  0.00    -0.146 NA
ATOM     31  N   UNL     1       8.273   2.110  21.950  0.00  0.00    -0.135 NA
ENDBRANCH  25  26
ENDBRANCH  24  25
ENDBRANCH   7  24
TORSDOF 8
ENDMDL
MODEL 3
REMARK VINA RESULT:      -6.9      3.264      8.987
REMARK  Name = 
REMARK  9 active torsions:
REMARK  status: ('A' for Active; 'I' for Inactive)
REMARK    1  A    between atoms: C_5  and  C_6
REMARK    2  A    between atoms: C_6  and  S_7
REMARK    3  A    between atoms: S_7  and  C_8
REMARK    4  A    between atoms: C_11  and  C_12
REMARK    5  A    between atoms: CA_14  and  C_29
REMARK    6  A    between atoms: CA_18  and  N_20
REMARK    7  A    between atoms: C_21  and  C_23
REMARK    8  A    between atoms: C_23  and  N_24
REMARK    9  A    between atoms: C_29  and  O_30
REMARK                            x       y       z     vdW  Elec       q    Type
REMARK                         _______ _______ _______ _____ _____    ______ ____
ROOT
ATOM      1  C   UNL     1       9.209   0.151  22.181  0.00  0.00    +0.169 C 
ATOM      2  CA  UNL     1       8.626   1.602  22.196  0.00  0.00    +0.191 C 
ATOM      3  C   UNL     1       7.270   0.877  22.479  0.00  0.00    +0.244 C 
ATOM      4  O   UNL     1       6.128   1.192  22.721  0.00  0.00    -0.273 OA
ATOM      5  N   UNL     1       7.902  -0.306  22.619  0.00  0.00    -0.249 N 
ATOM      6  CA  UNL     1       7.622  -1.555  23.102  0.00  0.00    +0.123 C 
ATOM      7  C   UNL     1       8.632  -2.396  23.479  0.00  0.00    -0.021 C 
ATOM      8  C   UNL     1      10.103  -2.024  23.348  0.00  0.00    +0.104 C 
ATOM      9  S   UNL     1      10.423  -0.249  23.449  0.00  0.00    -0.131 S 
ENDROOT
BRANCH   2  10
ATOM     10  N   UNL     1       9.063   2.519  23.300  0.00  0.00    -0.300 N 
ATOM     11  H   UNL     1       9.881   2.256  23.842  0.00  0.00    +0.150 HD
ATOM     12  C   UNL     1       8.649   3.834  23.328  0.00  0.00    +0.235 C 
ATOM     13  O   UNL     1       7.786   4.263  22.565  0.00  0.00    -0.274 OA
BRANCH  12  14
ATOM     14  C   UNL     1       9.322   4.701  24.365  0.00  0.00    +0.242 C 
BRANCH  14  15
ATOM     15  N   UNL     1      10.662   5.049  23.973  0.00  0.00    -0.223 N 
ATOM     16  N   UNL     1      11.458   4.152  23.368  0.00  0.00    -0.044 NA
ATOM     17  N   UNL     1      12.627   4.764  23.235  0.00  0.00    -0.023 NA
ATOM     18  N   UNL     1      12.581   6.031  23.767  0.00  0.00    -0.117 NA
ATOM     19  C   UNL     1      11.360   6.188  24.220  0.00  0.00    +0.245 A 
ENDBRANCH  14  15
ENDBRANCH  12  14
ENDBRANCH   2  10
BRANCH   6  20
ATOM     20  C   UNL     1       6.184  -2.033  23.154  0.00  0.00    +0.351 C 
ATOM     21  OXT UNL     1       5.715  -2.791  22.315  0.00  0.00    -0.244 OA
BRANCH  20  22
ATOM     22  O   UNL     1       5.404  -1.552  24.138  0.00  0.00    -0.476 OA
ATOM     23  H   UNL     1       5.156  -2.161  24.867  0.00  0.00    +0.295 HD
ENDBRANCH  20  22
ENDBRANCH   6  20
BRANCH   7  24
ATOM     24  C   UNL     1       8.357  -3.785  24.068  0.00  0.00    +0.110 C 
BRANCH  24  25
ATOM     25  S   UNL     1       8.783  -4.055  25.816  0.00  0.00    -0.093 S 
BRANCH  25  26
ATOM     26  C   UNL     1       7.413  -4.984  26.381  0.00  0.00    +0.159 A 
ATOM     27  S   UNL     1       5.968  -5.140  25.474  0.00  0.00    -0.044 S 
ATOM     28  C   UNL     1       5.420  -6.226  26.686  0.00  0.00    +0.100 A 
ATOM     29  C   UNL     1       4.094  -6.884  26.573  0.00  0.00    +0.075 C 
ATOM     30  N   UNL     1       6.270  -6.405  27.676  0.00  0.00    -0.146 NA
ATOM     31  N   UNL     1       7.425  -5.671  27.502  0.00  0.00    -0.135 NA
ENDBRANCH  25  26
ENDBRANCH  24  25
ENDBRANCH   7  24
TORSDOF 8
ENDMDL
MODEL 4
REMARK VINA RESULT:      -6.8      1.948      2.432
REMARK  Name = 
REMARK  9 active torsions:
REMARK  status: ('A' for Active; 'I' for Inactive)
REMARK    1  A    between atoms: C_5  and  C_6
REMARK    2  A    between atoms: C_6  and  S_7
REMARK    3  A    between atoms: S_7  and  C_8
REMARK    4  A    between atoms: C_11  and  C_12
REMARK    5  A    between atoms: CA_14  and  C_29
REMARK    6  A    between atoms: CA_18  and  N_20
REMARK    7  A    between atoms: C_21  and  C_23
REMARK    8  A    between atoms: C_23  and  N_24
REMARK    9  A    between atoms: C_29  and  O_30
REMARK                            x       y       z     vdW  Elec       q    Type
REMARK                         _______ _______ _______ _____ _____    ______ ____
ROOT
ATOM      1  C   UNL     1       8.554  -3.574  25.541  0.00  0.00    +0.169 C 
ATOM      2  CA  UNL     1       7.291  -4.398  25.952  0.00  0.00    +0.191 C 
ATOM      3  C   UNL     1       6.916  -3.112  26.757  0.00  0.00    +0.244 C 
ATOM      4  O   UNL     1       5.990  -2.723  27.429  0.00  0.00    -0.273 OA
ATOM      5  N   UNL     1       7.944  -2.435  26.205  0.00  0.00    -0.249 N 
ATOM      6  CA  UNL     1       8.357  -1.136  26.088  0.00  0.00    +0.123 C 
ATOM      7  C   UNL     1       9.222  -0.770  25.094  0.00  0.00    -0.021 C 
ATOM      8  C   UNL     1       9.806  -1.769  24.103  0.00  0.00    +0.104 C 
ATOM      9  S   UNL     1       8.745  -3.197  23.792  0.00  0.00    -0.131 S 
ENDROOT
BRANCH   2  10
ATOM     10  N   UNL     1       6.304  -4.746  24.877  0.00  0.00    -0.300 N 
ATOM     11  H   UNL     1       6.405  -4.293  23.973  0.00  0.00    +0.150 HD
ATOM     12  C   UNL     1       5.558  -5.903  24.954  0.00  0.00    +0.235 C 
ATOM     13  O   UNL     1       5.539  -6.602  25.966  0.00  0.00    -0.274 OA
BRANCH  12  14
ATOM     14  C   UNL     1       4.761  -6.241  23.716  0.00  0.00    +0.242 C 
BRANCH  14  15
ATOM     15  N   UNL     1       5.289  -5.579  22.553  0.00  0.00    -0.223 N 
ATOM     16  N   UNL     1       5.029  -4.282  22.321  0.00  0.00    -0.044 NA
ATOM     17  N   UNL     1       5.579  -4.027  21.141  0.00  0.00    -0.023 NA
ATOM     18  N   UNL     1       6.166  -5.154  20.619  0.00  0.00    -0.117 NA
ATOM     19  C   UNL     1       5.975  -6.104  21.504  0.00  0.00    +0.245 A 
ENDBRANCH  14  15
ENDBRANCH  12  14
ENDBRANCH   2  10
BRANCH   6  20
ATOM     20  C   UNL     1       7.905  -0.112  27.109  0.00  0.00    +0.351 C 
ATOM     21  OXT UNL     1       6.924   0.600  26.932  0.00  0.00    -0.244 OA
BRANCH  20  22
ATOM     22  O   UNL     1       8.653   0.037  28.216  0.00  0.00    -0.476 OA
ATOM     23  H   UNL     1       9.520   0.489  28.128  0.00  0.00    +0.295 HD
ENDBRANCH  20  22
ENDBRANCH   6  20
BRANCH   7  24
ATOM     24  C   UNL     1       9.673   0.683  24.902  0.00  0.00    +0.110 C 
BRANCH  24  25
ATOM     25  S   UNL     1      10.148   1.200  23.225  0.00  0.00    -0.093 S 
BRANCH  25  26
ATOM     26  C   UNL     1      10.280   2.935  23.406  0.00  0.00    +0.159 A 
ATOM     27  S   UNL     1       8.934   3.926  23.781  0.00  0.00    -0.044 S 
ATOM     28  C   UNL     1      10.033   5.243  23.872  0.00  0.00    +0.100 A 
ATOM     29  C   UNL     1       9.558   6.604  24.226  0.00  0.00    +0.075 C 
ATOM     30  N   UNL     1      11.283   4.923  23.611  0.00  0.00    -0.146 NA
ATOM     31  N   UNL     1      11.423   3.580  23.328  0.00  0.00    -0.135 NA
ENDBRANCH  25  26
ENDBRANCH  24  25
ENDBRANCH   7  24
TORSDOF 8
ENDMDL
MODEL 5
REMARK VINA RESULT:      -6.7      3.031      7.729
REMARK  Name = 
REMARK  9 active torsions:
REMARK  status: ('A' for Active; 'I' for Inactive)
REMARK    1  A    between atoms: C_5  and  C_6
REMARK    2  A    between atoms: C_6  and  S_7
REMARK    3  A    between atoms: S_7  and  C_8
REMARK    4  A    between atoms: C_11  and  C_12
REMARK    5  A    between atoms: CA_14  and  C_29
REMARK    6  A    between atoms: CA_18  and  N_20
REMARK    7  A    between atoms: C_21  and  C_23
REMARK    8  A    between atoms: C_23  and  N_24
REMARK    9  A    between atoms: C_29  and  O_30
REMARK                            x       y       z     vdW  Elec       q    Type
REMARK                         _______ _______ _______ _____ _____    ______ ____
ROOT
ATOM      1  C   UNL     1       9.456   1.495  24.510  0.00  0.00    +0.169 C 
ATOM      2  CA  UNL     1       9.717   2.254  23.168  0.00  0.00    +0.191 C 
ATOM      3  C   UNL     1       9.819   0.815  22.565  0.00  0.00    +0.244 C 
ATOM      4  O   UNL     1       9.964   0.317  21.473  0.00  0.00    -0.273 OA
ATOM      5  N   UNL     1       9.414   0.270  23.731  0.00  0.00    -0.249 N 
ATOM      6  CA  UNL     1       8.960  -0.939  24.182  0.00  0.00    +0.123 C 
ATOM      7  C   UNL     1       8.235  -1.021  25.338  0.00  0.00    -0.021 C 
ATOM      8  C   UNL     1       7.930   0.194  26.205  0.00  0.00    +0.104 C 
ATOM      9  S   UNL     1       7.852   1.748  25.287  0.00  0.00    -0.131 S 
ENDROOT
BRANCH   2  10
ATOM     10  N   UNL     1       8.595   3.069  22.596  0.00  0.00    -0.300 N 
ATOM     11  H   UNL     1       7.831   2.575  22.142  0.00  0.00    +0.150 HD
ATOM     12  C   UNL     1       8.387   4.368  23.009  0.00  0.00    +0.235 C 
ATOM     13  O   UNL     1       9.194   4.964  23.719  0.00  0.00    -0.274 OA
BRANCH  12  14
ATOM     14  C   UNL     1       7.109   5.005  22.518  0.00  0.00    +0.242 C 
BRANCH  14  15
ATOM     15  N   UNL     1       5.951   4.376  23.097  0.00  0.00    -0.223 N 
ATOM     16  N   UNL     1       5.474   3.221  22.603  0.00  0.00    -0.044 NA
ATOM     17  N   UNL     1       4.370   2.981  23.297  0.00  0.00    -0.023 NA
ATOM     18  N   UNL     1       4.135   3.982  24.210  0.00  0.00    -0.117 NA
ATOM     19  C   UNL     1       5.121   4.836  24.070  0.00  0.00    +0.245 A 
ENDBRANCH  14  15
ENDBRANCH  12  14
ENDBRANCH   2  10
BRANCH   6  20
ATOM     20  C   UNL     1       9.323  -2.204  23.429  0.00  0.00    +0.351 C 
ATOM     21  OXT UNL     1      10.202  -2.965  23.813  0.00  0.00    -0.244 OA
BRANCH  20  22
ATOM     22  O   UNL     1       8.677  -2.448  22.276  0.00  0.00    -0.476 OA
ATOM     23  H   UNL     1       8.765  -1.791  21.552  0.00  0.00    +0.295 HD
ENDBRANCH  20  22
ENDBRANCH   6  20
BRANCH   7  24
ATOM     24  C   UNL     1       7.670  -2.351  25.852  0.00  0.00    +0.110 C 
BRANCH  24  25
ATOM     25  S   UNL     1       5.916  -2.700  25.524  0.00  0.00    -0.093 S 
BRANCH  25  26
ATOM     26  C   UNL     1       5.979  -3.377  23.913  0.00  0.00    +0.159 A 
ATOM     27  S   UNL     1       6.385  -5.015  23.617  0.00  0.00    -0.044 S 
ATOM     28  C   UNL     1       6.044  -4.716  21.960  0.00  0.00    +0.100 A 
ATOM     29  C   UNL     1       6.155  -5.802  20.954  0.00  0.00    +0.075 C 
ATOM     30  N   UNL     1       5.686  -3.476  21.697  0.00  0.00    -0.146 NA
ATOM     31  N   UNL     1       5.661  -2.695  22.834  0.00  0.00    -0.135 NA
ENDBRANCH  25  26
ENDBRANCH  24  25
ENDBRANCH   7  24
TORSDOF 8
ENDMDL
MODEL 6
REMARK VINA RESULT:      -6.6      3.396      8.035
REMARK  Name = 
REMARK  9 active torsions:
REMARK  status: ('A' for Active; 'I' for Inactive)
REMARK    1  A    between atoms: C_5  and  C_6
REMARK    2  A    between atoms: C_6  and  S_7
REMARK    3  A    between atoms: S_7  and  C_8
REMARK    4  A    between atoms: C_11  and  C_12
REMARK    5  A    between atoms: CA_14  and  C_29
REMARK    6  A    between atoms: CA_18  and  N_20
REMARK    7  A    between atoms: C_21  and  C_23
REMARK    8  A    between atoms: C_23  and  N_24
REMARK    9  A    between atoms: C_29  and  O_30
REMARK                            x       y       z     vdW  Elec       q    Type
REMARK                         _______ _______ _______ _____ _____    ______ ____
ROOT
ATOM      1  C   UNL     1       9.250   0.336  22.136  0.00  0.00    +0.169 C 
ATOM      2  CA  UNL     1       8.663   1.784  22.171  0.00  0.00    +0.191 C 
ATOM      3  C   UNL     1       7.310   1.052  22.448  0.00  0.00    +0.244 C 
ATOM      4  O   UNL     1       6.167   1.360  22.696  0.00  0.00    -0.273 OA
ATOM      5  N   UNL     1       7.945  -0.131  22.570  0.00  0.00    -0.249 N 
ATOM      6  CA  UNL     1       7.670  -1.387  23.038  0.00  0.00    +0.123 C 
ATOM      7  C   UNL     1       8.683  -2.230  23.402  0.00  0.00    -0.021 C 
ATOM      8  C   UNL     1      10.153  -1.853  23.271  0.00  0.00    +0.104 C 
ATOM      9  S   UNL     1      10.468  -0.078  23.395  0.00  0.00    -0.131 S 
ENDROOT
BRANCH   2  10
ATOM     10  N   UNL     1       9.100   2.688  23.285  0.00  0.00    -0.300 N 
ATOM     11  H   UNL     1       9.894   2.398  23.851  0.00  0.00    +0.150 HD
ATOM     12  C   UNL     1       8.730   4.016  23.301  0.00  0.00    +0.235 C 
ATOM     13  O   UNL     1       7.902   4.472  22.515  0.00  0.00    -0.274 OA
BRANCH  12  14
ATOM     14  C   UNL     1       9.403   4.861  24.357  0.00  0.00    +0.242 C 
BRANCH  14  15
ATOM     15  N   UNL     1      10.771   5.145  24.011  0.00  0.00    -0.223 N 
ATOM     16  N   UNL     1      11.511   4.250  23.336  0.00  0.00    -0.044 NA
ATOM     17  N   UNL     1      12.723   4.785  23.272  0.00  0.00    -0.023 NA
ATOM     18  N   UNL     1      12.759   5.999  23.916  0.00  0.00    -0.117 NA
ATOM     19  C   UNL     1      11.544   6.204  24.368  0.00  0.00    +0.245 A 
ENDBRANCH  14  15
ENDBRANCH  12  14
ENDBRANCH   2  10
BRANCH   6  20
ATOM     20  C   UNL     1       6.233  -1.869  23.087  0.00  0.00    +0.351 C 
ATOM     21  OXT UNL     1       5.766  -2.625  22.244  0.00  0.00    -0.244 OA
BRANCH  20  22
ATOM     22  O   UNL     1       5.452  -1.396  24.074  0.00  0.00    -0.476 OA
ATOM     23  H   UNL     1       4.820  -0.677  23.854  0.00  0.00    +0.295 HD
ENDBRANCH  20  22
ENDBRANCH   6  20
BRANCH   7  24
ATOM     24  C   UNL     1       8.413  -3.628  23.973  0.00  0.00    +0.110 C 
BRANCH  24  25
ATOM     25  S   UNL     1       8.673  -3.870  25.757  0.00  0.00    -0.093 S 
BRANCH  25  26
ATOM     26  C   UNL     1       7.825  -2.498  26.434  0.00  0.00    +0.159 A 
ATOM     27  S   UNL     1       8.606  -1.016  26.789  0.00  0.00    -0.044 S 
ATOM     28  C   UNL     1       7.059  -0.393  27.201  0.00  0.00    +0.100 A 
ATOM     29  C   UNL     1       6.899   1.018  27.633  0.00  0.00    +0.075 C 
ATOM     30  N   UNL     1       6.079  -1.265  27.091  0.00  0.00    -0.146 NA
ATOM     31  N   UNL     1       6.529  -2.494  26.655  0.00  0.00    -0.135 NA
ENDBRANCH  25  26
ENDBRANCH  24  25
ENDBRANCH   7  24
TORSDOF 8
ENDMDL
MODEL 7
REMARK VINA RESULT:      -6.6      2.749      3.634
REMARK  Name = 
REMARK  9 active torsions:
REMARK  status: ('A' for Active; 'I' for Inactive)
REMARK    1  A    between atoms: C_5  and  C_6
REMARK    2  A    between atoms: C_6  and  S_7
REMARK    3  A    between atoms: S_7  and  C_8
REMARK    4  A    between atoms: C_11  and  C_12
REMARK    5  A    between atoms: CA_14  and  C_29
REMARK    6  A    between atoms: CA_18  and  N_20
REMARK    7  A    between atoms: C_21  and  C_23
REMARK    8  A    between atoms: C_23  and  N_24
REMARK    9  A    between atoms: C_29  and  O_30
REMARK                            x       y       z     vdW  Elec       q    Type
REMARK                         _______ _______ _______ _____ _____    ______ ____
ROOT
ATOM      1  C   UNL     1       5.704  -3.092  23.445  0.00  0.00    +0.169 C 
ATOM      2  CA  UNL     1       5.727  -4.648  23.593  0.00  0.00    +0.191 C 
ATOM      3  C   UNL     1       7.262  -4.484  23.349  0.00  0.00    +0.244 C 
ATOM      4  O   UNL     1       8.240  -5.194  23.332  0.00  0.00    -0.273 OA
ATOM      5  N   UNL     1       7.155  -3.141  23.413  0.00  0.00    -0.249 N 
ATOM      6  CA  UNL     1       7.985  -2.061  23.542  0.00  0.00    +0.123 C 
ATOM      7  C   UNL     1       7.505  -0.867  24.001  0.00  0.00    -0.021 C 
ATOM      8  C   UNL     1       6.038  -0.649  24.348  0.00  0.00    +0.104 C 
ATOM      9  S   UNL     1       5.182  -2.147  24.886  0.00  0.00    -0.131 S 
ENDROOT
BRANCH   2  10
ATOM     10  N   UNL     1       5.388  -5.228  24.935  0.00  0.00    -0.300 N 
ATOM     11  H   UNL     1       5.294  -4.588  25.720  0.00  0.00    +0.150 HD
ATOM     12  C   UNL     1       4.829  -6.484  25.039  0.00  0.00    +0.235 C 
ATOM     13  O   UNL     1       4.745  -7.242  24.074  0.00  0.00    -0.274 OA
BRANCH  12  14
ATOM     14  C   UNL     1       4.344  -6.863  26.418  0.00  0.00    +0.242 C 
BRANCH  14  15
ATOM     15  N   UNL     1       5.203  -6.331  27.443  0.00  0.00    -0.223 N 
ATOM     16  N   UNL     1       6.537  -6.320  27.287  0.00  0.00    -0.044 NA
ATOM     17  N   UNL     1       7.013  -5.859  28.436  0.00  0.00    -0.023 NA
ATOM     18  N   UNL     1       5.994  -5.598  29.321  0.00  0.00    -0.117 NA
ATOM     19  C   UNL     1       4.883  -5.898  28.690  0.00  0.00    +0.245 A 
ENDBRANCH  14  15
ENDBRANCH  12  14
ENDBRANCH   2  10
BRANCH   6  20
ATOM     20  C   UNL     1       9.433  -2.175  23.108  0.00  0.00    +0.351 C 
ATOM     21  OXT UNL     1       9.853  -1.650  22.084  0.00  0.00    -0.244 OA
BRANCH  20  22
ATOM     22  O   UNL     1      10.253  -2.925  23.865  0.00  0.00    -0.476 OA
ATOM     23  H   UNL     1      11.203  -2.678  23.897  0.00  0.00    +0.295 HD
ENDBRANCH  20  22
ENDBRANCH   6  20
BRANCH   7  24
ATOM     24  C   UNL     1       8.413   0.353  24.203  0.00  0.00    +0.110 C 
BRANCH  24  25
ATOM     25  S   UNL     1       7.617   1.983  24.321  0.00  0.00    -0.093 S 
BRANCH  25  26
ATOM     26  C   UNL     1       8.981   3.064  24.153  0.00  0.00    +0.159 A 
ATOM     27  S   UNL     1      10.464   2.572  23.450  0.00  0.00    -0.044 S 
ATOM     28  C   UNL     1      10.985   4.201  23.608  0.00  0.00    +0.100 A 
ATOM     29  C   UNL     1      12.328   4.619  23.132  0.00  0.00    +0.075 C 
ATOM     30  N   UNL     1      10.100   5.000  24.167  0.00  0.00    -0.146 NA
ATOM     31  N   UNL     1       8.938   4.333  24.494  0.00  0.00    -0.135 NA
ENDBRANCH  25  26
ENDBRANCH  24  25
ENDBRANCH   7  24
TORSDOF 8
ENDMDL
MODEL 8
REMARK VINA RESULT:      -6.6      2.878      7.980
REMARK  Name = 
REMARK  9 active torsions:
REMARK  status: ('A' for Active; 'I' for Inactive)
REMARK    1  A    between atoms: C_5  and  C_6
REMARK    2  A    between atoms: C_6  and  S_7
REMARK    3  A    between atoms: S_7  and  C_8
REMARK    4  A    between atoms: C_11  and  C_12
REMARK    5  A    between atoms: CA_14  and  C_29
REMARK    6  A    between atoms: CA_18  and  N_20
REMARK    7  A    between atoms: C_21  and  C_23
REMARK    8  A    between atoms: C_23  and  N_24
REMARK    9  A    between atoms: C_29  and  O_30
REMARK                            x       y       z     vdW  Elec       q    Type
REMARK                         _______ _______ _______ _____ _____    ______ ____
ROOT
ATOM      1  C   UNL     1       8.228  -1.631  25.714  0.00  0.00    +0.169 C 
ATOM      2  CA  UNL     1       9.513  -0.921  25.175  0.00  0.00    +0.191 C 
ATOM      3  C   UNL     1       9.567  -2.131  24.187  0.00  0.00    +0.244 C 
ATOM      4  O   UNL     1      10.244  -2.483  23.249  0.00  0.00    -0.273 OA
ATOM      5  N   UNL     1       8.360  -2.562  24.608  0.00  0.00    -0.249 N 
ATOM      6  CA  UNL     1       7.399  -3.446  24.200  0.00  0.00    +0.123 C 
ATOM      7  C   UNL     1       6.110  -3.321  24.636  0.00  0.00    -0.021 C 
ATOM      8  C   UNL     1       5.677  -2.241  25.619  0.00  0.00    +0.104 C 
ATOM      9  S   UNL     1       6.675  -0.738  25.544  0.00  0.00    -0.131 S 
ENDROOT
BRANCH   2  10
ATOM     10  N   UNL     1       9.345   0.406  24.496  0.00  0.00    -0.300 N 
ATOM     11  H   UNL     1       8.409   0.799  24.443  0.00  0.00    +0.150 HD
ATOM     12  C   UNL     1      10.423   1.246  24.316  0.00  0.00    +0.235 C 
ATOM     13  O   UNL     1      11.577   0.885  24.541  0.00  0.00    -0.274 OA
BRANCH  12  14
ATOM     14  C   UNL     1      10.087   2.630  23.813  0.00  0.00    +0.242 C 
BRANCH  14  15
ATOM     15  N   UNL     1       8.894   2.622  23.007  0.00  0.00    -0.223 N 
ATOM     16  N   UNL     1       8.780   1.796  21.954  0.00  0.00    -0.044 NA
ATOM     17  N   UNL     1       7.620   2.113  21.394  0.00  0.00    -0.023 NA
ATOM     18  N   UNL     1       7.011   3.142  22.072  0.00  0.00    -0.117 NA
ATOM     19  C   UNL     1       7.815   3.445  23.064  0.00  0.00    +0.245 A 
ENDBRANCH  14  15
ENDBRANCH  12  14
ENDBRANCH   2  10
BRANCH   6  20
ATOM     20  C   UNL     1       7.784  -4.612  23.310  0.00  0.00    +0.351 C 
ATOM     21  OXT UNL     1       7.422  -4.693  22.143  0.00  0.00    -0.244 OA
BRANCH  20  22
ATOM     22  O   UNL     1       8.507  -5.603  23.861  0.00  0.00    -0.476 OA
ATOM     23  H   UNL     1       8.479  -6.486  23.431  0.00  0.00    +0.295 HD
ENDBRANCH  20  22
ENDBRANCH   6  20
BRANCH   7  24
ATOM     24  C   UNL     1       4.996  -4.264  24.164  0.00  0.00    +0.110 C 
BRANCH  24  25
ATOM     25  S   UNL     1       5.106  -6.009  24.664  0.00  0.00    -0.093 S 
BRANCH  25  26
ATOM     26  C   UNL     1       5.621  -5.874  26.330  0.00  0.00    +0.159 A 
ATOM     27  S   UNL     1       4.516  -5.657  27.621  0.00  0.00    -0.044 S 
ATOM     28  C   UNL     1       5.859  -5.790  28.685  0.00  0.00    +0.100 A 
ATOM     29  C   UNL     1       5.672  -5.722  30.156  0.00  0.00    +0.075 C 
ATOM     30  N   UNL     1       7.015  -5.956  28.077  0.00  0.00    -0.146 NA
ATOM     31  N   UNL     1       6.876  -5.992  26.705  0.00  0.00    -0.135 NA
ENDBRANCH  25  26
ENDBRANCH  24  25
ENDBRANCH   7  24
TORSDOF 8
ENDMDL
MODEL 9
REMARK VINA RESULT:      -6.6      2.772      9.035
REMARK  Name = 
REMARK  9 active torsions:
REMARK  status: ('A' for Active; 'I' for Inactive)
REMARK    1  A    between atoms: C_5  and  C_6
REMARK    2  A    between atoms: C_6  and  S_7
REMARK    3  A    between atoms: S_7  and  C_8
REMARK    4  A    between atoms: C_11  and  C_12
REMARK    5  A    between atoms: CA_14  and  C_29
REMARK    6  A    between atoms: CA_18  and  N_20
REMARK    7  A    between atoms: C_21  and  C_23
REMARK    8  A    between atoms: C_23  and  N_24
REMARK    9  A    between atoms: C_29  and  O_30
REMARK                            x       y       z     vdW  Elec       q    Type
REMARK                         _______ _______ _______ _____ _____    ______ ____
ROOT
ATOM      1  C   UNL     1       9.168   1.614  22.770  0.00  0.00    +0.169 C 
ATOM      2  CA  UNL     1       8.435   2.977  22.545  0.00  0.00    +0.191 C 
ATOM      3  C   UNL     1       7.157   2.165  22.934  0.00  0.00    +0.244 C 
ATOM      4  O   UNL     1       5.983   2.389  23.114  0.00  0.00    -0.273 OA
ATOM      5  N   UNL     1       7.907   1.095  23.268  0.00  0.00    -0.249 N 
ATOM      6  CA  UNL     1       7.749  -0.083  23.946  0.00  0.00    +0.123 C 
ATOM      7  C   UNL     1       8.833  -0.738  24.462  0.00  0.00    -0.021 C 
ATOM      8  C   UNL     1      10.260  -0.235  24.280  0.00  0.00    +0.104 C 
ATOM      9  S   UNL     1      10.387   1.557  24.093  0.00  0.00    -0.131 S 
ENDROOT
BRANCH   2  10
ATOM     10  N   UNL     1       8.746   4.101  23.487  0.00  0.00    -0.300 N 
ATOM     11  H   UNL     1       9.442   3.939  24.211  0.00  0.00    +0.150 HD
ATOM     12  C   UNL     1       8.429   5.403  23.160  0.00  0.00    +0.235 C 
ATOM     13  O   UNL     1       7.737   5.679  22.182  0.00  0.00    -0.274 OA
BRANCH  12  14
ATOM     14  C   UNL     1       8.979   6.456  24.092  0.00  0.00    +0.242 C 
BRANCH  14  15
ATOM     15  N   UNL     1      10.410   6.359  24.210  0.00  0.00    -0.223 N 
ATOM     16  N   UNL     1      11.138   5.726  23.274  0.00  0.00    -0.044 NA
ATOM     17  N   UNL     1      12.381   5.743  23.736  0.00  0.00    -0.023 NA
ATOM     18  N   UNL     1      12.441   6.363  24.962  0.00  0.00    -0.117 NA
ATOM     19  C   UNL     1      11.214   6.734  25.239  0.00  0.00    +0.245 A 
ENDBRANCH  14  15
ENDBRANCH  12  14
ENDBRANCH   2  10
BRANCH   6  20
ATOM     20  C   UNL     1       6.369  -0.699  24.067  0.00  0.00    +0.351 C 
ATOM     21  OXT UNL     1       5.664  -0.537  25.055  0.00  0.00    -0.244 OA
BRANCH  20  22
ATOM     22  O   UNL     1       5.949  -1.487  23.062  0.00  0.00    -0.476 OA
ATOM     23  H   UNL     1       5.958  -1.116  22.152  0.00  0.00    +0.295 HD
ENDBRANCH  20  22
ENDBRANCH   6  20
BRANCH   7  24
ATOM     24  C   UNL     1       8.692  -2.035  25.267  0.00  0.00    +0.110 C 
BRANCH  24  25
ATOM     25  S   UNL     1       9.294  -3.570  24.498  0.00  0.00    -0.093 S 
BRANCH  25  26
ATOM     26  C   UNL     1       7.855  -4.159  23.697  0.00  0.00    +0.159 A 
ATOM     27  S   UNL     1       6.660  -5.078  24.509  0.00  0.00    -0.044 S 
ATOM     28  C   UNL     1       5.741  -5.014  23.059  0.00  0.00    +0.100 A 
ATOM     29  C   UNL     1       4.399  -5.642  22.982  0.00  0.00    +0.075 C 
ATOM     30  N   UNL     1       6.332  -4.370  22.073  0.00  0.00    -0.146 NA
ATOM     31  N   UNL     1       7.568  -3.884  22.444  0.00  0.00    -0.135 NA
ENDBRANCH  25  26
ENDBRANCH  24  25
ENDBRANCH   7  24
TORSDOF 8
ENDMDL
