MODEL 1
REMARK VINA RESULT:      -6.1      0.000      0.000
REMARK  Name = 
REMARK  9 active torsions:
REMARK  status: ('A' for Active; 'I' for Inactive)
REMARK    1  A    between atoms: C_5  and  C_6
REMARK    2  A    between atoms: C_6  and  O_7
REMARK    3  A    between atoms: O_7  and  C_8
REMARK    4  A    between atoms: C_8  and  C_9
REMARK    5  A    between atoms: CA_11  and  C_23
REMARK    6  A    between atoms: CA_15  and  N_17
REMARK    7  A    between atoms: C_18  and  C_20
REMARK    8  A    between atoms: C_20  and  C_21
REMARK    9  A    between atoms: C_23  and  O_24
REMARK                            x       y       z     vdW  Elec       q    Type
REMARK                         _______ _______ _______ _____ _____    ______ ____
ROOT
ATOM      1  C   UNL     1       8.848  -1.243  25.680  0.00  0.00    +0.169 C 
ATOM      2  CA  UNL     1       9.508  -0.533  24.451  0.00  0.00    +0.191 C 
ATOM      3  C   UNL     1       9.828  -2.000  23.997  0.00  0.00    +0.244 C 
ATOM      4  O   UNL     1      10.416  -2.578  23.115  0.00  0.00    -0.273 OA
ATOM      5  N   UNL     1       9.035  -2.495  24.971  0.00  0.00    -0.249 N 
ATOM      6  CA  UNL     1       8.451  -3.686  25.308  0.00  0.00    +0.125 C 
ATOM      7  C   UNL     1       7.415  -3.696  26.198  0.00  0.00    +0.006 C 
ATOM      8  C   UNL     1       6.799  -2.448  26.806  0.00  0.00    +0.107 C 
ATOM      9  S   UNL     1       7.073  -0.934  25.867  0.00  0.00    -0.131 S 
ENDROOT
BRANCH   2  10
ATOM     10  N   UNL     1       8.562   0.217  23.570  0.00  0.00    -0.301 N 
ATOM     11  H   UNL     1       7.590   0.279  23.866  0.00  0.00    +0.150 HD
ATOM     12  C   UNL     1       8.966   0.877  22.432  0.00  0.00    +0.228 C 
ATOM     13  O   UNL     1      10.131   0.879  22.050  0.00  0.00    -0.275 OA
BRANCH  12  14
ATOM     14  C   UNL     1       7.867   1.637  21.725  0.00  0.00    +0.214 C 
BRANCH  14  15
ATOM     15  C   UNL     1       6.737   1.845  22.720  0.00  0.00    +0.072 C 
ATOM     16  N   UNL     1       5.801   2.017  23.546  0.00  0.00    -0.196 NA
ENDBRANCH  14  15
ENDBRANCH  12  14
ENDBRANCH   2  10
BRANCH   6  17
ATOM     17  C   UNL     1       8.886  -4.979  24.635  0.00  0.00    +0.351 C 
ATOM     18  OXT UNL     1       8.369  -5.412  23.613  0.00  0.00    -0.244 OA
BRANCH  17  19
ATOM     19  O   UNL     1       9.863  -5.686  25.232  0.00  0.00    -0.476 OA
ATOM     20  H   UNL     1      10.178  -5.376  26.108  0.00  0.00    +0.295 HD
ENDBRANCH  17  19
ENDBRANCH   6  17
BRANCH   7  21
ATOM     21  C   UNL     1       6.688  -4.960  26.652  0.00  0.00    +0.266 C 
BRANCH  21  22
ATOM     22  O   UNL     1       7.238  -5.496  27.874  0.00  0.00    -0.460 OA
BRANCH  22  23
ATOM     23  C   UNL     1       6.345  -6.097  28.706  0.00  0.00    +0.304 C 
ATOM     24  O   UNL     1       6.395  -7.259  29.074  0.00  0.00    -0.251 OA
ATOM     25  C   UNL     1       5.294  -5.124  29.147  0.00  0.00    +0.136 C 
ENDBRANCH  22  23
ENDBRANCH  21  22
ENDBRANCH   7  21
TORSDOF 8
ENDMDL
MODEL 2
REMARK VINA RESULT:      -6.0      2.850      6.884
REMARK  Name = 
REMARK  9 active torsions:
REMARK  status: ('A' for Active; 'I' for Inactive)
REMARK    1  A    between atoms: C_5  and  C_6
REMARK    2  A    between atoms: C_6  and  O_7
REMARK    3  A    between atoms: O_7  and  C_8
REMARK    4  A    between atoms: C_8  and  C_9
REMARK    5  A    between atoms: CA_11  and  C_23
REMARK    6  A    between atoms: CA_15  and  N_17
REMARK    7  A    between atoms: C_18  and  C_20
REMARK    8  A    between atoms: C_20  and  C_21
REMARK    9  A    between atoms: C_23  and  O_24
REMARK                            x       y       z     vdW  Elec       q    Type
REMARK                         _______ _______ _______ _____ _____    ______ ____
ROOT
ATOM      1  C   UNL     1       6.357  -1.655  24.223  0.00  0.00    +0.169 C 
ATOM      2  CA  UNL     1       5.820  -3.071  23.829  0.00  0.00    +0.191 C 
ATOM      3  C   UNL     1       7.041  -3.068  22.844  0.00  0.00    +0.244 C 
ATOM      4  O   UNL     1       7.518  -3.757  21.975  0.00  0.00    -0.273 OA
ATOM      5  N   UNL     1       7.533  -1.954  23.427  0.00  0.00    -0.249 N 
ATOM      6  CA  UNL     1       8.702  -1.242  23.448  0.00  0.00    +0.125 C 
ATOM      7  C   UNL     1       8.921  -0.346  24.455  0.00  0.00    +0.006 C 
ATOM      8  C   UNL     1       7.974  -0.121  25.621  0.00  0.00    +0.107 C 
ATOM      9  S   UNL     1       6.851  -1.490  25.959  0.00  0.00    -0.131 S 
ENDROOT
BRANCH   2  10
ATOM     10  N   UNL     1       5.878  -4.096  24.916  0.00  0.00    -0.301 N 
ATOM     11  H   UNL     1       6.411  -3.866  25.753  0.00  0.00    +0.150 HD
ATOM     12  C   UNL     1       5.188  -5.284  24.859  0.00  0.00    +0.228 C 
ATOM     13  O   UNL     1       4.491  -5.596  23.899  0.00  0.00    -0.275 OA
BRANCH  12  14
ATOM     14  C   UNL     1       5.321  -6.146  26.094  0.00  0.00    +0.214 C 
BRANCH  14  15
ATOM     15  C   UNL     1       6.506  -5.627  26.892  0.00  0.00    +0.072 C 
ATOM     16  N   UNL     1       7.488  -5.196  27.554  0.00  0.00    -0.196 NA
ENDBRANCH  14  15
ENDBRANCH  12  14
ENDBRANCH   2  10
BRANCH   6  17
ATOM     17  C   UNL     1       9.788  -1.507  22.417  0.00  0.00    +0.351 C 
ATOM     18  OXT UNL     1      10.754  -2.227  22.628  0.00  0.00    -0.244 OA
BRANCH  17  19
ATOM     19  O   UNL     1       9.681  -0.874  21.234  0.00  0.00    -0.476 OA
ATOM     20  H   UNL     1       9.085  -1.267  20.560  0.00  0.00    +0.295 HD
ENDBRANCH  17  19
ENDBRANCH   6  17
BRANCH   7  21
ATOM     21  C   UNL     1      10.182   0.507  24.583  0.00  0.00    +0.266 C 
BRANCH  21  22
ATOM     22  O   UNL     1       9.924   1.903  24.326  0.00  0.00    -0.460 OA
BRANCH  22  23
ATOM     23  C   UNL     1      10.415   2.385  23.152  0.00  0.00    +0.304 C 
ATOM     24  O   UNL     1      10.178   1.924  22.047  0.00  0.00    -0.251 OA
ATOM     25  C   UNL     1      11.267   3.593  23.389  0.00  0.00    +0.136 C 
ENDBRANCH  22  23
ENDBRANCH  21  22
ENDBRANCH   7  21
TORSDOF 8
ENDMDL
MODEL 3
REMARK VINA RESULT:      -5.9      3.261      4.133
REMARK  Name = 
REMARK  9 active torsions:
REMARK  status: ('A' for Active; 'I' for Inactive)
REMARK    1  A    between atoms: C_5  and  C_6
REMARK    2  A    between atoms: C_6  and  O_7
REMARK    3  A    between atoms: O_7  and  C_8
REMARK    4  A    between atoms: C_8  and  C_9
REMARK    5  A    between atoms: CA_11  and  C_23
REMARK    6  A    between atoms: CA_15  and  N_17
REMARK    7  A    between atoms: C_18  and  C_20
REMARK    8  A    between atoms: C_20  and  C_21
REMARK    9  A    between atoms: C_23  and  O_24
REMARK                            x       y       z     vdW  Elec       q    Type
REMARK                         _______ _______ _______ _____ _____    ______ ____
ROOT
ATOM      1  C   UNL     1       8.283  -4.848  24.994  0.00  0.00    +0.169 C 
ATOM      2  CA  UNL     1       9.018  -3.698  24.228  0.00  0.00    +0.191 C 
ATOM      3  C   UNL     1       7.883  -3.915  23.168  0.00  0.00    +0.244 C 
ATOM      4  O   UNL     1       7.559  -3.513  22.076  0.00  0.00    -0.273 OA
ATOM      5  N   UNL     1       7.215  -4.723  24.020  0.00  0.00    -0.249 N 
ATOM      6  CA  UNL     1       5.970  -5.278  24.139  0.00  0.00    +0.125 C 
ATOM      7  C   UNL     1       5.568  -5.765  25.351  0.00  0.00    +0.006 C 
ATOM      8  C   UNL     1       6.392  -5.676  26.624  0.00  0.00    +0.107 C 
ATOM      9  S   UNL     1       7.646  -4.381  26.625  0.00  0.00    -0.131 S 
ENDROOT
BRANCH   2  10
ATOM     10  N   UNL     1       9.006  -2.370  24.915  0.00  0.00    -0.301 N 
ATOM     11  H   UNL     1       8.558  -2.315  25.828  0.00  0.00    +0.150 HD
ATOM     12  C   UNL     1       9.631  -1.258  24.401  0.00  0.00    +0.228 C 
ATOM     13  O   UNL     1      10.227  -1.274  23.329  0.00  0.00    -0.275 OA
BRANCH  12  14
ATOM     14  C   UNL     1       9.564  -0.035  25.287  0.00  0.00    +0.214 C 
BRANCH  14  15
ATOM     15  C   UNL     1       8.479  -0.277  26.324  0.00  0.00    +0.072 C 
ATOM     16  N   UNL     1       7.579  -0.478  27.182  0.00  0.00    -0.196 NA
ENDBRANCH  14  15
ENDBRANCH  12  14
ENDBRANCH   2  10
BRANCH   6  17
ATOM     17  C   UNL     1       5.004  -5.272  22.965  0.00  0.00    +0.351 C 
ATOM     18  OXT UNL     1       4.234  -4.350  22.732  0.00  0.00    -0.244 OA
BRANCH  17  19
ATOM     19  O   UNL     1       4.984  -6.364  22.178  0.00  0.00    -0.476 OA
ATOM     20  H   UNL     1       5.055  -6.227  21.209  0.00  0.00    +0.295 HD
ENDBRANCH  17  19
ENDBRANCH   6  17
BRANCH   7  21
ATOM     21  C   UNL     1       4.206  -6.409  25.606  0.00  0.00    +0.266 C 
BRANCH  21  22
ATOM     22  O   UNL     1       4.022  -7.618  24.841  0.00  0.00    -0.460 OA
BRANCH  22  23
ATOM     23  C   UNL     1       2.731  -8.001  24.651  0.00  0.00    +0.304 C 
ATOM     24  O   UNL     1       2.300  -9.132  24.812  0.00  0.00    -0.251 OA
ATOM     25  C   UNL     1       1.885  -6.833  24.246  0.00  0.00    +0.136 C 
ENDBRANCH  22  23
ENDBRANCH  21  22
ENDBRANCH   7  21
TORSDOF 8
ENDMDL
MODEL 4
REMARK VINA RESULT:      -5.8      2.481      7.332
REMARK  Name = 
REMARK  9 active torsions:
REMARK  status: ('A' for Active; 'I' for Inactive)
REMARK    1  A    between atoms: C_5  and  C_6
REMARK    2  A    between atoms: C_6  and  O_7
REMARK    3  A    between atoms: O_7  and  C_8
REMARK    4  A    between atoms: C_8  and  C_9
REMARK    5  A    between atoms: CA_11  and  C_23
REMARK    6  A    between atoms: CA_15  and  N_17
REMARK    7  A    between atoms: C_18  and  C_20
REMARK    8  A    between atoms: C_20  and  C_21
REMARK    9  A    between atoms: C_23  and  O_24
REMARK                            x       y       z     vdW  Elec       q    Type
REMARK                         _______ _______ _______ _____ _____    ______ ____
ROOT
ATOM      1  C   UNL     1       7.395  -1.557  23.131  0.00  0.00    +0.169 C 
ATOM      2  CA  UNL     1       8.371  -2.770  22.973  0.00  0.00    +0.191 C 
ATOM      3  C   UNL     1       9.393  -1.666  22.528  0.00  0.00    +0.244 C 
ATOM      4  O   UNL     1      10.522  -1.579  22.108  0.00  0.00    -0.273 OA
ATOM      5  N   UNL     1       8.543  -0.694  22.921  0.00  0.00    -0.249 N 
ATOM      6  CA  UNL     1       8.572   0.653  23.164  0.00  0.00    +0.125 C 
ATOM      7  C   UNL     1       7.571   1.222  23.899  0.00  0.00    +0.006 C 
ATOM      8  C   UNL     1       6.435   0.446  24.541  0.00  0.00    +0.107 C 
ATOM      9  S   UNL     1       6.772  -1.304  24.814  0.00  0.00    -0.131 S 
ENDROOT
BRANCH   2  10
ATOM     10  N   UNL     1       8.711  -3.481  24.244  0.00  0.00    -0.301 N 
ATOM     11  H   UNL     1       8.976  -2.912  25.046  0.00  0.00    +0.150 HD
ATOM     12  C   UNL     1       8.607  -4.845  24.387  0.00  0.00    +0.228 C 
ATOM     13  O   UNL     1       8.247  -5.578  23.472  0.00  0.00    -0.275 OA
BRANCH  12  14
ATOM     14  C   UNL     1       8.925  -5.355  25.774  0.00  0.00    +0.214 C 
BRANCH  14  15
ATOM     15  C   UNL     1       7.818  -4.884  26.702  0.00  0.00    +0.072 C 
ATOM     16  N   UNL     1       6.899  -4.495  27.473  0.00  0.00    -0.196 NA
ENDBRANCH  14  15
ENDBRANCH  12  14
ENDBRANCH   2  10
BRANCH   6  17
ATOM     17  C   UNL     1       9.749   1.498  22.702  0.00  0.00    +0.351 C 
ATOM     18  OXT UNL     1      10.730   1.723  23.399  0.00  0.00    -0.244 OA
BRANCH  17  19
ATOM     19  O   UNL     1       9.670   2.048  21.476  0.00  0.00    -0.476 OA
ATOM     20  H   UNL     1      10.421   1.899  20.862  0.00  0.00    +0.295 HD
ENDBRANCH  17  19
ENDBRANCH   6  17
BRANCH   7  21
ATOM     21  C   UNL     1       7.493   2.711  24.231  0.00  0.00    +0.266 C 
BRANCH  21  22
ATOM     22  O   UNL     1       7.245   3.519  23.061  0.00  0.00    -0.460 OA
BRANCH  22  23
ATOM     23  C   UNL     1       7.924   4.697  23.006  0.00  0.00    +0.304 C 
ATOM     24  O   UNL     1       8.979   4.929  23.573  0.00  0.00    -0.251 OA
ATOM     25  C   UNL     1       7.217   5.675  22.120  0.00  0.00    +0.136 C 
ENDBRANCH  22  23
ENDBRANCH  21  22
ENDBRANCH   7  21
TORSDOF 8
ENDMDL
MODEL 5
REMARK VINA RESULT:      -5.8      2.533      3.072
REMARK  Name = 
REMARK  9 active torsions:
REMARK  status: ('A' for Active; 'I' for Inactive)
REMARK    1  A    between atoms: C_5  and  C_6
REMARK    2  A    between atoms: C_6  and  O_7
REMARK    3  A    between atoms: O_7  and  C_8
REMARK    4  A    between atoms: C_8  and  C_9
REMARK    5  A    between atoms: CA_11  and  C_23
REMARK    6  A    between atoms: CA_15  and  N_17
REMARK    7  A    between atoms: C_18  and  C_20
REMARK    8  A    between atoms: C_20  and  C_21
REMARK    9  A    between atoms: C_23  and  O_24
REMARK                            x       y       z     vdW  Elec       q    Type
REMARK                         _______ _______ _______ _____ _____    ______ ____
ROOT
ATOM      1  C   UNL     1       8.925  -4.254  24.657  0.00  0.00    +0.169 C 
ATOM      2  CA  UNL     1       9.310  -3.018  23.777  0.00  0.00    +0.191 C 
ATOM      3  C   UNL     1       7.990  -3.375  23.008  0.00  0.00    +0.244 C 
ATOM      4  O   UNL     1       7.369  -3.014  22.037  0.00  0.00    -0.273 OA
ATOM      5  N   UNL     1       7.649  -4.264  23.966  0.00  0.00    -0.249 N 
ATOM      6  CA  UNL     1       6.545  -4.972  24.357  0.00  0.00    +0.125 C 
ATOM      7  C   UNL     1       6.507  -5.510  25.613  0.00  0.00    +0.006 C 
ATOM      8  C   UNL     1       7.592  -5.321  26.658  0.00  0.00    +0.107 C 
ATOM      9  S   UNL     1       8.642  -3.877  26.406  0.00  0.00    -0.131 S 
ENDROOT
BRANCH   2  10
ATOM     10  N   UNL     1       9.298  -1.704  24.491  0.00  0.00    -0.301 N 
ATOM     11  H   UNL     1       8.904  -1.681  25.430  0.00  0.00    +0.150 HD
ATOM     12  C   UNL     1       9.858  -0.564  23.964  0.00  0.00    +0.228 C 
ATOM     13  O   UNL     1      10.389  -0.541  22.859  0.00  0.00    -0.275 OA
BRANCH  12  14
ATOM     14  C   UNL     1       9.807   0.639  24.878  0.00  0.00    +0.214 C 
BRANCH  14  15
ATOM     15  C   UNL     1      10.340   1.831  24.100  0.00  0.00    +0.072 C 
ATOM     16  N   UNL     1      10.782   2.819  23.454  0.00  0.00    -0.196 NA
ENDBRANCH  14  15
ENDBRANCH  12  14
ENDBRANCH   2  10
BRANCH   6  17
ATOM     17  C   UNL     1       5.335  -5.086  23.445  0.00  0.00    +0.351 C 
ATOM     18  OXT UNL     1       4.437  -4.254  23.411  0.00  0.00    -0.244 OA
BRANCH  17  19
ATOM     19  O   UNL     1       5.246  -6.184  22.672  0.00  0.00    -0.476 OA
ATOM     20  H   UNL     1       5.480  -6.093  21.724  0.00  0.00    +0.295 HD
ENDBRANCH  17  19
ENDBRANCH   6  17
BRANCH   7  21
ATOM     21  C   UNL     1       5.334  -6.322  26.160  0.00  0.00    +0.266 C 
BRANCH  21  22
ATOM     22  O   UNL     1       4.943  -5.893  27.481  0.00  0.00    -0.460 OA
BRANCH  22  23
ATOM     23  C   UNL     1       4.886  -6.872  28.423  0.00  0.00    +0.304 C 
ATOM     24  O   UNL     1       5.813  -7.598  28.744  0.00  0.00    -0.251 OA
ATOM     25  C   UNL     1       3.527  -6.924  29.053  0.00  0.00    +0.136 C 
ENDBRANCH  22  23
ENDBRANCH  21  22
ENDBRANCH   7  21
TORSDOF 8
ENDMDL
MODEL 6
REMARK VINA RESULT:      -5.8      3.042      6.801
REMARK  Name = 
REMARK  9 active torsions:
REMARK  status: ('A' for Active; 'I' for Inactive)
REMARK    1  A    between atoms: C_5  and  C_6
REMARK    2  A    between atoms: C_6  and  O_7
REMARK    3  A    between atoms: O_7  and  C_8
REMARK    4  A    between atoms: C_8  and  C_9
REMARK    5  A    between atoms: CA_11  and  C_23
REMARK    6  A    between atoms: CA_15  and  N_17
REMARK    7  A    between atoms: C_18  and  C_20
REMARK    8  A    between atoms: C_20  and  C_21
REMARK    9  A    between atoms: C_23  and  O_24
REMARK                            x       y       z     vdW  Elec       q    Type
REMARK                         _______ _______ _______ _____ _____    ______ ____
ROOT
ATOM      1  C   UNL     1       9.471  -2.960  24.053  0.00  0.00    +0.169 C 
ATOM      2  CA  UNL     1       8.594  -4.217  24.366  0.00  0.00    +0.191 C 
ATOM      3  C   UNL     1       8.230  -3.423  25.668  0.00  0.00    +0.244 C 
ATOM      4  O   UNL     1       7.599  -3.573  26.687  0.00  0.00    -0.273 OA
ATOM      5  N   UNL     1       8.829  -2.315  25.183  0.00  0.00    -0.249 N 
ATOM      6  CA  UNL     1       8.885  -0.976  25.464  0.00  0.00    +0.125 C 
ATOM      7  C   UNL     1       9.337  -0.111  24.508  0.00  0.00    +0.006 C 
ATOM      8  C   UNL     1       9.729  -0.522  23.099  0.00  0.00    +0.107 C 
ATOM      9  S   UNL     1       9.013  -2.077  22.538  0.00  0.00    -0.131 S 
ENDROOT
BRANCH   2  10
ATOM     10  N   UNL     1       7.459  -4.450  23.420  0.00  0.00    -0.301 N 
ATOM     11  H   UNL     1       6.726  -3.744  23.381  0.00  0.00    +0.150 HD
ATOM     12  C   UNL     1       7.409  -5.525  22.564  0.00  0.00    +0.228 C 
ATOM     13  O   UNL     1       8.285  -6.382  22.532  0.00  0.00    -0.275 OA
BRANCH  12  14
ATOM     14  C   UNL     1       6.214  -5.534  21.638  0.00  0.00    +0.214 C 
BRANCH  14  15
ATOM     15  C   UNL     1       5.021  -5.011  22.421  0.00  0.00    +0.072 C 
ATOM     16  N   UNL     1       4.032  -4.579  23.072  0.00  0.00    -0.196 NA
ENDBRANCH  14  15
ENDBRANCH  12  14
ENDBRANCH   2  10
BRANCH   6  17
ATOM     17  C   UNL     1       8.365  -0.440  26.788  0.00  0.00    +0.351 C 
ATOM     18  OXT UNL     1       7.217  -0.049  26.952  0.00  0.00    -0.244 OA
BRANCH  17  19
ATOM     19  O   UNL     1       9.240  -0.365  27.809  0.00  0.00    -0.476 OA
ATOM     20  H   UNL     1      10.137  -0.735  27.666  0.00  0.00    +0.295 HD
ENDBRANCH  17  19
ENDBRANCH   6  17
BRANCH   7  21
ATOM     21  C   UNL     1       9.448   1.400  24.705  0.00  0.00    +0.266 C 
BRANCH  21  22
ATOM     22  O   UNL     1      10.681   1.930  24.176  0.00  0.00    -0.460 OA
BRANCH  22  23
ATOM     23  C   UNL     1      10.591   3.159  23.599  0.00  0.00    +0.304 C 
ATOM     24  O   UNL     1      11.537   3.832  23.222  0.00  0.00    -0.251 OA
ATOM     25  C   UNL     1       9.159   3.572  23.451  0.00  0.00    +0.136 C 
ENDBRANCH  22  23
ENDBRANCH  21  22
ENDBRANCH   7  21
TORSDOF 8
ENDMDL
MODEL 7
REMARK VINA RESULT:      -5.7      2.756      7.066
REMARK  Name = 
REMARK  9 active torsions:
REMARK  status: ('A' for Active; 'I' for Inactive)
REMARK    1  A    between atoms: C_5  and  C_6
REMARK    2  A    between atoms: C_6  and  O_7
REMARK    3  A    between atoms: O_7  and  C_8
REMARK    4  A    between atoms: C_8  and  C_9
REMARK    5  A    between atoms: CA_11  and  C_23
REMARK    6  A    between atoms: CA_15  and  N_17
REMARK    7  A    between atoms: C_18  and  C_20
REMARK    8  A    between atoms: C_20  and  C_21
REMARK    9  A    between atoms: C_23  and  O_24
REMARK                            x       y       z     vdW  Elec       q    Type
REMARK                         _______ _______ _______ _____ _____    ______ ____
ROOT
ATOM      1  C   UNL     1       5.573  -3.379  23.535  0.00  0.00    +0.169 C 
ATOM      2  CA  UNL     1       5.653  -4.930  23.734  0.00  0.00    +0.191 C 
ATOM      3  C   UNL     1       7.150  -4.731  23.310  0.00  0.00    +0.244 C 
ATOM      4  O   UNL     1       8.134  -5.393  23.085  0.00  0.00    -0.273 OA
ATOM      5  N   UNL     1       7.017  -3.390  23.399  0.00  0.00    -0.249 N 
ATOM      6  CA  UNL     1       7.821  -2.283  23.435  0.00  0.00    +0.125 C 
ATOM      7  C   UNL     1       7.311  -1.100  23.891  0.00  0.00    +0.006 C 
ATOM      8  C   UNL     1       5.904  -0.930  24.437  0.00  0.00    +0.107 C 
ATOM      9  S   UNL     1       5.132  -2.449  25.026  0.00  0.00    -0.131 S 
ENDROOT
BRANCH   2  10
ATOM     10  N   UNL     1       5.443  -5.400  25.137  0.00  0.00    -0.301 N 
ATOM     11  H   UNL     1       5.708  -4.769  25.891  0.00  0.00    +0.150 HD
ATOM     12  C   UNL     1       4.845  -6.602  25.440  0.00  0.00    +0.228 C 
ATOM     13  O   UNL     1       4.462  -7.383  24.576  0.00  0.00    -0.275 OA
BRANCH  12  14
ATOM     14  C   UNL     1       4.659  -6.854  26.919  0.00  0.00    +0.214 C 
BRANCH  14  15
ATOM     15  C   UNL     1       5.711  -6.046  27.660  0.00  0.00    +0.072 C 
ATOM     16  N   UNL     1       6.584  -5.376  28.275  0.00  0.00    -0.196 NA
ENDBRANCH  14  15
ENDBRANCH  12  14
ENDBRANCH   2  10
BRANCH   6  17
ATOM     17  C   UNL     1       9.292  -2.381  23.062  0.00  0.00    +0.351 C 
ATOM     18  OXT UNL     1       9.753  -1.932  22.022  0.00  0.00    -0.244 OA
BRANCH  17  19
ATOM     19  O   UNL     1      10.102  -3.034  23.916  0.00  0.00    -0.476 OA
ATOM     20  H   UNL     1       9.703  -3.733  24.478  0.00  0.00    +0.295 HD
ENDBRANCH  17  19
ENDBRANCH   6  17
BRANCH   7  21
ATOM     21  C   UNL     1       8.108   0.200  23.974  0.00  0.00    +0.266 C 
BRANCH  21  22
ATOM     22  O   UNL     1       7.987   0.993  22.775  0.00  0.00    -0.460 OA
BRANCH  22  23
ATOM     23  C   UNL     1       8.797   2.083  22.707  0.00  0.00    +0.304 C 
ATOM     24  O   UNL     1       8.540   3.184  23.167  0.00  0.00    -0.251 OA
ATOM     25  C   UNL     1      10.083   1.746  22.015  0.00  0.00    +0.136 C 
ENDBRANCH  22  23
ENDBRANCH  21  22
ENDBRANCH   7  21
TORSDOF 8
ENDMDL
MODEL 8
REMARK VINA RESULT:      -5.7      2.390      3.468
REMARK  Name = 
REMARK  9 active torsions:
REMARK  status: ('A' for Active; 'I' for Inactive)
REMARK    1  A    between atoms: C_5  and  C_6
REMARK    2  A    between atoms: C_6  and  O_7
REMARK    3  A    between atoms: O_7  and  C_8
REMARK    4  A    between atoms: C_8  and  C_9
REMARK    5  A    between atoms: CA_11  and  C_23
REMARK    6  A    between atoms: CA_15  and  N_17
REMARK    7  A    between atoms: C_18  and  C_20
REMARK    8  A    between atoms: C_20  and  C_21
REMARK    9  A    between atoms: C_23  and  O_24
REMARK                            x       y       z     vdW  Elec       q    Type
REMARK                         _______ _______ _______ _____ _____    ______ ____
ROOT
ATOM      1  C   UNL     1       7.964   0.608  25.083  0.00  0.00    +0.169 C 
ATOM      2  CA  UNL     1       8.590   1.973  24.643  0.00  0.00    +0.191 C 
ATOM      3  C   UNL     1       9.607   1.059  23.874  0.00  0.00    +0.244 C 
ATOM      4  O   UNL     1      10.608   1.163  23.206  0.00  0.00    -0.273 OA
ATOM      5  N   UNL     1       8.850  -0.030  24.126  0.00  0.00    -0.249 N 
ATOM      6  CA  UNL     1       8.747  -1.325  23.697  0.00  0.00    +0.125 C 
ATOM      7  C   UNL     1       7.601  -2.025  23.952  0.00  0.00    +0.006 C 
ATOM      8  C   UNL     1       6.376  -1.439  24.632  0.00  0.00    +0.107 C 
ATOM      9  S   UNL     1       6.250   0.357  24.552  0.00  0.00    -0.131 S 
ENDROOT
BRANCH   2  10
ATOM     10  N   UNL     1       7.714   2.822  23.779  0.00  0.00    -0.301 N 
ATOM     11  H   UNL     1       6.776   2.481  23.579  0.00  0.00    +0.150 HD
ATOM     12  C   UNL     1       8.097   4.059  23.315  0.00  0.00    +0.228 C 
ATOM     13  O   UNL     1       9.196   4.544  23.562  0.00  0.00    -0.275 OA
BRANCH  12  14
ATOM     14  C   UNL     1       7.036   4.787  22.521  0.00  0.00    +0.214 C 
BRANCH  14  15
ATOM     15  C   UNL     1       5.780   3.932  22.539  0.00  0.00    +0.072 C 
ATOM     16  N   UNL     1       4.738   3.223  22.555  0.00  0.00    -0.196 NA
ENDBRANCH  14  15
ENDBRANCH  12  14
ENDBRANCH   2  10
BRANCH   6  17
ATOM     17  C   UNL     1       9.852  -1.956  22.866  0.00  0.00    +0.351 C 
ATOM     18  OXT UNL     1      10.670  -2.744  23.322  0.00  0.00    -0.244 OA
BRANCH  17  19
ATOM     19  O   UNL     1       9.942  -1.585  21.575  0.00  0.00    -0.476 OA
ATOM     20  H   UNL     1       9.811  -2.278  20.893  0.00  0.00    +0.295 HD
ENDBRANCH  17  19
ENDBRANCH   6  17
BRANCH   7  21
ATOM     21  C   UNL     1       7.371  -3.474  23.527  0.00  0.00    +0.266 C 
BRANCH  21  22
ATOM     22  O   UNL     1       7.311  -4.370  24.656  0.00  0.00    -0.460 OA
BRANCH  22  23
ATOM     23  C   UNL     1       8.503  -4.893  25.053  0.00  0.00    +0.304 C 
ATOM     24  O   UNL     1       9.239  -5.578  24.361  0.00  0.00    -0.251 OA
ATOM     25  C   UNL     1       8.818  -4.485  26.460  0.00  0.00    +0.136 C 
ENDBRANCH  22  23
ENDBRANCH  21  22
ENDBRANCH   7  21
TORSDOF 8
ENDMDL
MODEL 9
REMARK VINA RESULT:      -5.7      3.406      5.141
REMARK  Name = 
REMARK  9 active torsions:
REMARK  status: ('A' for Active; 'I' for Inactive)
REMARK    1  A    between atoms: C_5  and  C_6
REMARK    2  A    between atoms: C_6  and  O_7
REMARK    3  A    between atoms: O_7  and  C_8
REMARK    4  A    between atoms: C_8  and  C_9
REMARK    5  A    between atoms: CA_11  and  C_23
REMARK    6  A    between atoms: CA_15  and  N_17
REMARK    7  A    between atoms: C_18  and  C_20
REMARK    8  A    between atoms: C_20  and  C_21
REMARK    9  A    between atoms: C_23  and  O_24
REMARK                            x       y       z     vdW  Elec       q    Type
REMARK                         _______ _______ _______ _____ _____    ______ ____
ROOT
ATOM      1  C   UNL     1       8.179   1.679  22.800  0.00  0.00    +0.169 C 
ATOM      2  CA  UNL     1       7.921   3.075  23.458  0.00  0.00    +0.191 C 
ATOM      3  C   UNL     1       7.775   2.233  24.774  0.00  0.00    +0.244 C 
ATOM      4  O   UNL     1       7.495   2.393  25.937  0.00  0.00    -0.273 OA
ATOM      5  N   UNL     1       8.236   1.132  24.143  0.00  0.00    -0.249 N 
ATOM      6  CA  UNL     1       8.702  -0.113  24.469  0.00  0.00    +0.125 C 
ATOM      7  C   UNL     1       9.415  -0.823  23.545  0.00  0.00    +0.006 C 
ATOM      8  C   UNL     1       9.798  -0.297  22.172  0.00  0.00    +0.107 C 
ATOM      9  S   UNL     1       9.808   1.499  22.025  0.00  0.00    -0.131 S 
ENDROOT
BRANCH   2  10
ATOM     10  N   UNL     1       9.083   4.015  23.427  0.00  0.00    -0.301 N 
ATOM     11  H   UNL     1       9.936   3.696  22.972  0.00  0.00    +0.150 HD
ATOM     12  C   UNL     1       9.018   5.299  23.916  0.00  0.00    +0.228 C 
ATOM     13  O   UNL     1       8.004   5.757  24.432  0.00  0.00    -0.275 OA
BRANCH  12  14
ATOM     14  C   UNL     1      10.279   6.110  23.719  0.00  0.00    +0.214 C 
BRANCH  14  15
ATOM     15  C   UNL     1      11.425   5.134  23.509  0.00  0.00    +0.072 C 
ATOM     16  N   UNL     1      12.375   4.324  23.336  0.00  0.00    -0.196 NA
ENDBRANCH  14  15
ENDBRANCH  12  14
ENDBRANCH   2  10
BRANCH   6  17
ATOM     17  C   UNL     1       8.513  -0.669  25.871  0.00  0.00    +0.351 C 
ATOM     18  OXT UNL     1       7.626  -1.459  26.167  0.00  0.00    -0.244 OA
BRANCH  17  19
ATOM     19  O   UNL     1       9.349  -0.225  26.829  0.00  0.00    -0.476 OA
ATOM     20  H   UNL     1       9.235  -0.586  27.734  0.00  0.00    +0.295 HD
ENDBRANCH  17  19
ENDBRANCH   6  17
BRANCH   7  21
ATOM     21  C   UNL     1       9.982  -2.221  23.790  0.00  0.00    +0.266 C 
BRANCH  21  22
ATOM     22  O   UNL     1       8.978  -3.248  23.654  0.00  0.00    -0.460 OA
BRANCH  22  23
ATOM     23  C   UNL     1       9.087  -4.293  24.518  0.00  0.00    +0.304 C 
ATOM     24  O   UNL     1      10.137  -4.774  24.915  0.00  0.00    -0.251 OA
ATOM     25  C   UNL     1       7.734  -4.762  24.956  0.00  0.00    +0.136 C 
ENDBRANCH  22  23
ENDBRANCH  21  22
ENDBRANCH   7  21
TORSDOF 8
ENDMDL
