MODEL 1
REMARK VINA RESULT:      -8.3      0.000      0.000
REMARK  Name = 
REMARK  4 active torsions:
REMARK  status: ('A' for Active; 'I' for Inactive)
REMARK    1  A    between atoms: N_1  and  C_7
REMARK    2  A    between atoms: C_10  and  N_11
REMARK    3  A    between atoms: N_11  and  C_12
REMARK    4  A    between atoms: C_15  and  N_16
REMARK                            x       y       z     vdW  Elec       q    Type
REMARK                         _______ _______ _______ _____ _____    ______ ____
ROOT
ATOM      1  N   UNL     1      10.081  -2.044  23.028  0.00  0.00    -0.314 N 
ATOM      2  H   UNL     1      10.383  -2.381  22.118  0.00  0.00    +0.152 HD
ENDROOT
BRANCH   1   6
ATOM      3  C   UNL     1      10.004   2.209  23.120  0.00  0.00    +0.034 A 
ATOM      4  C   UNL     1      10.392   1.479  24.255  0.00  0.00    +0.025 A 
ATOM      5  C   UNL     1      10.478   0.077  24.234  0.00  0.00    +0.025 A 
ATOM      6  C   UNL     1      10.135  -0.637  23.085  0.00  0.00    +0.031 A 
ATOM      7  C   UNL     1       9.773   0.082  21.947  0.00  0.00    +0.025 A 
ATOM      8  C   UNL     1       9.735   1.483  21.957  0.00  0.00    +0.025 A 
BRANCH   3   9
ATOM      9  N   UNL     1       9.831   3.605  23.249  0.00  0.00    -0.285 N 
ATOM     10  H   UNL     1       8.873   3.862  23.471  0.00  0.00    +0.155 HD
ATOM     11  C   UNL     1      10.721   4.576  23.534  0.00  0.00    +0.197 A 
ATOM     12  N   UNL     1      12.031   4.553  23.128  0.00  0.00    -0.333 N 
ATOM     13  H   UNL     1      12.443   3.848  22.539  0.00  0.00    +0.168 HD
ATOM     14  C   UNL     1      12.663   5.643  23.659  0.00  0.00    +0.105 A 
ATOM     15  C   UNL     1      11.662   6.359  24.267  0.00  0.00    +0.132 A 
ATOM     16  N   UNL     1      10.462   5.704  24.156  0.00  0.00    -0.223 NA
ENDBRANCH   3   9
ENDBRANCH   1   6
BRANCH   1  17
ATOM     17  C   UNL     1       9.181  -2.913  23.668  0.00  0.00    +0.031 A 
ATOM     18  C   UNL     1       7.806  -2.829  23.441  0.00  0.00    +0.025 A 
ATOM     19  C   UNL     1       6.919  -3.693  24.090  0.00  0.00    +0.025 A 
ATOM     20  C   UNL     1       7.377  -4.687  24.969  0.00  0.00    +0.034 A 
ATOM     21  C   UNL     1       8.751  -4.740  25.221  0.00  0.00    +0.025 A 
ATOM     22  C   UNL     1       9.642  -3.862  24.585  0.00  0.00    +0.025 A 
BRANCH  20  23
ATOM     23  N   UNL     1       6.432  -5.582  25.514  0.00  0.00    -0.285 N 
ATOM     24  H   UNL     1       5.999  -6.161  24.807  0.00  0.00    +0.155 HD
ATOM     25  C   UNL     1       6.163  -5.811  26.818  0.00  0.00    +0.197 A 
ATOM     26  N   UNL     1       5.309  -6.836  27.144  0.00  0.00    -0.333 N 
ATOM     27  H   UNL     1       4.862  -7.452  26.484  0.00  0.00    +0.168 HD
ATOM     28  C   UNL     1       5.186  -6.879  28.504  0.00  0.00    +0.105 A 
ATOM     29  C   UNL     1       6.001  -5.875  28.960  0.00  0.00    +0.132 A 
ATOM     30  N   UNL     1       6.598  -5.226  27.913  0.00  0.00    -0.223 NA
ENDBRANCH  20  23
ENDBRANCH   1  17
TORSDOF 4
ENDMDL
MODEL 2
REMARK VINA RESULT:      -8.0      1.228      1.883
REMARK  Name = 
REMARK  4 active torsions:
REMARK  status: ('A' for Active; 'I' for Inactive)
REMARK    1  A    between atoms: N_1  and  C_7
REMARK    2  A    between atoms: C_10  and  N_11
REMARK    3  A    between atoms: N_11  and  C_12
REMARK    4  A    between atoms: C_15  and  N_16
REMARK                            x       y       z     vdW  Elec       q    Type
REMARK                         _______ _______ _______ _____ _____    ______ ____
ROOT
ATOM      1  N   UNL     1      10.095  -2.244  23.314  0.00  0.00    -0.314 N 
ATOM      2  H   UNL     1      10.471  -2.630  22.452  0.00  0.00    +0.152 HD
ENDROOT
BRANCH   1   6
ATOM      3  C   UNL     1       9.991   2.006  23.147  0.00  0.00    +0.034 A 
ATOM      4  C   UNL     1      10.283   1.348  24.353  0.00  0.00    +0.025 A 
ATOM      5  C   UNL     1      10.377  -0.052  24.422  0.00  0.00    +0.025 A 
ATOM      6  C   UNL     1      10.138  -0.835  23.292  0.00  0.00    +0.031 A 
ATOM      7  C   UNL     1       9.871  -0.187  22.086  0.00  0.00    +0.025 A 
ATOM      8  C   UNL     1       9.826   1.212  22.011  0.00  0.00    +0.025 A 
BRANCH   3   9
ATOM      9  N   UNL     1       9.801   3.407  23.179  0.00  0.00    -0.285 N 
ATOM     10  H   UNL     1       8.831   3.667  23.336  0.00  0.00    +0.155 HD
ATOM     11  C   UNL     1      10.668   4.403  23.445  0.00  0.00    +0.197 A 
ATOM     12  N   UNL     1      11.997   4.368  23.107  0.00  0.00    -0.333 N 
ATOM     13  H   UNL     1      12.443   3.632  22.584  0.00  0.00    +0.168 HD
ATOM     14  C   UNL     1      12.593   5.496  23.598  0.00  0.00    +0.105 A 
ATOM     15  C   UNL     1      11.558   6.239  24.109  0.00  0.00    +0.132 A 
ATOM     16  N   UNL     1      10.370   5.565  23.981  0.00  0.00    -0.223 NA
ENDBRANCH   3   9
ENDBRANCH   1   6
BRANCH   1  17
ATOM     17  C   UNL     1       9.150  -3.082  23.929  0.00  0.00    +0.031 A 
ATOM     18  C   UNL     1       9.542  -4.122  24.772  0.00  0.00    +0.025 A 
ATOM     19  C   UNL     1       8.593  -4.956  25.372  0.00  0.00    +0.025 A 
ATOM     20  C   UNL     1       7.217  -4.761  25.169  0.00  0.00    +0.034 A 
ATOM     21  C   UNL     1       6.833  -3.742  24.293  0.00  0.00    +0.025 A 
ATOM     22  C   UNL     1       7.785  -2.916  23.676  0.00  0.00    +0.025 A 
BRANCH  20  23
ATOM     23  N   UNL     1       6.316  -5.582  25.881  0.00  0.00    -0.285 N 
ATOM     24  H   UNL     1       6.494  -5.574  26.876  0.00  0.00    +0.155 HD
ATOM     25  C   UNL     1       5.232  -6.232  25.403  0.00  0.00    +0.197 A 
ATOM     26  N   UNL     1       4.395  -6.860  26.294  0.00  0.00    -0.333 N 
ATOM     27  H   UNL     1       4.516  -6.872  27.294  0.00  0.00    +0.168 HD
ATOM     28  C   UNL     1       3.380  -7.444  25.592  0.00  0.00    +0.105 A 
ATOM     29  C   UNL     1       3.631  -7.126  24.282  0.00  0.00    +0.132 A 
ATOM     30  N   UNL     1       4.773  -6.377  24.179  0.00  0.00    -0.223 NA
ENDBRANCH  20  23
ENDBRANCH   1  17
TORSDOF 4
ENDMDL
MODEL 3
REMARK VINA RESULT:      -7.9      0.956      9.624
REMARK  Name = 
REMARK  4 active torsions:
REMARK  status: ('A' for Active; 'I' for Inactive)
REMARK    1  A    between atoms: N_1  and  C_7
REMARK    2  A    between atoms: C_10  and  N_11
REMARK    3  A    between atoms: N_11  and  C_12
REMARK    4  A    between atoms: C_15  and  N_16
REMARK                            x       y       z     vdW  Elec       q    Type
REMARK                         _______ _______ _______ _____ _____    ______ ____
ROOT
ATOM      1  N   UNL     1       9.954  -1.992  22.959  0.00  0.00    -0.314 N 
ATOM      2  H   UNL     1      10.827  -2.485  22.792  0.00  0.00    +0.152 HD
ENDROOT
BRANCH   1   6
ATOM      3  C   UNL     1       7.165  -4.521  24.940  0.00  0.00    +0.034 A 
ATOM      4  C   UNL     1       8.517  -4.518  25.318  0.00  0.00    +0.025 A 
ATOM      5  C   UNL     1       9.447  -3.654  24.717  0.00  0.00    +0.025 A 
ATOM      6  C   UNL     1       9.056  -2.797  23.688  0.00  0.00    +0.031 A 
ATOM      7  C   UNL     1       7.710  -2.777  23.323  0.00  0.00    +0.025 A 
ATOM      8  C   UNL     1       6.776  -3.607  23.958  0.00  0.00    +0.025 A 
BRANCH   3   9
ATOM      9  N   UNL     1       6.313  -5.496  25.507  0.00  0.00    -0.285 N 
ATOM     10  H   UNL     1       6.215  -6.320  24.920  0.00  0.00    +0.155 HD
ATOM     11  C   UNL     1       5.962  -5.713  26.790  0.00  0.00    +0.197 A 
ATOM     12  N   UNL     1       5.802  -4.713  27.716  0.00  0.00    -0.333 N 
ATOM     13  H   UNL     1       5.875  -3.728  27.524  0.00  0.00    +0.168 HD
ATOM     14  C   UNL     1       5.529  -5.290  28.925  0.00  0.00    +0.105 A 
ATOM     15  C   UNL     1       5.406  -6.630  28.648  0.00  0.00    +0.132 A 
ATOM     16  N   UNL     1       5.646  -6.873  27.320  0.00  0.00    -0.223 NA
ENDBRANCH   3   9
ENDBRANCH   1   6
BRANCH   1  17
ATOM     17  C   UNL     1      10.107  -0.596  22.995  0.00  0.00    +0.031 A 
ATOM     18  C   UNL     1      10.547   0.057  24.147  0.00  0.00    +0.025 A 
ATOM     19  C   UNL     1      10.687   1.448  24.174  0.00  0.00    +0.025 A 
ATOM     20  C   UNL     1      10.416   2.232  23.041  0.00  0.00    +0.034 A 
ATOM     21  C   UNL     1       9.939   1.576  21.903  0.00  0.00    +0.025 A 
ATOM     22  C   UNL     1       9.780   0.182  21.880  0.00  0.00    +0.025 A 
BRANCH  20  23
ATOM     23  N   UNL     1      10.670   3.618  23.114  0.00  0.00    -0.285 N 
ATOM     24  H   UNL     1      11.560   3.868  22.704  0.00  0.00    +0.155 HD
ATOM     25  C   UNL     1       9.835   4.593  23.538  0.00  0.00    +0.197 A 
ATOM     26  N   UNL     1      10.222   5.902  23.388  0.00  0.00    -0.333 N 
ATOM     27  H   UNL     1      11.088   6.208  22.974  0.00  0.00    +0.168 HD
ATOM     28  C   UNL     1       9.232   6.703  23.882  0.00  0.00    +0.105 A 
ATOM     29  C   UNL     1       8.255   5.836  24.300  0.00  0.00    +0.132 A 
ATOM     30  N   UNL     1       8.638   4.539  24.081  0.00  0.00    -0.223 NA
ENDBRANCH  20  23
ENDBRANCH   1  17
TORSDOF 4
ENDMDL
MODEL 4
REMARK VINA RESULT:      -7.7      1.032      1.923
REMARK  Name = 
REMARK  4 active torsions:
REMARK  status: ('A' for Active; 'I' for Inactive)
REMARK    1  A    between atoms: N_1  and  C_7
REMARK    2  A    between atoms: C_10  and  N_11
REMARK    3  A    between atoms: N_11  and  C_12
REMARK    4  A    between atoms: C_15  and  N_16
REMARK                            x       y       z     vdW  Elec       q    Type
REMARK                         _______ _______ _______ _____ _____    ______ ____
ROOT
ATOM      1  N   UNL     1      10.163  -1.851  23.052  0.00  0.00    -0.314 N 
ATOM      2  H   UNL     1      10.584  -2.167  22.184  0.00  0.00    +0.152 HD
ENDROOT
BRANCH   1   6
ATOM      3  C   UNL     1      10.348   2.390  23.341  0.00  0.00    +0.034 A 
ATOM      4  C   UNL     1      10.008   1.773  22.127  0.00  0.00    +0.025 A 
ATOM      5  C   UNL     1       9.886   0.378  22.019  0.00  0.00    +0.025 A 
ATOM      6  C   UNL     1      10.146  -0.443  23.117  0.00  0.00    +0.031 A 
ATOM      7  C   UNL     1      10.461   0.163  24.333  0.00  0.00    +0.025 A 
ATOM      8  C   UNL     1      10.534   1.558  24.448  0.00  0.00    +0.025 A 
BRANCH   3   9
ATOM      9  N   UNL     1      10.563   3.787  23.346  0.00  0.00    -0.285 N 
ATOM     10  H   UNL     1      11.235   4.082  22.643  0.00  0.00    +0.155 HD
ATOM     11  C   UNL     1       9.782   4.791  23.790  0.00  0.00    +0.197 A 
ATOM     12  N   UNL     1       8.957   4.691  24.881  0.00  0.00    -0.333 N 
ATOM     13  H   UNL     1       8.891   3.889  25.486  0.00  0.00    +0.168 HD
ATOM     14  C   UNL     1       8.255   5.858  24.996  0.00  0.00    +0.105 A 
ATOM     15  C   UNL     1       8.787   6.677  24.031  0.00  0.00    +0.132 A 
ATOM     16  N   UNL     1       9.751   6.015  23.312  0.00  0.00    -0.223 NA
ENDBRANCH   3   9
ENDBRANCH   1   6
BRANCH   1  17
ATOM     17  C   UNL     1       9.234  -2.764  23.580  0.00  0.00    +0.031 A 
ATOM     18  C   UNL     1       9.628  -3.779  24.452  0.00  0.00    +0.025 A 
ATOM     19  C   UNL     1       8.696  -4.687  24.964  0.00  0.00    +0.025 A 
ATOM     20  C   UNL     1       7.332  -4.594  24.641  0.00  0.00    +0.034 A 
ATOM     21  C   UNL     1       6.951  -3.599  23.737  0.00  0.00    +0.025 A 
ATOM     22  C   UNL     1       7.888  -2.699  23.208  0.00  0.00    +0.025 A 
BRANCH  20  23
ATOM     23  N   UNL     1       6.437  -5.486  25.269  0.00  0.00    -0.285 N 
ATOM     24  H   UNL     1       5.983  -6.104  24.609  0.00  0.00    +0.155 HD
ATOM     25  C   UNL     1       6.238  -5.665  26.594  0.00  0.00    +0.197 A 
ATOM     26  N   UNL     1       5.426  -6.695  27.003  0.00  0.00    -0.333 N 
ATOM     27  H   UNL     1       4.962  -7.348  26.392  0.00  0.00    +0.168 HD
ATOM     28  C   UNL     1       5.371  -6.683  28.368  0.00  0.00    +0.105 A 
ATOM     29  C   UNL     1       6.183  -5.643  28.742  0.00  0.00    +0.132 A 
ATOM     30  N   UNL     1       6.712  -5.026  27.640  0.00  0.00    -0.223 NA
ENDBRANCH  20  23
ENDBRANCH   1  17
TORSDOF 4
ENDMDL
MODEL 5
REMARK VINA RESULT:      -7.6      1.389      9.796
REMARK  Name = 
REMARK  4 active torsions:
REMARK  status: ('A' for Active; 'I' for Inactive)
REMARK    1  A    between atoms: N_1  and  C_7
REMARK    2  A    between atoms: C_10  and  N_11
REMARK    3  A    between atoms: N_11  and  C_12
REMARK    4  A    between atoms: C_15  and  N_16
REMARK                            x       y       z     vdW  Elec       q    Type
REMARK                         _______ _______ _______ _____ _____    ______ ____
ROOT
ATOM      1  N   UNL     1       9.827  -2.071  23.044  0.00  0.00    -0.314 N 
ATOM      2  H   UNL     1      10.660  -2.582  22.768  0.00  0.00    +0.152 HD
ENDROOT
BRANCH   1   6
ATOM      3  C   UNL     1       7.285  -4.517  25.423  0.00  0.00    +0.034 A 
ATOM      4  C   UNL     1       8.678  -4.563  25.590  0.00  0.00    +0.025 A 
ATOM      5  C   UNL     1       9.536  -3.727  24.856  0.00  0.00    +0.025 A 
ATOM      6  C   UNL     1       9.022  -2.849  23.900  0.00  0.00    +0.031 A 
ATOM      7  C   UNL     1       7.638  -2.781  23.746  0.00  0.00    +0.025 A 
ATOM      8  C   UNL     1       6.783  -3.583  24.514  0.00  0.00    +0.025 A 
BRANCH   3   9
ATOM      9  N   UNL     1       6.496  -5.466  26.111  0.00  0.00    -0.285 N 
ATOM     10  H   UNL     1       6.610  -5.413  27.120  0.00  0.00    +0.155 HD
ATOM     11  C   UNL     1       5.371  -6.107  25.737  0.00  0.00    +0.197 A 
ATOM     12  N   UNL     1       5.107  -6.493  24.448  0.00  0.00    -0.333 N 
ATOM     13  H   UNL     1       5.738  -6.389  23.670  0.00  0.00    +0.168 HD
ATOM     14  C   UNL     1       3.852  -7.036  24.412  0.00  0.00    +0.105 A 
ATOM     15  C   UNL     1       3.456  -7.074  25.726  0.00  0.00    +0.132 A 
ATOM     16  N   UNL     1       4.416  -6.525  26.538  0.00  0.00    -0.223 NA
ENDBRANCH   3   9
ENDBRANCH   1   6
BRANCH   1  17
ATOM     17  C   UNL     1      10.006  -0.677  23.038  0.00  0.00    +0.031 A 
ATOM     18  C   UNL     1      10.479  -0.002  24.164  0.00  0.00    +0.025 A 
ATOM     19  C   UNL     1      10.645   1.387  24.149  0.00  0.00    +0.025 A 
ATOM     20  C   UNL     1      10.369   2.144  23.000  0.00  0.00    +0.034 A 
ATOM     21  C   UNL     1       9.859   1.466  21.889  0.00  0.00    +0.025 A 
ATOM     22  C   UNL     1       9.674   0.075  21.908  0.00  0.00    +0.025 A 
BRANCH  20  23
ATOM     23  N   UNL     1      10.650   3.527  23.029  0.00  0.00    -0.285 N 
ATOM     24  H   UNL     1      11.404   3.779  22.404  0.00  0.00    +0.155 HD
ATOM     25  C   UNL     1       9.968   4.498  23.676  0.00  0.00    +0.197 A 
ATOM     26  N   UNL     1      10.318   5.808  23.453  0.00  0.00    -0.333 N 
ATOM     27  H   UNL     1      11.048   6.116  22.832  0.00  0.00    +0.168 HD
ATOM     28  C   UNL     1       9.502   6.605  24.205  0.00  0.00    +0.105 A 
ATOM     29  C   UNL     1       8.659   5.735  24.848  0.00  0.00    +0.132 A 
ATOM     30  N   UNL     1       8.955   4.441  24.512  0.00  0.00    -0.223 NA
ENDBRANCH  20  23
ENDBRANCH   1  17
TORSDOF 4
ENDMDL
MODEL 6
REMARK VINA RESULT:      -7.6      1.184      9.588
REMARK  Name = 
REMARK  4 active torsions:
REMARK  status: ('A' for Active; 'I' for Inactive)
REMARK    1  A    between atoms: N_1  and  C_7
REMARK    2  A    between atoms: C_10  and  N_11
REMARK    3  A    between atoms: N_11  and  C_12
REMARK    4  A    between atoms: C_15  and  N_16
REMARK                            x       y       z     vdW  Elec       q    Type
REMARK                         _______ _______ _______ _____ _____    ______ ____
ROOT
ATOM      1  N   UNL     1       8.597  -2.027  22.195  0.00  0.00    -0.314 N 
ATOM      2  H   UNL     1       9.096  -2.380  21.383  0.00  0.00    +0.152 HD
ENDROOT
BRANCH   1   6
ATOM      3  C   UNL     1       8.124  -4.883  25.314  0.00  0.00    +0.034 A 
ATOM      4  C   UNL     1       7.370  -4.985  24.133  0.00  0.00    +0.025 A 
ATOM      5  C   UNL     1       7.546  -4.088  23.067  0.00  0.00    +0.025 A 
ATOM      6  C   UNL     1       8.455  -3.033  23.171  0.00  0.00    +0.031 A 
ATOM      7  C   UNL     1       9.224  -2.939  24.331  0.00  0.00    +0.025 A 
ATOM      8  C   UNL     1       9.079  -3.866  25.373  0.00  0.00    +0.025 A 
BRANCH   3   9
ATOM      9  N   UNL     1       7.811  -5.749  26.385  0.00  0.00    -0.285 N 
ATOM     10  H   UNL     1       8.594  -6.340  26.652  0.00  0.00    +0.155 HD
ATOM     11  C   UNL     1       6.866  -5.654  27.342  0.00  0.00    +0.197 A 
ATOM     12  N   UNL     1       5.629  -5.099  27.138  0.00  0.00    -0.333 N 
ATOM     13  H   UNL     1       5.283  -4.759  26.255  0.00  0.00    +0.168 HD
ATOM     14  C   UNL     1       4.962  -5.091  28.332  0.00  0.00    +0.105 A 
ATOM     15  C   UNL     1       5.788  -5.771  29.193  0.00  0.00    +0.132 A 
ATOM     16  N   UNL     1       6.948  -6.140  28.560  0.00  0.00    -0.223 NA
ENDBRANCH   3   9
ENDBRANCH   1   6
BRANCH   1  17
ATOM     17  C   UNL     1       8.752  -0.643  22.379  0.00  0.00    +0.031 A 
ATOM     18  C   UNL     1       7.880   0.083  23.192  0.00  0.00    +0.025 A 
ATOM     19  C   UNL     1       8.038   1.462  23.361  0.00  0.00    +0.025 A 
ATOM     20  C   UNL     1       9.089   2.158  22.744  0.00  0.00    +0.034 A 
ATOM     21  C   UNL     1       9.936   1.432  21.902  0.00  0.00    +0.025 A 
ATOM     22  C   UNL     1       9.767   0.051  21.716  0.00  0.00    +0.025 A 
BRANCH  20  23
ATOM     23  N   UNL     1       9.241   3.530  23.036  0.00  0.00    -0.285 N 
ATOM     24  H   UNL     1       8.353   3.998  23.160  0.00  0.00    +0.155 HD
ATOM     25  C   UNL     1      10.387   4.205  23.274  0.00  0.00    +0.197 A 
ATOM     26  N   UNL     1      10.307   5.513  23.690  0.00  0.00    -0.333 N 
ATOM     27  H   UNL     1       9.452   6.021  23.844  0.00  0.00    +0.168 HD
ATOM     28  C   UNL     1      11.576   5.987  23.866  0.00  0.00    +0.105 A 
ATOM     29  C   UNL     1      12.391   4.925  23.567  0.00  0.00    +0.132 A 
ATOM     30  N   UNL     1      11.647   3.834  23.206  0.00  0.00    -0.223 NA
ENDBRANCH  20  23
ENDBRANCH   1  17
TORSDOF 4
ENDMDL
MODEL 7
REMARK VINA RESULT:      -7.4      1.936      9.541
REMARK  Name = 
REMARK  4 active torsions:
REMARK  status: ('A' for Active; 'I' for Inactive)
REMARK    1  A    between atoms: N_1  and  C_7
REMARK    2  A    between atoms: C_10  and  N_11
REMARK    3  A    between atoms: N_11  and  C_12
REMARK    4  A    between atoms: C_15  and  N_16
REMARK                            x       y       z     vdW  Elec       q    Type
REMARK                         _______ _______ _______ _____ _____    ______ ____
ROOT
ATOM      1  N   UNL     1       8.580  -1.992  22.161  0.00  0.00    -0.314 N 
ATOM      2  H   UNL     1       9.119  -2.335  21.371  0.00  0.00    +0.152 HD
ENDROOT
BRANCH   1   6
ATOM      3  C   UNL     1       7.961  -4.894  25.211  0.00  0.00    +0.034 A 
ATOM      4  C   UNL     1       7.158  -4.889  24.059  0.00  0.00    +0.025 A 
ATOM      5  C   UNL     1       7.377  -3.977  23.014  0.00  0.00    +0.025 A 
ATOM      6  C   UNL     1       8.382  -3.013  23.113  0.00  0.00    +0.031 A 
ATOM      7  C   UNL     1       9.198  -3.027  24.243  0.00  0.00    +0.025 A 
ATOM      8  C   UNL     1       9.007  -3.970  25.262  0.00  0.00    +0.025 A 
BRANCH   3   9
ATOM      9  N   UNL     1       7.610  -5.763  26.268  0.00  0.00    -0.285 N 
ATOM     10  H   UNL     1       8.317  -6.472  26.444  0.00  0.00    +0.155 HD
ATOM     11  C   UNL     1       6.766  -5.587  27.304  0.00  0.00    +0.197 A 
ATOM     12  N   UNL     1       5.610  -4.852  27.229  0.00  0.00    -0.333 N 
ATOM     13  H   UNL     1       5.250  -4.421  26.393  0.00  0.00    +0.168 HD
ATOM     14  C   UNL     1       5.046  -4.813  28.474  0.00  0.00    +0.105 A 
ATOM     15  C   UNL     1       5.828  -5.648  29.233  0.00  0.00    +0.132 A 
ATOM     16  N   UNL     1       6.870  -6.143  28.490  0.00  0.00    -0.223 NA
ENDBRANCH   3   9
ENDBRANCH   1   6
BRANCH   1  17
ATOM     17  C   UNL     1       8.731  -0.612  22.376  0.00  0.00    +0.031 A 
ATOM     18  C   UNL     1       9.761   0.109  21.770  0.00  0.00    +0.025 A 
ATOM     19  C   UNL     1       9.906   1.481  21.999  0.00  0.00    +0.025 A 
ATOM     20  C   UNL     1       9.011   2.184  22.820  0.00  0.00    +0.034 A 
ATOM     21  C   UNL     1       8.004   1.449  23.453  0.00  0.00    +0.025 A 
ATOM     22  C   UNL     1       7.868   0.069  23.240  0.00  0.00    +0.025 A 
BRANCH  20  23
ATOM     23  N   UNL     1       9.164   3.583  22.928  0.00  0.00    -0.285 N 
ATOM     24  H   UNL     1      10.126   3.853  23.085  0.00  0.00    +0.155 HD
ATOM     25  C   UNL     1       8.229   4.537  22.728  0.00  0.00    +0.197 A 
ATOM     26  N   UNL     1       8.620   5.855  22.736  0.00  0.00    -0.333 N 
ATOM     27  H   UNL     1       9.564   6.179  22.873  0.00  0.00    +0.168 HD
ATOM     28  C   UNL     1       7.519   6.632  22.517  0.00  0.00    +0.105 A 
ATOM     29  C   UNL     1       6.488   5.742  22.359  0.00  0.00    +0.132 A 
ATOM     30  N   UNL     1       6.938   4.456  22.489  0.00  0.00    -0.223 NA
ENDBRANCH  20  23
ENDBRANCH   1  17
TORSDOF 4
ENDMDL
MODEL 8
REMARK VINA RESULT:      -7.4      2.766      3.372
REMARK  Name = 
REMARK  4 active torsions:
REMARK  status: ('A' for Active; 'I' for Inactive)
REMARK    1  A    between atoms: N_1  and  C_7
REMARK    2  A    between atoms: C_10  and  N_11
REMARK    3  A    between atoms: N_11  and  C_12
REMARK    4  A    between atoms: C_15  and  N_16
REMARK                            x       y       z     vdW  Elec       q    Type
REMARK                         _______ _______ _______ _____ _____    ______ ____
ROOT
ATOM      1  N   UNL     1      10.132  -1.603  23.456  0.00  0.00    -0.314 N 
ATOM      2  H   UNL     1      11.018  -1.890  23.049  0.00  0.00    +0.152 HD
ENDROOT
BRANCH   1   6
ATOM      3  C   UNL     1       9.542   2.605  23.233  0.00  0.00    +0.034 A 
ATOM      4  C   UNL     1       9.595   1.958  24.479  0.00  0.00    +0.025 A 
ATOM      5  C   UNL     1       9.843   0.580  24.581  0.00  0.00    +0.025 A 
ATOM      6  C   UNL     1      10.002  -0.200  23.434  0.00  0.00    +0.031 A 
ATOM      7  C   UNL     1       9.974   0.440  22.195  0.00  0.00    +0.025 A 
ATOM      8  C   UNL     1       9.775   1.824  22.099  0.00  0.00    +0.025 A 
BRANCH   3   9
ATOM      9  N   UNL     1       9.176   3.970  23.203  0.00  0.00    -0.285 N 
ATOM     10  H   UNL     1       9.951   4.578  22.954  0.00  0.00    +0.155 HD
ATOM     11  C   UNL     1       7.970   4.549  23.036  0.00  0.00    +0.197 A 
ATOM     12  N   UNL     1       6.796   4.015  23.504  0.00  0.00    -0.333 N 
ATOM     13  H   UNL     1       6.720   3.177  24.057  0.00  0.00    +0.168 HD
ATOM     14  C   UNL     1       5.768   4.815  23.089  0.00  0.00    +0.105 A 
ATOM     15  C   UNL     1       6.383   5.885  22.489  0.00  0.00    +0.132 A 
ATOM     16  N   UNL     1       7.746   5.723  22.490  0.00  0.00    -0.223 NA
ENDBRANCH   3   9
ENDBRANCH   1   6
BRANCH   1  17
ATOM     17  C   UNL     1       9.128  -2.578  23.336  0.00  0.00    +0.031 A 
ATOM     18  C   UNL     1       8.194  -2.534  22.300  0.00  0.00    +0.025 A 
ATOM     19  C   UNL     1       7.193  -3.505  22.195  0.00  0.00    +0.025 A 
ATOM     20  C   UNL     1       7.107  -4.568  23.109  0.00  0.00    +0.034 A 
ATOM     21  C   UNL     1       8.023  -4.584  24.165  0.00  0.00    +0.025 A 
ATOM     22  C   UNL     1       9.016  -3.600  24.283  0.00  0.00    +0.025 A 
BRANCH  20  23
ATOM     23  N   UNL     1       6.130  -5.561  22.886  0.00  0.00    -0.285 N 
ATOM     24  H   UNL     1       6.537  -6.448  22.619  0.00  0.00    +0.155 HD
ATOM     25  C   UNL     1       4.799  -5.477  23.103  0.00  0.00    +0.197 A 
ATOM     26  N   UNL     1       4.037  -6.612  22.963  0.00  0.00    -0.333 N 
ATOM     27  H   UNL     1       4.391  -7.522  22.715  0.00  0.00    +0.168 HD
ATOM     28  C   UNL     1       2.736  -6.293  23.228  0.00  0.00    +0.105 A 
ATOM     29  C   UNL     1       2.761  -4.958  23.546  0.00  0.00    +0.132 A 
ATOM     30  N   UNL     1       4.037  -4.469  23.467  0.00  0.00    -0.223 NA
ENDBRANCH  20  23
ENDBRANCH   1  17
TORSDOF 4
ENDMDL
MODEL 9
REMARK VINA RESULT:      -7.4      2.080      2.421
REMARK  Name = 
REMARK  4 active torsions:
REMARK  status: ('A' for Active; 'I' for Inactive)
REMARK    1  A    between atoms: N_1  and  C_7
REMARK    2  A    between atoms: C_10  and  N_11
REMARK    3  A    between atoms: N_11  and  C_12
REMARK    4  A    between atoms: C_15  and  N_16
REMARK                            x       y       z     vdW  Elec       q    Type
REMARK                         _______ _______ _______ _____ _____    ______ ____
ROOT
ATOM      1  N   UNL     1       8.648  -2.724  22.725  0.00  0.00    -0.314 N 
ATOM      2  H   UNL     1       8.494  -3.195  21.838  0.00  0.00    +0.152 HD
ENDROOT
BRANCH   1   6
ATOM      3  C   UNL     1       8.258   1.457  22.043  0.00  0.00    +0.034 A 
ATOM      4  C   UNL     1       7.298   0.767  22.801  0.00  0.00    +0.025 A 
ATOM      5  C   UNL     1       7.432  -0.602  23.087  0.00  0.00    +0.025 A 
ATOM      6  C   UNL     1       8.512  -1.329  22.582  0.00  0.00    +0.031 A 
ATOM      7  C   UNL     1       9.481  -0.645  21.849  0.00  0.00    +0.025 A 
ATOM      8  C   UNL     1       9.368   0.731  21.608  0.00  0.00    +0.025 A 
BRANCH   3   9
ATOM      9  N   UNL     1       7.998   2.804  21.702  0.00  0.00    -0.285 N 
ATOM     10  H   UNL     1       7.519   2.897  20.810  0.00  0.00    +0.155 HD
ATOM     11  C   UNL     1       7.891   3.900  22.479  0.00  0.00    +0.197 A 
ATOM     12  N   UNL     1       8.624   4.099  23.621  0.00  0.00    -0.333 N 
ATOM     13  H   UNL     1       9.344   3.484  23.963  0.00  0.00    +0.168 HD
ATOM     14  C   UNL     1       8.205   5.265  24.200  0.00  0.00    +0.105 A 
ATOM     15  C   UNL     1       7.314   5.796  23.301  0.00  0.00    +0.132 A 
ATOM     16  N   UNL     1       7.151   4.957  22.227  0.00  0.00    -0.223 NA
ENDBRANCH   3   9
ENDBRANCH   1   6
BRANCH   1  17
ATOM     17  C   UNL     1       8.337  -3.525  23.837  0.00  0.00    +0.031 A 
ATOM     18  C   UNL     1       7.233  -4.379  23.830  0.00  0.00    +0.025 A 
ATOM     19  C   UNL     1       6.928  -5.165  24.945  0.00  0.00    +0.025 A 
ATOM     20  C   UNL     1       7.731  -5.144  26.097  0.00  0.00    +0.034 A 
ATOM     21  C   UNL     1       8.813  -4.258  26.111  0.00  0.00    +0.025 A 
ATOM     22  C   UNL     1       9.110  -3.455  24.999  0.00  0.00    +0.025 A 
BRANCH  20  23
ATOM     23  N   UNL     1       7.416  -6.033  27.146  0.00  0.00    -0.285 N 
ATOM     24  H   UNL     1       7.995  -6.863  27.134  0.00  0.00    +0.155 HD
ATOM     25  C   UNL     1       6.557  -5.835  28.170  0.00  0.00    +0.197 A 
ATOM     26  N   UNL     1       6.504  -6.771  29.175  0.00  0.00    -0.333 N 
ATOM     27  H   UNL     1       7.067  -7.605  29.222  0.00  0.00    +0.168 HD
ATOM     28  C   UNL     1       5.576  -6.367  30.092  0.00  0.00    +0.105 A 
ATOM     29  C   UNL     1       5.108  -5.170  29.612  0.00  0.00    +0.132 A 
ATOM     30  N   UNL     1       5.721  -4.853  28.429  0.00  0.00    -0.223 NA
ENDBRANCH  20  23
ENDBRANCH   1  17
TORSDOF 4
ENDMDL
