MODEL 1
REMARK VINA RESULT:      -6.1      0.000      0.000
REMARK  Name = 
REMARK  11 active torsions:
REMARK  status: ('A' for Active; 'I' for Inactive)
REMARK    1  A    between atoms: C_1  and  C_2
REMARK    2  A    between atoms: N_4  and  C_5
REMARK    3  A    between atoms: C_7  and  O_9
REMARK    4  A    between atoms: C_11  and  C_23
REMARK    5  A    between atoms: C_13  and  C_15
REMARK    6  A    between atoms: C_15  and  O_17
REMARK    7  A    between atoms: C_15  and  C_18
REMARK    8  A    between atoms: C_18  and  O_20
REMARK    9  A    between atoms: C_18  and  C_21
REMARK   10  A    between atoms: C_21  and  O_22
REMARK   11  A    between atoms: C_23  and  O_24
REMARK                            x       y       z     vdW  Elec       q    Type
REMARK                         _______ _______ _______ _____ _____    ______ ____
ROOT
ATOM      1  C   UNL     1       8.101  -3.981  25.231  0.00  0.00    +0.148 C 
ATOM      2  C   UNL     1       6.761  -4.186  25.998  0.00  0.00    +0.228 C 
ATOM      3  O   UNL     1       5.633  -4.686  25.253  0.00  0.00    -0.478 OA
ATOM      4  C   UNL     1       5.850  -5.384  24.092  0.00  0.00    +0.203 C 
ATOM      5  C   UNL     1       7.032  -5.480  23.475  0.00  0.00    +0.059 C 
ATOM      6  C   UNL     1       8.266  -4.825  23.952  0.00  0.00    +0.165 C 
ENDROOT
BRANCH   1   9
ATOM      7  C   UNL     1       9.534  -0.666  24.018  0.00  0.00    +0.109 C 
ATOM      8  C   UNL     1       9.454  -2.149  24.243  0.00  0.00    +0.210 C 
ATOM      9  N   UNL     1       8.340  -2.550  24.949  0.00  0.00    -0.306 N 
ATOM     10  H   UNL     1       7.766  -1.848  25.402  0.00  0.00    +0.149 HD
ATOM     11  O   UNL     1      10.311  -2.933  23.850  0.00  0.00    -0.276 OA
ENDBRANCH   1   9
BRANCH   4  12
ATOM     12  C   UNL     1       4.696  -6.097  23.461  0.00  0.00    +0.372 C 
ATOM     13  O   UNL     1       3.954  -5.620  22.622  0.00  0.00    -0.242 OA
BRANCH  12  14
ATOM     14  O   UNL     1       4.567  -7.352  23.945  0.00  0.00    -0.475 OA
ATOM     15  H   UNL     1       3.770  -7.443  24.502  0.00  0.00    +0.296 HD
ENDBRANCH  12  14
ENDBRANCH   4  12
BRANCH   6  16
ATOM     16  O   UNL     1       9.235  -5.854  24.125  0.00  0.00    -0.386 OA
ATOM     17  H   UNL     1       9.058  -6.298  24.972  0.00  0.00    +0.210 HD
ENDBRANCH   6  16
BRANCH   2  18
ATOM     18  C   UNL     1       6.991  -5.032  27.280  0.00  0.00    +0.187 C 
BRANCH  18  19
ATOM     19  O   UNL     1       8.037  -5.978  27.042  0.00  0.00    -0.385 OA
ATOM     20  H   UNL     1       8.687  -5.544  26.455  0.00  0.00    +0.210 HD
ENDBRANCH  18  19
BRANCH  18  21
ATOM     21  C   UNL     1       5.724  -5.764  27.769  0.00  0.00    +0.172 C 
BRANCH  21  22
ATOM     22  O   UNL     1       5.475  -6.902  26.925  0.00  0.00    -0.387 OA
ATOM     23  H   UNL     1       5.503  -7.676  27.515  0.00  0.00    +0.210 HD
ENDBRANCH  21  22
BRANCH  21  24
ATOM     24  C   UNL     1       5.880  -6.228  29.229  0.00  0.00    +0.189 C 
BRANCH  24  25
ATOM     25  O   UNL     1       6.690  -7.400  29.327  0.00  0.00    -0.392 OA
ATOM     26  H   UNL     1       6.113  -8.159  29.509  0.00  0.00    +0.210 HD
ENDBRANCH  24  25
ENDBRANCH  21  24
ENDBRANCH  18  21
ENDBRANCH   2  18
TORSDOF 10
ENDMDL
MODEL 2
REMARK VINA RESULT:      -5.9      1.757      5.006
REMARK  Name = 
REMARK  11 active torsions:
REMARK  status: ('A' for Active; 'I' for Inactive)
REMARK    1  A    between atoms: C_1  and  C_2
REMARK    2  A    between atoms: N_4  and  C_5
REMARK    3  A    between atoms: C_7  and  O_9
REMARK    4  A    between atoms: C_11  and  C_23
REMARK    5  A    between atoms: C_13  and  C_15
REMARK    6  A    between atoms: C_15  and  O_17
REMARK    7  A    between atoms: C_15  and  C_18
REMARK    8  A    between atoms: C_18  and  O_20
REMARK    9  A    between atoms: C_18  and  C_21
REMARK   10  A    between atoms: C_21  and  O_22
REMARK   11  A    between atoms: C_23  and  O_24
REMARK                            x       y       z     vdW  Elec       q    Type
REMARK                         _______ _______ _______ _____ _____    ______ ____
ROOT
ATOM      1  C   UNL     1       7.807  -4.759  25.177  0.00  0.00    +0.148 C 
ATOM      2  C   UNL     1       6.925  -4.286  23.984  0.00  0.00    +0.228 C 
ATOM      3  O   UNL     1       7.317  -3.081  23.297  0.00  0.00    -0.478 OA
ATOM      4  C   UNL     1       8.620  -2.659  23.371  0.00  0.00    +0.203 C 
ATOM      5  C   UNL     1       9.538  -3.173  24.197  0.00  0.00    +0.059 C 
ATOM      6  C   UNL     1       9.264  -4.255  25.162  0.00  0.00    +0.165 C 
ENDROOT
BRANCH   1   9
ATOM      7  C   UNL     1       5.754  -4.912  28.383  0.00  0.00    +0.109 C 
ATOM      8  C   UNL     1       6.305  -5.361  27.059  0.00  0.00    +0.210 C 
ATOM      9  N   UNL     1       7.161  -4.455  26.470  0.00  0.00    -0.306 N 
ATOM     10  H   UNL     1       7.225  -3.519  26.855  0.00  0.00    +0.149 HD
ATOM     11  O   UNL     1       6.008  -6.431  26.539  0.00  0.00    -0.276 OA
ENDBRANCH   1   9
BRANCH   4  12
ATOM     12  C   UNL     1       9.065  -1.551  22.469  0.00  0.00    +0.372 C 
ATOM     13  O   UNL     1       8.440  -0.529  22.257  0.00  0.00    -0.242 OA
BRANCH  12  14
ATOM     14  O   UNL     1      10.259  -1.828  21.900  0.00  0.00    -0.475 OA
ATOM     15  H   UNL     1      10.171  -2.004  20.943  0.00  0.00    +0.296 HD
ENDBRANCH  12  14
ENDBRANCH   4  12
BRANCH   6  16
ATOM     16  O   UNL     1      10.179  -5.306  24.869  0.00  0.00    -0.386 OA
ATOM     17  H   UNL     1      10.239  -5.395  23.902  0.00  0.00    +0.210 HD
ENDBRANCH   6  16
BRANCH   2  18
ATOM     18  C   UNL     1       6.706  -5.446  22.974  0.00  0.00    +0.187 C 
BRANCH  18  19
ATOM     19  O   UNL     1       7.638  -5.318  21.897  0.00  0.00    -0.385 OA
ATOM     20  H   UNL     1       7.302  -5.868  21.162  0.00  0.00    +0.210 HD
ENDBRANCH  18  19
BRANCH  18  21
ATOM     21  C   UNL     1       5.269  -5.515  22.419  0.00  0.00    +0.172 C 
BRANCH  21  22
ATOM     22  O   UNL     1       5.251  -6.348  21.246  0.00  0.00    -0.387 OA
ATOM     23  H   UNL     1       5.686  -7.180  21.509  0.00  0.00    +0.210 HD
ENDBRANCH  21  22
BRANCH  21  24
ATOM     24  C   UNL     1       4.294  -6.080  23.468  0.00  0.00    +0.189 C 
BRANCH  24  25
ATOM     25  O   UNL     1       4.706  -7.365  23.933  0.00  0.00    -0.392 OA
ATOM     26  H   UNL     1       5.645  -7.319  24.178  0.00  0.00    +0.210 HD
ENDBRANCH  24  25
ENDBRANCH  21  24
ENDBRANCH  18  21
ENDBRANCH   2  18
TORSDOF 10
ENDMDL
MODEL 3
REMARK VINA RESULT:      -5.8      2.544      5.176
REMARK  Name = 
REMARK  11 active torsions:
REMARK  status: ('A' for Active; 'I' for Inactive)
REMARK    1  A    between atoms: C_1  and  C_2
REMARK    2  A    between atoms: N_4  and  C_5
REMARK    3  A    between atoms: C_7  and  O_9
REMARK    4  A    between atoms: C_11  and  C_23
REMARK    5  A    between atoms: C_13  and  C_15
REMARK    6  A    between atoms: C_15  and  O_17
REMARK    7  A    between atoms: C_15  and  C_18
REMARK    8  A    between atoms: C_18  and  O_20
REMARK    9  A    between atoms: C_18  and  C_21
REMARK   10  A    between atoms: C_21  and  O_22
REMARK   11  A    between atoms: C_23  and  O_24
REMARK                            x       y       z     vdW  Elec       q    Type
REMARK                         _______ _______ _______ _____ _____    ______ ____
ROOT
ATOM      1  C   UNL     1       8.027  -1.549  23.306  0.00  0.00    +0.148 C 
ATOM      2  C   UNL     1       8.339  -3.002  22.839  0.00  0.00    +0.228 C 
ATOM      3  O   UNL     1       8.873  -3.919  23.815  0.00  0.00    -0.478 OA
ATOM      4  C   UNL     1       8.664  -3.677  25.149  0.00  0.00    +0.203 C 
ATOM      5  C   UNL     1       8.161  -2.542  25.644  0.00  0.00    +0.059 C 
ATOM      6  C   UNL     1       7.782  -1.379  24.818  0.00  0.00    +0.165 C 
ENDROOT
BRANCH   1   9
ATOM      7  C   UNL     1       9.879   1.488  21.942  0.00  0.00    +0.109 C 
ATOM      8  C   UNL     1       8.710   0.641  22.357  0.00  0.00    +0.210 C 
ATOM      9  N   UNL     1       9.061  -0.605  22.833  0.00  0.00    -0.306 N 
ATOM     10  H   UNL     1      10.016  -0.925  22.715  0.00  0.00    +0.149 HD
ATOM     11  O   UNL     1       7.546   1.015  22.265  0.00  0.00    -0.276 OA
ENDBRANCH   1   9
BRANCH   4  12
ATOM     12  C   UNL     1       9.013  -4.749  26.133  0.00  0.00    +0.372 C 
ATOM     13  O   UNL     1       8.421  -4.961  27.175  0.00  0.00    -0.242 OA
BRANCH  12  14
ATOM     14  O   UNL     1      10.086  -5.461  25.726  0.00  0.00    -0.475 OA
ATOM     15  H   UNL     1      10.711  -5.623  26.460  0.00  0.00    +0.296 HD
ENDBRANCH  12  14
ENDBRANCH   4  12
BRANCH   6  16
ATOM     16  O   UNL     1       6.413  -1.106  25.099  0.00  0.00    -0.386 OA
ATOM     17  H   UNL     1       6.220  -1.419  25.999  0.00  0.00    +0.210 HD
ENDBRANCH   6  16
BRANCH   2  18
ATOM     18  C   UNL     1       7.108  -3.620  22.123  0.00  0.00    +0.187 C 
BRANCH  18  19
ATOM     19  O   UNL     1       5.915  -2.997  22.607  0.00  0.00    -0.385 OA
ATOM     20  H   UNL     1       5.910  -3.107  23.578  0.00  0.00    +0.210 HD
ENDBRANCH  18  19
BRANCH  18  21
ATOM     21  C   UNL     1       7.004  -5.151  22.288  0.00  0.00    +0.172 C 
BRANCH  21  22
ATOM     22  O   UNL     1       6.247  -5.451  23.474  0.00  0.00    -0.387 OA
ATOM     23  H   UNL     1       5.736  -4.644  23.670  0.00  0.00    +0.210 HD
ENDBRANCH  21  22
BRANCH  21  24
ATOM     24  C   UNL     1       6.326  -5.797  21.066  0.00  0.00    +0.189 C 
BRANCH  24  25
ATOM     25  O   UNL     1       5.846  -4.814  20.148  0.00  0.00    -0.392 OA
ATOM     26  H   UNL     1       5.371  -4.131  20.648  0.00  0.00    +0.210 HD
ENDBRANCH  24  25
ENDBRANCH  21  24
ENDBRANCH  18  21
ENDBRANCH   2  18
TORSDOF 10
ENDMDL
MODEL 4
REMARK VINA RESULT:      -5.8      3.382      6.652
REMARK  Name = 
REMARK  11 active torsions:
REMARK  status: ('A' for Active; 'I' for Inactive)
REMARK    1  A    between atoms: C_1  and  C_2
REMARK    2  A    between atoms: N_4  and  C_5
REMARK    3  A    between atoms: C_7  and  O_9
REMARK    4  A    between atoms: C_11  and  C_23
REMARK    5  A    between atoms: C_13  and  C_15
REMARK    6  A    between atoms: C_15  and  O_17
REMARK    7  A    between atoms: C_15  and  C_18
REMARK    8  A    between atoms: C_18  and  O_20
REMARK    9  A    between atoms: C_18  and  C_21
REMARK   10  A    between atoms: C_21  and  O_22
REMARK   11  A    between atoms: C_23  and  O_24
REMARK                            x       y       z     vdW  Elec       q    Type
REMARK                         _______ _______ _______ _____ _____    ______ ____
ROOT
ATOM      1  C   UNL     1       7.001  -0.746  23.230  0.00  0.00    +0.148 C 
ATOM      2  C   UNL     1       8.550  -0.881  23.327  0.00  0.00    +0.228 C 
ATOM      3  O   UNL     1       9.080  -2.013  24.046  0.00  0.00    -0.478 OA
ATOM      4  C   UNL     1       8.302  -3.131  24.207  0.00  0.00    +0.203 C 
ATOM      5  C   UNL     1       6.999  -3.197  23.915  0.00  0.00    +0.059 C 
ATOM      6  C   UNL     1       6.212  -2.059  23.399  0.00  0.00    +0.165 C 
ENDROOT
BRANCH   1   9
ATOM      7  C   UNL     1       5.726   2.498  24.768  0.00  0.00    +0.109 C 
ATOM      8  C   UNL     1       6.261   1.574  23.712  0.00  0.00    +0.210 C 
ATOM      9  N   UNL     1       6.498   0.290  24.155  0.00  0.00    -0.306 N 
ATOM     10  H   UNL     1       6.469   0.101  25.151  0.00  0.00    +0.149 HD
ATOM     11  O   UNL     1       6.483   1.932  22.560  0.00  0.00    -0.276 OA
ENDBRANCH   1   9
BRANCH   4  12
ATOM     12  C   UNL     1       8.940  -4.375  24.740  0.00  0.00    +0.372 C 
ATOM     13  O   UNL     1      10.134  -4.610  24.724  0.00  0.00    -0.242 OA
BRANCH  12  14
ATOM     14  O   UNL     1       8.018  -5.226  25.241  0.00  0.00    -0.475 OA
ATOM     15  H   UNL     1       7.556  -4.844  26.013  0.00  0.00    +0.296 HD
ENDBRANCH  12  14
ENDBRANCH   4  12
BRANCH   6  16
ATOM     16  O   UNL     1       5.635  -2.486  22.169  0.00  0.00    -0.386 OA
ATOM     17  H   UNL     1       6.271  -3.072  21.723  0.00  0.00    +0.210 HD
ENDBRANCH   6  16
BRANCH   2  18
ATOM     18  C   UNL     1       9.195  -0.774  21.919  0.00  0.00    +0.187 C 
BRANCH  18  19
ATOM     19  O   UNL     1      10.293  -1.686  21.830  0.00  0.00    -0.385 OA
ATOM     20  H   UNL     1      10.096  -2.430  22.432  0.00  0.00    +0.210 HD
ENDBRANCH  18  19
BRANCH  18  21
ATOM     21  C   UNL     1       9.668   0.651  21.565  0.00  0.00    +0.172 C 
BRANCH  21  22
ATOM     22  O   UNL     1       8.653   1.310  20.788  0.00  0.00    -0.387 OA
ATOM     23  H   UNL     1       8.904   1.171  19.857  0.00  0.00    +0.210 HD
ENDBRANCH  21  22
BRANCH  21  24
ATOM     24  C   UNL     1       9.960   1.470  22.836  0.00  0.00    +0.189 C 
BRANCH  24  25
ATOM     25  O   UNL     1       9.466   2.806  22.728  0.00  0.00    -0.392 OA
ATOM     26  H   UNL     1       9.267   2.986  21.794  0.00  0.00    +0.210 HD
ENDBRANCH  24  25
ENDBRANCH  21  24
ENDBRANCH  18  21
ENDBRANCH   2  18
TORSDOF 10
ENDMDL
MODEL 5
REMARK VINA RESULT:      -5.7      2.114      3.289
REMARK  Name = 
REMARK  11 active torsions:
REMARK  status: ('A' for Active; 'I' for Inactive)
REMARK    1  A    between atoms: C_1  and  C_2
REMARK    2  A    between atoms: N_4  and  C_5
REMARK    3  A    between atoms: C_7  and  O_9
REMARK    4  A    between atoms: C_11  and  C_23
REMARK    5  A    between atoms: C_13  and  C_15
REMARK    6  A    between atoms: C_15  and  O_17
REMARK    7  A    between atoms: C_15  and  C_18
REMARK    8  A    between atoms: C_18  and  O_20
REMARK    9  A    between atoms: C_18  and  C_21
REMARK   10  A    between atoms: C_21  and  O_22
REMARK   11  A    between atoms: C_23  and  O_24
REMARK                            x       y       z     vdW  Elec       q    Type
REMARK                         _______ _______ _______ _____ _____    ______ ____
ROOT
ATOM      1  C   UNL     1       8.732  -1.396  23.852  0.00  0.00    +0.148 C 
ATOM      2  C   UNL     1       8.028  -2.476  24.725  0.00  0.00    +0.228 C 
ATOM      3  O   UNL     1       6.868  -3.131  24.173  0.00  0.00    -0.478 OA
ATOM      4  C   UNL     1       6.693  -3.154  22.812  0.00  0.00    +0.203 C 
ATOM      5  C   UNL     1       7.419  -2.445  21.942  0.00  0.00    +0.059 C 
ATOM      6  C   UNL     1       8.498  -1.517  22.334  0.00  0.00    +0.165 C 
ENDROOT
BRANCH   1   9
ATOM      7  C   UNL     1       8.878   2.278  24.851  0.00  0.00    +0.109 C 
ATOM      8  C   UNL     1       9.377   0.944  24.374  0.00  0.00    +0.210 C 
ATOM      9  N   UNL     1       8.407  -0.034  24.325  0.00  0.00    -0.306 N 
ATOM     10  H   UNL     1       7.507   0.144  24.758  0.00  0.00    +0.149 HD
ATOM     11  O   UNL     1      10.547   0.738  24.069  0.00  0.00    -0.276 OA
ENDBRANCH   1   9
BRANCH   4  12
ATOM     12  C   UNL     1       5.624  -4.033  22.244  0.00  0.00    +0.372 C 
ATOM     13  O   UNL     1       4.517  -4.189  22.726  0.00  0.00    -0.242 OA
BRANCH  12  14
ATOM     14  O   UNL     1       6.041  -4.652  21.118  0.00  0.00    -0.475 OA
ATOM     15  H   UNL     1       6.918  -4.329  20.832  0.00  0.00    +0.296 HD
ENDBRANCH  12  14
ENDBRANCH   4  12
BRANCH   6  16
ATOM     16  O   UNL     1       9.674  -1.948  21.655  0.00  0.00    -0.386 OA
ATOM     17  H   UNL     1      10.427  -1.437  21.999  0.00  0.00    +0.210 HD
ENDBRANCH   6  16
BRANCH   2  18
ATOM     18  C   UNL     1       9.057  -3.522  25.234  0.00  0.00    +0.187 C 
BRANCH  18  19
ATOM     19  O   UNL     1      10.082  -3.695  24.252  0.00  0.00    -0.385 OA
ATOM     20  H   UNL     1      10.654  -2.903  24.294  0.00  0.00    +0.210 HD
ENDBRANCH  18  19
BRANCH  18  21
ATOM     21  C   UNL     1       8.427  -4.887  25.579  0.00  0.00    +0.172 C 
BRANCH  21  22
ATOM     22  O   UNL     1       9.455  -5.893  25.603  0.00  0.00    -0.387 OA
ATOM     23  H   UNL     1       9.171  -6.541  26.273  0.00  0.00    +0.210 HD
ENDBRANCH  21  22
BRANCH  21  24
ATOM     24  C   UNL     1       7.717  -4.841  26.945  0.00  0.00    +0.189 C 
BRANCH  24  25
ATOM     25  O   UNL     1       7.833  -6.082  27.642  0.00  0.00    -0.392 OA
ATOM     26  H   UNL     1       7.189  -6.089  28.369  0.00  0.00    +0.210 HD
ENDBRANCH  24  25
ENDBRANCH  21  24
ENDBRANCH  18  21
ENDBRANCH   2  18
TORSDOF 10
ENDMDL
MODEL 6
REMARK VINA RESULT:      -5.6      1.268      1.268
REMARK  Name = 
REMARK  11 active torsions:
REMARK  status: ('A' for Active; 'I' for Inactive)
REMARK    1  A    between atoms: C_1  and  C_2
REMARK    2  A    between atoms: N_4  and  C_5
REMARK    3  A    between atoms: C_7  and  O_9
REMARK    4  A    between atoms: C_11  and  C_23
REMARK    5  A    between atoms: C_13  and  C_15
REMARK    6  A    between atoms: C_15  and  O_17
REMARK    7  A    between atoms: C_15  and  C_18
REMARK    8  A    between atoms: C_18  and  O_20
REMARK    9  A    between atoms: C_18  and  C_21
REMARK   10  A    between atoms: C_21  and  O_22
REMARK   11  A    between atoms: C_23  and  O_24
REMARK                            x       y       z     vdW  Elec       q    Type
REMARK                         _______ _______ _______ _____ _____    ______ ____
ROOT
ATOM      1  C   UNL     1       8.175  -3.602  25.295  0.00  0.00    +0.148 C 
ATOM      2  C   UNL     1       6.714  -3.850  25.777  0.00  0.00    +0.228 C 
ATOM      3  O   UNL     1       5.807  -4.492  24.859  0.00  0.00    -0.478 OA
ATOM      4  C   UNL     1       6.312  -5.258  23.839  0.00  0.00    +0.203 C 
ATOM      5  C   UNL     1       7.603  -5.310  23.498  0.00  0.00    +0.059 C 
ATOM      6  C   UNL     1       8.663  -4.527  24.162  0.00  0.00    +0.165 C 
ENDROOT
BRANCH   1   9
ATOM      7  C   UNL     1       8.922   0.133  25.376  0.00  0.00    +0.109 C 
ATOM      8  C   UNL     1       8.717  -1.258  25.905  0.00  0.00    +0.210 C 
ATOM      9  N   UNL     1       8.384  -2.183  24.939  0.00  0.00    -0.306 N 
ATOM     10  H   UNL     1       8.136  -1.857  24.012  0.00  0.00    +0.149 HD
ATOM     11  O   UNL     1       8.821  -1.544  27.093  0.00  0.00    -0.276 OA
ENDBRANCH   1   9
BRANCH   4  12
ATOM     12  C   UNL     1       5.367  -6.105  23.046  0.00  0.00    +0.372 C 
ATOM     13  O   UNL     1       5.029  -5.887  21.897  0.00  0.00    -0.242 OA
BRANCH  12  14
ATOM     14  O   UNL     1       4.917  -7.152  23.771  0.00  0.00    -0.475 OA
ATOM     15  H   UNL     1       4.034  -7.446  23.471  0.00  0.00    +0.296 HD
ENDBRANCH  12  14
ENDBRANCH   4  12
BRANCH   6  16
ATOM     16  O   UNL     1       9.630  -5.462  24.631  0.00  0.00    -0.386 OA
ATOM     17  H   UNL     1       9.217  -6.342  24.649  0.00  0.00    +0.210 HD
ENDBRANCH   6  16
BRANCH   2  18
ATOM     18  C   UNL     1       6.710  -4.575  27.150  0.00  0.00    +0.187 C 
BRANCH  18  19
ATOM     19  O   UNL     1       7.882  -5.386  27.262  0.00  0.00    -0.385 OA
ATOM     20  H   UNL     1       8.113  -5.680  26.359  0.00  0.00    +0.210 HD
ENDBRANCH  18  19
BRANCH  18  21
ATOM     21  C   UNL     1       5.452  -5.436  27.386  0.00  0.00    +0.172 C 
BRANCH  21  22
ATOM     22  O   UNL     1       5.637  -6.726  26.777  0.00  0.00    -0.387 OA
ATOM     23  H   UNL     1       5.219  -6.663  25.899  0.00  0.00    +0.210 HD
ENDBRANCH  21  22
BRANCH  21  24
ATOM     24  C   UNL     1       5.173  -5.611  28.891  0.00  0.00    +0.189 C 
BRANCH  24  25
ATOM     25  O   UNL     1       6.373  -5.546  29.661  0.00  0.00    -0.392 OA
ATOM     26  H   UNL     1       6.157  -5.193  30.540  0.00  0.00    +0.210 HD
ENDBRANCH  24  25
ENDBRANCH  21  24
ENDBRANCH  18  21
ENDBRANCH   2  18
TORSDOF 10
ENDMDL
MODEL 7
REMARK VINA RESULT:      -5.5      2.065      5.118
REMARK  Name = 
REMARK  11 active torsions:
REMARK  status: ('A' for Active; 'I' for Inactive)
REMARK    1  A    between atoms: C_1  and  C_2
REMARK    2  A    between atoms: N_4  and  C_5
REMARK    3  A    between atoms: C_7  and  O_9
REMARK    4  A    between atoms: C_11  and  C_23
REMARK    5  A    between atoms: C_13  and  C_15
REMARK    6  A    between atoms: C_15  and  O_17
REMARK    7  A    between atoms: C_15  and  C_18
REMARK    8  A    between atoms: C_18  and  O_20
REMARK    9  A    between atoms: C_18  and  C_21
REMARK   10  A    between atoms: C_21  and  O_22
REMARK   11  A    between atoms: C_23  and  O_24
REMARK                            x       y       z     vdW  Elec       q    Type
REMARK                         _______ _______ _______ _____ _____    ______ ____
ROOT
ATOM      1  C   UNL     1       7.450  -3.573  23.874  0.00  0.00    +0.148 C 
ATOM      2  C   UNL     1       8.845  -3.693  24.556  0.00  0.00    +0.228 C 
ATOM      3  O   UNL     1       9.748  -2.576  24.434  0.00  0.00    -0.478 OA
ATOM      4  C   UNL     1       9.242  -1.329  24.163  0.00  0.00    +0.203 C 
ATOM      5  C   UNL     1       7.978  -1.085  23.805  0.00  0.00    +0.059 C 
ATOM      6  C   UNL     1       6.954  -2.134  23.631  0.00  0.00    +0.165 C 
ENDROOT
BRANCH   1   9
ATOM      7  C   UNL     1       6.481  -5.995  21.097  0.00  0.00    +0.109 C 
ATOM      8  C   UNL     1       6.408  -5.300  22.427  0.00  0.00    +0.210 C 
ATOM      9  N   UNL     1       7.398  -4.362  22.625  0.00  0.00    -0.306 N 
ATOM     10  H   UNL     1       8.177  -4.324  21.976  0.00  0.00    +0.149 HD
ATOM     11  O   UNL     1       5.554  -5.556  23.269  0.00  0.00    -0.276 OA
ENDBRANCH   1   9
BRANCH   4  12
ATOM     12  C   UNL     1      10.155  -0.149  24.274  0.00  0.00    +0.372 C 
ATOM     13  O   UNL     1      10.738   0.375  23.342  0.00  0.00    -0.242 OA
BRANCH  12  14
ATOM     14  O   UNL     1      10.265   0.270  25.554  0.00  0.00    -0.475 OA
ATOM     15  H   UNL     1      10.203  -0.475  26.184  0.00  0.00    +0.296 HD
ENDBRANCH  12  14
ENDBRANCH   4  12
BRANCH   6  16
ATOM     16  O   UNL     1       5.874  -1.799  24.498  0.00  0.00    -0.386 OA
ATOM     17  H   UNL     1       6.055  -0.925  24.885  0.00  0.00    +0.210 HD
ENDBRANCH   6  16
BRANCH   2  18
ATOM     18  C   UNL     1       8.689  -4.112  26.043  0.00  0.00    +0.187 C 
BRANCH  18  19
ATOM     19  O   UNL     1       9.807  -4.918  26.428  0.00  0.00    -0.385 OA
ATOM     20  H   UNL     1      10.338  -4.388  27.055  0.00  0.00    +0.210 HD
ENDBRANCH  18  19
BRANCH  18  21
ATOM     21  C   UNL     1       7.376  -4.866  26.336  0.00  0.00    +0.172 C 
BRANCH  21  22
ATOM     22  O   UNL     1       7.676  -6.107  26.997  0.00  0.00    -0.387 OA
ATOM     23  H   UNL     1       7.745  -6.772  26.288  0.00  0.00    +0.210 HD
ENDBRANCH  21  22
BRANCH  21  24
ATOM     24  C   UNL     1       6.437  -4.023  27.220  0.00  0.00    +0.189 C 
BRANCH  24  25
ATOM     25  O   UNL     1       6.704  -2.626  27.091  0.00  0.00    -0.392 OA
ATOM     26  H   UNL     1       6.916  -2.271  27.969  0.00  0.00    +0.210 HD
ENDBRANCH  24  25
ENDBRANCH  21  24
ENDBRANCH  18  21
ENDBRANCH   2  18
TORSDOF 10
ENDMDL
MODEL 8
REMARK VINA RESULT:      -5.4      6.090      8.356
REMARK  Name = 
REMARK  11 active torsions:
REMARK  status: ('A' for Active; 'I' for Inactive)
REMARK    1  A    between atoms: C_1  and  C_2
REMARK    2  A    between atoms: N_4  and  C_5
REMARK    3  A    between atoms: C_7  and  O_9
REMARK    4  A    between atoms: C_11  and  C_23
REMARK    5  A    between atoms: C_13  and  C_15
REMARK    6  A    between atoms: C_15  and  O_17
REMARK    7  A    between atoms: C_15  and  C_18
REMARK    8  A    between atoms: C_18  and  O_20
REMARK    9  A    between atoms: C_18  and  C_21
REMARK   10  A    between atoms: C_21  and  O_22
REMARK   11  A    between atoms: C_23  and  O_24
REMARK                            x       y       z     vdW  Elec       q    Type
REMARK                         _______ _______ _______ _____ _____    ______ ____
ROOT
ATOM      1  C   UNL     1       9.814   2.795  23.572  0.00  0.00    +0.148 C 
ATOM      2  C   UNL     1       9.099   2.562  22.208  0.00  0.00    +0.228 C 
ATOM      3  O   UNL     1       9.120   1.229  21.660  0.00  0.00    -0.478 OA
ATOM      4  C   UNL     1       9.323   0.161  22.498  0.00  0.00    +0.203 C 
ATOM      5  C   UNL     1       9.701   0.262  23.776  0.00  0.00    +0.059 C 
ATOM      6  C   UNL     1       9.975   1.543  24.456  0.00  0.00    +0.165 C 
ENDROOT
BRANCH   1   9
ATOM      7  C   UNL     1      12.594   5.380  23.251  0.00  0.00    +0.109 C 
ATOM      8  C   UNL     1      11.201   4.849  23.434  0.00  0.00    +0.210 C 
ATOM      9  N   UNL     1      11.112   3.474  23.383  0.00  0.00    -0.306 N 
ATOM     10  H   UNL     1      11.915   2.942  23.066  0.00  0.00    +0.149 HD
ATOM     11  O   UNL     1      10.225   5.574  23.599  0.00  0.00    -0.276 OA
ENDBRANCH   1   9
BRANCH   4  12
ATOM     12  C   UNL     1       9.107  -1.219  21.962  0.00  0.00    +0.372 C 
ATOM     13  O   UNL     1       8.051  -1.823  21.993  0.00  0.00    -0.242 OA
BRANCH  12  14
ATOM     14  O   UNL     1      10.244  -1.728  21.439  0.00  0.00    -0.475 OA
ATOM     15  H   UNL     1      10.132  -1.966  20.497  0.00  0.00    +0.296 HD
ENDBRANCH  12  14
ENDBRANCH   4  12
BRANCH   6  16
ATOM     16  O   UNL     1       9.121   1.592  25.595  0.00  0.00    -0.386 OA
ATOM     17  H   UNL     1       8.678   2.458  25.605  0.00  0.00    +0.210 HD
ENDBRANCH   6  16
BRANCH   2  18
ATOM     18  C   UNL     1       7.648   3.114  22.251  0.00  0.00    +0.187 C 
BRANCH  18  19
ATOM     19  O   UNL     1       7.652   4.489  21.858  0.00  0.00    -0.385 OA
ATOM     20  H   UNL     1       8.014   4.526  20.951  0.00  0.00    +0.210 HD
ENDBRANCH  18  19
BRANCH  18  21
ATOM     21  C   UNL     1       6.975   2.967  23.632  0.00  0.00    +0.172 C 
BRANCH  21  22
ATOM     22  O   UNL     1       6.197   4.144  23.911  0.00  0.00    -0.387 OA
ATOM     23  H   UNL     1       5.324   3.819  24.196  0.00  0.00    +0.210 HD
ENDBRANCH  21  22
BRANCH  21  24
ATOM     24  C   UNL     1       6.066   1.724  23.676  0.00  0.00    +0.189 C 
BRANCH  24  25
ATOM     25  O   UNL     1       6.105   0.997  22.448  0.00  0.00    -0.392 OA
ATOM     26  H   UNL     1       6.659   0.209  22.573  0.00  0.00    +0.210 HD
ENDBRANCH  24  25
ENDBRANCH  21  24
ENDBRANCH  18  21
ENDBRANCH   2  18
TORSDOF 10
ENDMDL
MODEL 9
REMARK VINA RESULT:      -5.3      6.594      8.874
REMARK  Name = 
REMARK  11 active torsions:
REMARK  status: ('A' for Active; 'I' for Inactive)
REMARK    1  A    between atoms: C_1  and  C_2
REMARK    2  A    between atoms: N_4  and  C_5
REMARK    3  A    between atoms: C_7  and  O_9
REMARK    4  A    between atoms: C_11  and  C_23
REMARK    5  A    between atoms: C_13  and  C_15
REMARK    6  A    between atoms: C_15  and  O_17
REMARK    7  A    between atoms: C_15  and  C_18
REMARK    8  A    between atoms: C_18  and  O_20
REMARK    9  A    between atoms: C_18  and  C_21
REMARK   10  A    between atoms: C_21  and  O_22
REMARK   11  A    between atoms: C_23  and  O_24
REMARK                            x       y       z     vdW  Elec       q    Type
REMARK                         _______ _______ _______ _____ _____    ______ ____
ROOT
ATOM      1  C   UNL     1       8.914   4.488  23.540  0.00  0.00    +0.148 C 
ATOM      2  C   UNL     1       9.232   3.020  23.953  0.00  0.00    +0.228 C 
ATOM      3  O   UNL     1       8.128   2.182  24.350  0.00  0.00    -0.478 OA
ATOM      4  C   UNL     1       6.860   2.498  23.931  0.00  0.00    +0.203 C 
ATOM      5  C   UNL     1       6.523   3.645  23.332  0.00  0.00    +0.059 C 
ATOM      6  C   UNL     1       7.472   4.742  23.060  0.00  0.00    +0.165 C 
ENDROOT
BRANCH   1   9
ATOM      7  C   UNL     1      10.671   7.093  25.695  0.00  0.00    +0.109 C 
ATOM      8  C   UNL     1      10.456   6.156  24.540  0.00  0.00    +0.210 C 
ATOM      9  N   UNL     1       9.284   5.434  24.612  0.00  0.00    -0.306 N 
ATOM     10  H   UNL     1       8.753   5.444  25.477  0.00  0.00    +0.149 HD
ATOM     11  O   UNL     1      11.260   6.031  23.622  0.00  0.00    -0.276 OA
ENDBRANCH   1   9
BRANCH   4  12
ATOM     12  C   UNL     1       5.767   1.500  24.147  0.00  0.00    +0.372 C 
ATOM     13  O   UNL     1       5.935   0.331  24.440  0.00  0.00    -0.242 OA
BRANCH  12  14
ATOM     14  O   UNL     1       4.548   2.057  23.968  0.00  0.00    -0.475 OA
ATOM     15  H   UNL     1       3.831   1.446  24.227  0.00  0.00    +0.296 HD
ENDBRANCH  12  14
ENDBRANCH   4  12
BRANCH   6  16
ATOM     16  O   UNL     1       7.422   4.987  21.658  0.00  0.00    -0.386 OA
ATOM     17  H   UNL     1       6.488   5.014  21.387  0.00  0.00    +0.210 HD
ENDBRANCH   6  16
BRANCH   2  18
ATOM     18  C   UNL     1      10.086   2.319  22.862  0.00  0.00    +0.187 C 
BRANCH  18  19
ATOM     19  O   UNL     1       9.333   2.239  21.648  0.00  0.00    -0.385 OA
ATOM     20  H   UNL     1       9.975   2.261  20.912  0.00  0.00    +0.210 HD
ENDBRANCH  18  19
BRANCH  18  21
ATOM     21  C   UNL     1      10.573   0.914  23.270  0.00  0.00    +0.172 C 
BRANCH  21  22
ATOM     22  O   UNL     1      10.379   0.734  24.684  0.00  0.00    -0.387 OA
ATOM     23  H   UNL     1      10.555   1.605  25.085  0.00  0.00    +0.210 HD
ENDBRANCH  21  22
BRANCH  21  24
ATOM     24  C   UNL     1       9.813  -0.183  22.501  0.00  0.00    +0.189 C 
BRANCH  24  25
ATOM     25  O   UNL     1       8.522  -0.423  23.062  0.00  0.00    -0.392 OA
ATOM     26  H   UNL     1       8.589  -1.168  23.681  0.00  0.00    +0.210 HD
ENDBRANCH  24  25
ENDBRANCH  21  24
ENDBRANCH  18  21
ENDBRANCH   2  18
TORSDOF 10
ENDMDL
