MODEL 1
REMARK VINA RESULT:      -6.3      0.000      0.000
REMARK  Name = 
REMARK  11 active torsions:
REMARK  status: ('A' for Active; 'I' for Inactive)
REMARK    1  A    between atoms: C_1  and  N_2
REMARK    2  A    between atoms: N_2  and  C_3
REMARK    3  A    between atoms: N_2  and  C_6
REMARK    4  A    between atoms: C_3  and  C_4
REMARK    5  A    between atoms: C_4  and  O_5
REMARK    6  A    between atoms: C_6  and  C_7
REMARK    7  A    between atoms: C_7  and  O_8
REMARK    8  A    between atoms: C_7  and  C_9
REMARK    9  A    between atoms: C_9  and  N_10
REMARK   10  A    between atoms: N_17  and  C_18
REMARK   11  A    between atoms: N_21  and  C_22
REMARK                            x       y       z     vdW  Elec       q    Type
REMARK                         _______ _______ _______ _____ _____    ______ ____
ROOT
ATOM      1  N   UNL     1       9.485  -0.552  24.146  0.00  0.00    -0.322 N 
ATOM      2  C   UNL     1       8.667  -1.630  23.974  0.00  0.00    +0.152 A 
ATOM      3  C   UNL     1       8.294  -2.361  22.816  0.00  0.00    +0.282 A 
ATOM      4  N   UNL     1       7.561  -3.511  23.113  0.00  0.00    -0.262 N 
ATOM      5  C   UNL     1       7.104  -3.886  24.393  0.00  0.00    +0.333 A 
ATOM      6  N   UNL     1       7.468  -3.066  25.463  0.00  0.00    -0.280 N 
ATOM      7  C   UNL     1       7.065  -3.395  26.818  0.00  0.00    +0.155 C 
ATOM      8  O   UNL     1       6.413  -4.896  24.551  0.00  0.00    -0.246 OA
ATOM      9  C   UNL     1       7.191  -4.385  22.017  0.00  0.00    +0.157 C 
ATOM     10  O   UNL     1       8.591  -1.999  21.680  0.00  0.00    -0.265 OA
ATOM     11  C   UNL     1       8.256  -1.966  25.230  0.00  0.00    +0.168 A 
ATOM     12  N   UNL     1       8.742  -1.114  26.173  0.00  0.00    -0.218 NA
ATOM     13  C   UNL     1       9.494  -0.272  25.493  0.00  0.00    +0.202 A 
ENDROOT
BRANCH   1  14
ATOM     14  C   UNL     1      10.309   0.108  23.148  0.00  0.00    +0.156 C 
BRANCH  14  15
ATOM     15  C   UNL     1       9.897   1.579  22.960  0.00  0.00    +0.148 C 
BRANCH  15  16
ATOM     16  O   UNL     1       9.900   1.862  21.551  0.00  0.00    -0.389 OA
ATOM     17  H   UNL     1       9.711   2.805  21.427  0.00  0.00    +0.210 HD
ENDBRANCH  15  16
BRANCH  15  18
ATOM     18  C   UNL     1      10.871   2.527  23.713  0.00  0.00    +0.117 C 
BRANCH  18  20
ATOM     19  C   UNL     1       9.580   4.579  23.795  0.00  0.00    +0.105 C 
ATOM     20  N   UNL     1      10.820   3.954  23.330  0.00  0.00    -0.301 NA
BRANCH  20  21
ATOM     21  C   UNL     1      11.988   4.764  23.718  0.00  0.00    +0.112 C 
BRANCH  21  22
ATOM     22  C   UNL     1      12.950   5.190  22.594  0.00  0.00    +0.171 C 
BRANCH  22  23
ATOM     23  O   UNL     1      14.298   5.217  23.057  0.00  0.00    -0.394 OA
ATOM     24  H   UNL     1      14.429   4.433  23.622  0.00  0.00    +0.209 HD
ENDBRANCH  22  23
ENDBRANCH  21  22
ENDBRANCH  20  21
ENDBRANCH  18  20
ENDBRANCH  15  18
ENDBRANCH  14  15
ENDBRANCH   1  14
TORSDOF 8
ENDMDL
MODEL 2
REMARK VINA RESULT:      -6.3      2.789      4.647
REMARK  Name = 
REMARK  11 active torsions:
REMARK  status: ('A' for Active; 'I' for Inactive)
REMARK    1  A    between atoms: C_1  and  N_2
REMARK    2  A    between atoms: N_2  and  C_3
REMARK    3  A    between atoms: N_2  and  C_6
REMARK    4  A    between atoms: C_3  and  C_4
REMARK    5  A    between atoms: C_4  and  O_5
REMARK    6  A    between atoms: C_6  and  C_7
REMARK    7  A    between atoms: C_7  and  O_8
REMARK    8  A    between atoms: C_7  and  C_9
REMARK    9  A    between atoms: C_9  and  N_10
REMARK   10  A    between atoms: N_17  and  C_18
REMARK   11  A    between atoms: N_21  and  C_22
REMARK                            x       y       z     vdW  Elec       q    Type
REMARK                         _______ _______ _______ _____ _____    ______ ____
ROOT
ATOM      1  N   UNL     1       7.932  -4.769  25.360  0.00  0.00    -0.322 N 
ATOM      2  C   UNL     1       6.667  -5.278  25.330  0.00  0.00    +0.152 A 
ATOM      3  C   UNL     1       5.720  -5.403  24.280  0.00  0.00    +0.282 A 
ATOM      4  N   UNL     1       4.596  -6.144  24.649  0.00  0.00    -0.262 N 
ATOM      5  C   UNL     1       4.322  -6.630  25.944  0.00  0.00    +0.333 A 
ATOM      6  N   UNL     1       5.286  -6.400  26.927  0.00  0.00    -0.280 N 
ATOM      7  C   UNL     1       5.096  -6.893  28.279  0.00  0.00    +0.155 C 
ATOM      8  O   UNL     1       3.271  -7.232  26.188  0.00  0.00    -0.246 OA
ATOM      9  C   UNL     1       3.594  -6.410  23.636  0.00  0.00    +0.157 C 
ATOM     10  O   UNL     1       5.889  -4.898  23.173  0.00  0.00    -0.265 OA
ATOM     11  C   UNL     1       6.444  -5.744  26.592  0.00  0.00    +0.168 A 
ATOM     12  N   UNL     1       7.497  -5.504  27.420  0.00  0.00    -0.218 NA
ATOM     13  C   UNL     1       8.392  -4.923  26.647  0.00  0.00    +0.202 A 
ENDROOT
BRANCH   1  14
ATOM     14  C   UNL     1       8.721  -4.283  24.241  0.00  0.00    +0.156 C 
BRANCH  14  15
ATOM     15  C   UNL     1       8.473  -2.786  23.984  0.00  0.00    +0.148 C 
BRANCH  15  16
ATOM     16  O   UNL     1       7.762  -2.662  22.742  0.00  0.00    -0.389 OA
ATOM     17  H   UNL     1       8.349  -2.243  22.093  0.00  0.00    +0.210 HD
ENDBRANCH  15  16
BRANCH  15  18
ATOM     18  C   UNL     1       9.815  -2.003  23.931  0.00  0.00    +0.117 C 
BRANCH  18  20
ATOM     19  C   UNL     1      10.470   0.189  24.734  0.00  0.00    +0.105 C 
ATOM     20  N   UNL     1       9.712  -0.544  23.718  0.00  0.00    -0.301 NA
BRANCH  20  21
ATOM     21  C   UNL     1      10.055  -0.066  22.367  0.00  0.00    +0.112 C 
BRANCH  21  22
ATOM     22  C   UNL     1       9.298   1.169  21.847  0.00  0.00    +0.171 C 
BRANCH  22  23
ATOM     23  O   UNL     1      10.198   2.235  21.554  0.00  0.00    -0.394 OA
ATOM     24  H   UNL     1      10.744   1.957  20.796  0.00  0.00    +0.209 HD
ENDBRANCH  22  23
ENDBRANCH  21  22
ENDBRANCH  20  21
ENDBRANCH  18  20
ENDBRANCH  15  18
ENDBRANCH  14  15
ENDBRANCH   1  14
TORSDOF 8
ENDMDL
MODEL 3
REMARK VINA RESULT:      -6.2      2.797      4.178
REMARK  Name = 
REMARK  11 active torsions:
REMARK  status: ('A' for Active; 'I' for Inactive)
REMARK    1  A    between atoms: C_1  and  N_2
REMARK    2  A    between atoms: N_2  and  C_3
REMARK    3  A    between atoms: N_2  and  C_6
REMARK    4  A    between atoms: C_3  and  C_4
REMARK    5  A    between atoms: C_4  and  O_5
REMARK    6  A    between atoms: C_6  and  C_7
REMARK    7  A    between atoms: C_7  and  O_8
REMARK    8  A    between atoms: C_7  and  C_9
REMARK    9  A    between atoms: C_9  and  N_10
REMARK   10  A    between atoms: N_17  and  C_18
REMARK   11  A    between atoms: N_21  and  C_22
REMARK                            x       y       z     vdW  Elec       q    Type
REMARK                         _______ _______ _______ _____ _____    ______ ____
ROOT
ATOM      1  N   UNL     1       6.719  -2.853  22.868  0.00  0.00    -0.322 N 
ATOM      2  C   UNL     1       6.671  -3.797  23.852  0.00  0.00    +0.152 A 
ATOM      3  C   UNL     1       7.478  -4.012  25.000  0.00  0.00    +0.282 A 
ATOM      4  N   UNL     1       6.971  -5.002  25.842  0.00  0.00    -0.262 N 
ATOM      5  C   UNL     1       5.853  -5.818  25.570  0.00  0.00    +0.333 A 
ATOM      6  N   UNL     1       5.161  -5.573  24.383  0.00  0.00    -0.280 N 
ATOM      7  C   UNL     1       3.981  -6.347  24.041  0.00  0.00    +0.155 C 
ATOM      8  O   UNL     1       5.510  -6.708  26.354  0.00  0.00    -0.246 OA
ATOM      9  C   UNL     1       7.664  -5.257  27.089  0.00  0.00    +0.157 C 
ATOM     10  O   UNL     1       8.514  -3.385  25.207  0.00  0.00    -0.265 OA
ATOM     11  C   UNL     1       5.576  -4.556  23.560  0.00  0.00    +0.168 A 
ATOM     12  N   UNL     1       4.969  -4.158  22.409  0.00  0.00    -0.218 NA
ATOM     13  C   UNL     1       5.673  -3.117  22.014  0.00  0.00    +0.202 A 
ENDROOT
BRANCH   1  14
ATOM     14  C   UNL     1       7.601  -1.702  22.783  0.00  0.00    +0.156 C 
BRANCH  14  15
ATOM     15  C   UNL     1       7.040  -0.502  23.568  0.00  0.00    +0.148 C 
BRANCH  15  16
ATOM     16  O   UNL     1       6.422   0.391  22.626  0.00  0.00    -0.389 OA
ATOM     17  H   UNL     1       5.480   0.167  22.565  0.00  0.00    +0.210 HD
ENDBRANCH  15  16
BRANCH  15  18
ATOM     18  C   UNL     1       8.167   0.222  24.355  0.00  0.00    +0.117 C 
BRANCH  18  20
ATOM     19  C   UNL     1       8.339   2.530  25.077  0.00  0.00    +0.105 C 
ATOM     20  N   UNL     1       8.463   1.610  23.944  0.00  0.00    -0.301 NA
BRANCH  20  21
ATOM     21  C   UNL     1       9.745   1.813  23.247  0.00  0.00    +0.112 C 
BRANCH  21  22
ATOM     22  C   UNL     1       9.905   1.150  21.867  0.00  0.00    +0.171 C 
BRANCH  22  23
ATOM     23  O   UNL     1       8.791   1.442  21.027  0.00  0.00    -0.394 OA
ATOM     24  H   UNL     1       8.905   0.934  20.203  0.00  0.00    +0.209 HD
ENDBRANCH  22  23
ENDBRANCH  21  22
ENDBRANCH  20  21
ENDBRANCH  18  20
ENDBRANCH  15  18
ENDBRANCH  14  15
ENDBRANCH   1  14
TORSDOF 8
ENDMDL
MODEL 4
REMARK VINA RESULT:      -6.2      2.871      4.824
REMARK  Name = 
REMARK  11 active torsions:
REMARK  status: ('A' for Active; 'I' for Inactive)
REMARK    1  A    between atoms: C_1  and  N_2
REMARK    2  A    between atoms: N_2  and  C_3
REMARK    3  A    between atoms: N_2  and  C_6
REMARK    4  A    between atoms: C_3  and  C_4
REMARK    5  A    between atoms: C_4  and  O_5
REMARK    6  A    between atoms: C_6  and  C_7
REMARK    7  A    between atoms: C_7  and  O_8
REMARK    8  A    between atoms: C_7  and  C_9
REMARK    9  A    between atoms: C_9  and  N_10
REMARK   10  A    between atoms: N_17  and  C_18
REMARK   11  A    between atoms: N_21  and  C_22
REMARK                            x       y       z     vdW  Elec       q    Type
REMARK                         _______ _______ _______ _____ _____    ______ ____
ROOT
ATOM      1  N   UNL     1       8.223  -4.217  24.216  0.00  0.00    -0.322 N 
ATOM      2  C   UNL     1       7.399  -4.917  25.048  0.00  0.00    +0.152 A 
ATOM      3  C   UNL     1       7.457  -5.175  26.443  0.00  0.00    +0.282 A 
ATOM      4  N   UNL     1       6.307  -5.800  26.927  0.00  0.00    -0.262 N 
ATOM      5  C   UNL     1       5.231  -6.262  26.142  0.00  0.00    +0.333 A 
ATOM      6  N   UNL     1       5.296  -6.020  24.768  0.00  0.00    -0.280 N 
ATOM      7  C   UNL     1       4.216  -6.435  23.892  0.00  0.00    +0.155 C 
ATOM      8  O   UNL     1       4.277  -6.855  26.655  0.00  0.00    -0.246 OA
ATOM      9  C   UNL     1       6.213  -6.042  28.353  0.00  0.00    +0.157 C 
ATOM     10  O   UNL     1       8.429  -4.875  27.131  0.00  0.00    -0.265 OA
ATOM     11  C   UNL     1       6.371  -5.337  24.257  0.00  0.00    +0.168 A 
ATOM     12  N   UNL     1       6.544  -4.972  22.957  0.00  0.00    -0.218 NA
ATOM     13  C   UNL     1       7.667  -4.284  22.960  0.00  0.00    +0.202 A 
ENDROOT
BRANCH   1  14
ATOM     14  C   UNL     1       9.389  -3.428  24.577  0.00  0.00    +0.156 C 
BRANCH  14  15
ATOM     15  C   UNL     1       9.503  -2.162  23.710  0.00  0.00    +0.148 C 
BRANCH  15  16
ATOM     16  O   UNL     1      10.606  -2.342  22.807  0.00  0.00    -0.389 OA
ATOM     17  H   UNL     1      10.296  -2.852  22.043  0.00  0.00    +0.210 HD
ENDBRANCH  15  16
BRANCH  15  18
ATOM     18  C   UNL     1       9.715  -0.902  24.595  0.00  0.00    +0.117 C 
BRANCH  18  20
ATOM     19  C   UNL     1      10.014   1.453  24.099  0.00  0.00    +0.105 C 
ATOM     20  N   UNL     1       9.062   0.340  24.131  0.00  0.00    -0.301 NA
BRANCH  20  21
ATOM     21  C   UNL     1       8.332   0.243  22.855  0.00  0.00    +0.112 C 
BRANCH  21  22
ATOM     22  C   UNL     1       9.083   0.676  21.583  0.00  0.00    +0.171 C 
BRANCH  22  23
ATOM     23  O   UNL     1       9.489  -0.455  20.818  0.00  0.00    -0.394 OA
ATOM     24  H   UNL     1       8.686  -0.851  20.433  0.00  0.00    +0.209 HD
ENDBRANCH  22  23
ENDBRANCH  21  22
ENDBRANCH  20  21
ENDBRANCH  18  20
ENDBRANCH  15  18
ENDBRANCH  14  15
ENDBRANCH   1  14
TORSDOF 8
ENDMDL
MODEL 5
REMARK VINA RESULT:      -6.2      2.470      3.434
REMARK  Name = 
REMARK  11 active torsions:
REMARK  status: ('A' for Active; 'I' for Inactive)
REMARK    1  A    between atoms: C_1  and  N_2
REMARK    2  A    between atoms: N_2  and  C_3
REMARK    3  A    between atoms: N_2  and  C_6
REMARK    4  A    between atoms: C_3  and  C_4
REMARK    5  A    between atoms: C_4  and  O_5
REMARK    6  A    between atoms: C_6  and  C_7
REMARK    7  A    between atoms: C_7  and  O_8
REMARK    8  A    between atoms: C_7  and  C_9
REMARK    9  A    between atoms: C_9  and  N_10
REMARK   10  A    between atoms: N_17  and  C_18
REMARK   11  A    between atoms: N_21  and  C_22
REMARK                            x       y       z     vdW  Elec       q    Type
REMARK                         _______ _______ _______ _____ _____    ______ ____
ROOT
ATOM      1  N   UNL     1       8.683  -3.371  24.841  0.00  0.00    -0.322 N 
ATOM      2  C   UNL     1       7.632  -4.131  24.419  0.00  0.00    +0.152 A 
ATOM      3  C   UNL     1       7.173  -4.477  23.121  0.00  0.00    +0.282 A 
ATOM      4  N   UNL     1       6.150  -5.426  23.142  0.00  0.00    -0.262 N 
ATOM      5  C   UNL     1       5.517  -5.926  24.300  0.00  0.00    +0.333 A 
ATOM      6  N   UNL     1       5.997  -5.475  25.531  0.00  0.00    -0.280 N 
ATOM      7  C   UNL     1       5.422  -5.962  26.772  0.00  0.00    +0.155 C 
ATOM      8  O   UNL     1       4.580  -6.725  24.217  0.00  0.00    -0.246 OA
ATOM      9  C   UNL     1       5.653  -5.921  21.874  0.00  0.00    +0.157 C 
ATOM     10  O   UNL     1       7.637  -3.977  22.100  0.00  0.00    -0.265 OA
ATOM     11  C   UNL     1       7.055  -4.601  25.561  0.00  0.00    +0.168 A 
ATOM     12  N   UNL     1       7.670  -4.126  26.678  0.00  0.00    -0.218 NA
ATOM     13  C   UNL     1       8.662  -3.392  26.216  0.00  0.00    +0.202 A 
ENDROOT
BRANCH   1  14
ATOM     14  C   UNL     1       9.721  -2.759  24.028  0.00  0.00    +0.156 C 
BRANCH  14  15
ATOM     15  C   UNL     1       9.272  -1.397  23.471  0.00  0.00    +0.148 C 
BRANCH  15  16
ATOM     16  O   UNL     1       9.300  -1.475  22.036  0.00  0.00    -0.389 OA
ATOM     17  H   UNL     1       9.256  -0.574  21.680  0.00  0.00    +0.210 HD
ENDBRANCH  15  16
BRANCH  15  18
ATOM     18  C   UNL     1      10.200  -0.258  23.979  0.00  0.00    +0.117 C 
BRANCH  18  20
ATOM     19  C   UNL     1      10.559   2.138  23.872  0.00  0.00    +0.105 C 
ATOM     20  N   UNL     1       9.580   1.076  24.119  0.00  0.00    -0.301 NA
BRANCH  20  21
ATOM     21  C   UNL     1       8.357   1.302  23.328  0.00  0.00    +0.112 C 
BRANCH  21  22
ATOM     22  C   UNL     1       8.504   2.110  22.026  0.00  0.00    +0.171 C 
BRANCH  22  23
ATOM     23  O   UNL     1       8.855   1.263  20.935  0.00  0.00    -0.394 OA
ATOM     24  H   UNL     1       8.230   1.446  20.210  0.00  0.00    +0.209 HD
ENDBRANCH  22  23
ENDBRANCH  21  22
ENDBRANCH  20  21
ENDBRANCH  18  20
ENDBRANCH  15  18
ENDBRANCH  14  15
ENDBRANCH   1  14
TORSDOF 8
ENDMDL
MODEL 6
REMARK VINA RESULT:      -6.0      1.960      2.547
REMARK  Name = 
REMARK  11 active torsions:
REMARK  status: ('A' for Active; 'I' for Inactive)
REMARK    1  A    between atoms: C_1  and  N_2
REMARK    2  A    between atoms: N_2  and  C_3
REMARK    3  A    between atoms: N_2  and  C_6
REMARK    4  A    between atoms: C_3  and  C_4
REMARK    5  A    between atoms: C_4  and  O_5
REMARK    6  A    between atoms: C_6  and  C_7
REMARK    7  A    between atoms: C_7  and  O_8
REMARK    8  A    between atoms: C_7  and  C_9
REMARK    9  A    between atoms: C_9  and  N_10
REMARK   10  A    between atoms: N_17  and  C_18
REMARK   11  A    between atoms: N_21  and  C_22
REMARK                            x       y       z     vdW  Elec       q    Type
REMARK                         _______ _______ _______ _____ _____    ______ ____
ROOT
ATOM      1  N   UNL     1       9.418  -0.650  23.590  0.00  0.00    -0.322 N 
ATOM      2  C   UNL     1       8.712  -1.300  24.559  0.00  0.00    +0.152 A 
ATOM      3  C   UNL     1       7.708  -0.856  25.460  0.00  0.00    +0.282 A 
ATOM      4  N   UNL     1       7.124  -1.900  26.179  0.00  0.00    -0.262 N 
ATOM      5  C   UNL     1       7.534  -3.249  26.147  0.00  0.00    +0.333 A 
ATOM      6  N   UNL     1       8.575  -3.577  25.276  0.00  0.00    -0.280 N 
ATOM      7  C   UNL     1       9.038  -4.948  25.159  0.00  0.00    +0.155 C 
ATOM      8  O   UNL     1       6.990  -4.096  26.862  0.00  0.00    -0.246 OA
ATOM      9  C   UNL     1       6.029  -1.582  27.073  0.00  0.00    +0.157 C 
ATOM     10  O   UNL     1       7.405   0.328  25.582  0.00  0.00    -0.265 OA
ATOM     11  C   UNL     1       9.128  -2.597  24.490  0.00  0.00    +0.168 A 
ATOM     12  N   UNL     1      10.098  -2.773  23.553  0.00  0.00    -0.218 NA
ATOM     13  C   UNL     1      10.249  -1.581  23.012  0.00  0.00    +0.202 A 
ENDROOT
BRANCH   1  14
ATOM     14  C   UNL     1       9.251   0.721  23.136  0.00  0.00    +0.156 C 
BRANCH  14  15
ATOM     15  C   UNL     1      10.224   1.674  23.852  0.00  0.00    +0.148 C 
BRANCH  15  16
ATOM     16  O   UNL     1      10.544   1.101  25.130  0.00  0.00    -0.389 OA
ATOM     17  H   UNL     1      11.467   0.804  25.110  0.00  0.00    +0.210 HD
ENDBRANCH  15  16
BRANCH  15  18
ATOM     18  C   UNL     1       9.593   3.084  24.023  0.00  0.00    +0.117 C 
BRANCH  18  20
ATOM     19  C   UNL     1      10.000   5.474  24.092  0.00  0.00    +0.105 C 
ATOM     20  N   UNL     1      10.344   4.212  23.432  0.00  0.00    -0.301 NA
BRANCH  20  21
ATOM     21  C   UNL     1      11.806   4.043  23.362  0.00  0.00    +0.112 C 
BRANCH  21  22
ATOM     22  C   UNL     1      12.661   5.323  23.373  0.00  0.00    +0.171 C 
BRANCH  22  23
ATOM     23  O   UNL     1      14.042   5.018  23.203  0.00  0.00    -0.394 OA
ATOM     24  H   UNL     1      14.500   5.847  22.975  0.00  0.00    +0.209 HD
ENDBRANCH  22  23
ENDBRANCH  21  22
ENDBRANCH  20  21
ENDBRANCH  18  20
ENDBRANCH  15  18
ENDBRANCH  14  15
ENDBRANCH   1  14
TORSDOF 8
ENDMDL
MODEL 7
REMARK VINA RESULT:      -6.0      2.930      4.466
REMARK  Name = 
REMARK  11 active torsions:
REMARK  status: ('A' for Active; 'I' for Inactive)
REMARK    1  A    between atoms: C_1  and  N_2
REMARK    2  A    between atoms: N_2  and  C_3
REMARK    3  A    between atoms: N_2  and  C_6
REMARK    4  A    between atoms: C_3  and  C_4
REMARK    5  A    between atoms: C_4  and  O_5
REMARK    6  A    between atoms: C_6  and  C_7
REMARK    7  A    between atoms: C_7  and  O_8
REMARK    8  A    between atoms: C_7  and  C_9
REMARK    9  A    between atoms: C_9  and  N_10
REMARK   10  A    between atoms: N_17  and  C_18
REMARK   11  A    between atoms: N_21  and  C_22
REMARK                            x       y       z     vdW  Elec       q    Type
REMARK                         _______ _______ _______ _____ _____    ______ ____
ROOT
ATOM      1  N   UNL     1       7.872  -3.597  23.301  0.00  0.00    -0.322 N 
ATOM      2  C   UNL     1       7.322  -4.392  24.263  0.00  0.00    +0.152 A 
ATOM      3  C   UNL     1       7.655  -4.598  25.627  0.00  0.00    +0.282 A 
ATOM      4  N   UNL     1       6.717  -5.380  26.303  0.00  0.00    -0.262 N 
ATOM      5  C   UNL     1       5.609  -6.025  25.714  0.00  0.00    +0.333 A 
ATOM      6  N   UNL     1       5.402  -5.815  24.349  0.00  0.00    -0.280 N 
ATOM      7  C   UNL     1       4.269  -6.417  23.672  0.00  0.00    +0.155 C 
ATOM      8  O   UNL     1       4.862  -6.744  26.384  0.00  0.00    -0.246 OA
ATOM      9  C   UNL     1       6.905  -5.594  27.724  0.00  0.00    +0.157 C 
ATOM     10  O   UNL     1       8.671  -4.132  26.138  0.00  0.00    -0.265 OA
ATOM     11  C   UNL     1       6.254  -4.988  23.660  0.00  0.00    +0.168 A 
ATOM     12  N   UNL     1       6.144  -4.637  22.350  0.00  0.00    -0.218 NA
ATOM     13  C   UNL     1       7.129  -3.783  22.159  0.00  0.00    +0.202 A 
ENDROOT
BRANCH   1  14
ATOM     14  C   UNL     1       8.944  -2.627  23.455  0.00  0.00    +0.156 C 
BRANCH  14  15
ATOM     15  C   UNL     1       9.064  -1.718  22.219  0.00  0.00    +0.148 C 
BRANCH  15  16
ATOM     16  O   UNL     1      10.396  -1.857  21.697  0.00  0.00    -0.389 OA
ATOM     17  H   UNL     1      10.437  -2.674  21.175  0.00  0.00    +0.210 HD
ENDBRANCH  15  16
BRANCH  15  18
ATOM     18  C   UNL     1       8.769  -0.238  22.588  0.00  0.00    +0.117 C 
BRANCH  18  20
ATOM     19  C   UNL     1       9.872   1.854  22.050  0.00  0.00    +0.105 C 
ATOM     20  N   UNL     1       9.946   0.620  22.837  0.00  0.00    -0.301 NA
BRANCH  20  21
ATOM     21  C   UNL     1      10.232   0.922  24.251  0.00  0.00    +0.112 C 
BRANCH  21  22
ATOM     22  C   UNL     1       9.079   0.736  25.254  0.00  0.00    +0.171 C 
BRANCH  22  23
ATOM     23  O   UNL     1       9.458  -0.141  26.312  0.00  0.00    -0.394 OA
ATOM     24  H   UNL     1       9.342   0.343  27.149  0.00  0.00    +0.209 HD
ENDBRANCH  22  23
ENDBRANCH  21  22
ENDBRANCH  20  21
ENDBRANCH  18  20
ENDBRANCH  15  18
ENDBRANCH  14  15
ENDBRANCH   1  14
TORSDOF 8
ENDMDL
MODEL 8
REMARK VINA RESULT:      -5.9      2.711      6.973
REMARK  Name = 
REMARK  11 active torsions:
REMARK  status: ('A' for Active; 'I' for Inactive)
REMARK    1  A    between atoms: C_1  and  N_2
REMARK    2  A    between atoms: N_2  and  C_3
REMARK    3  A    between atoms: N_2  and  C_6
REMARK    4  A    between atoms: C_3  and  C_4
REMARK    5  A    between atoms: C_4  and  O_5
REMARK    6  A    between atoms: C_6  and  C_7
REMARK    7  A    between atoms: C_7  and  O_8
REMARK    8  A    between atoms: C_7  and  C_9
REMARK    9  A    between atoms: C_9  and  N_10
REMARK   10  A    between atoms: N_17  and  C_18
REMARK   11  A    between atoms: N_21  and  C_22
REMARK                            x       y       z     vdW  Elec       q    Type
REMARK                         _______ _______ _______ _____ _____    ______ ____
ROOT
ATOM      1  N   UNL     1       9.172  -2.186  25.077  0.00  0.00    -0.322 N 
ATOM      2  C   UNL     1       9.199  -0.903  24.616  0.00  0.00    +0.152 A 
ATOM      3  C   UNL     1       9.809  -0.318  23.474  0.00  0.00    +0.282 A 
ATOM      4  N   UNL     1       9.442   1.015  23.286  0.00  0.00    -0.262 N 
ATOM      5  C   UNL     1       8.656   1.783  24.170  0.00  0.00    +0.333 A 
ATOM      6  N   UNL     1       8.155   1.136  25.302  0.00  0.00    -0.280 N 
ATOM      7  C   UNL     1       7.312   1.845  26.247  0.00  0.00    +0.155 C 
ATOM      8  O   UNL     1       8.428   2.975  23.946  0.00  0.00    -0.246 OA
ATOM      9  C   UNL     1       9.936   1.698  22.107  0.00  0.00    +0.157 C 
ATOM     10  O   UNL     1      10.581  -0.938  22.747  0.00  0.00    -0.265 OA
ATOM     11  C   UNL     1       8.424  -0.197  25.488  0.00  0.00    +0.168 A 
ATOM     12  N   UNL     1       7.955  -0.976  26.501  0.00  0.00    -0.218 NA
ATOM     13  C   UNL     1       8.412  -2.180  26.223  0.00  0.00    +0.202 A 
ENDROOT
BRANCH   1  14
ATOM     14  C   UNL     1       9.710  -3.374  24.434  0.00  0.00    +0.156 C 
BRANCH  14  15
ATOM     15  C   UNL     1       9.085  -4.658  25.008  0.00  0.00    +0.148 C 
BRANCH  15  16
ATOM     16  O   UNL     1      10.151  -5.580  25.288  0.00  0.00    -0.389 OA
ATOM     17  H   UNL     1      10.971  -5.075  25.404  0.00  0.00    +0.210 HD
ENDBRANCH  15  16
BRANCH  15  18
ATOM     18  C   UNL     1       8.070  -5.276  24.007  0.00  0.00    +0.117 C 
BRANCH  18  20
ATOM     19  C   UNL     1       6.398  -5.430  25.756  0.00  0.00    +0.105 C 
ATOM     20  N   UNL     1       6.640  -5.119  24.346  0.00  0.00    -0.301 NA
BRANCH  20  21
ATOM     21  C   UNL     1       6.035  -3.824  23.987  0.00  0.00    +0.112 C 
BRANCH  21  22
ATOM     22  C   UNL     1       4.876  -3.849  22.975  0.00  0.00    +0.171 C 
BRANCH  22  23
ATOM     23  O   UNL     1       5.340  -3.568  21.657  0.00  0.00    -0.394 OA
ATOM     24  H   UNL     1       6.183  -3.086  21.741  0.00  0.00    +0.209 HD
ENDBRANCH  22  23
ENDBRANCH  21  22
ENDBRANCH  20  21
ENDBRANCH  18  20
ENDBRANCH  15  18
ENDBRANCH  14  15
ENDBRANCH   1  14
TORSDOF 8
ENDMDL
MODEL 9
REMARK VINA RESULT:      -5.9      2.663      3.997
REMARK  Name = 
REMARK  11 active torsions:
REMARK  status: ('A' for Active; 'I' for Inactive)
REMARK    1  A    between atoms: C_1  and  N_2
REMARK    2  A    between atoms: N_2  and  C_3
REMARK    3  A    between atoms: N_2  and  C_6
REMARK    4  A    between atoms: C_3  and  C_4
REMARK    5  A    between atoms: C_4  and  O_5
REMARK    6  A    between atoms: C_6  and  C_7
REMARK    7  A    between atoms: C_7  and  O_8
REMARK    8  A    between atoms: C_7  and  C_9
REMARK    9  A    between atoms: C_9  and  N_10
REMARK   10  A    between atoms: N_17  and  C_18
REMARK   11  A    between atoms: N_21  and  C_22
REMARK                            x       y       z     vdW  Elec       q    Type
REMARK                         _______ _______ _______ _____ _____    ______ ____
ROOT
ATOM      1  N   UNL     1       7.932  -2.361  22.442  0.00  0.00    -0.322 N 
ATOM      2  C   UNL     1       7.922  -3.222  23.500  0.00  0.00    +0.152 A 
ATOM      3  C   UNL     1       8.960  -3.697  24.344  0.00  0.00    +0.282 A 
ATOM      4  N   UNL     1       8.483  -4.443  25.423  0.00  0.00    -0.262 N 
ATOM      5  C   UNL     1       7.140  -4.820  25.630  0.00  0.00    +0.333 A 
ATOM      6  N   UNL     1       6.199  -4.357  24.708  0.00  0.00    -0.280 N 
ATOM      7  C   UNL     1       4.792  -4.674  24.864  0.00  0.00    +0.155 C 
ATOM      8  O   UNL     1       6.819  -5.529  26.589  0.00  0.00    -0.246 OA
ATOM      9  C   UNL     1       9.441  -4.914  26.402  0.00  0.00    +0.157 C 
ATOM     10  O   UNL     1      10.147  -3.469  24.126  0.00  0.00    -0.265 OA
ATOM     11  C   UNL     1       6.612  -3.554  23.674  0.00  0.00    +0.168 A 
ATOM     12  N   UNL     1       5.809  -2.977  22.738  0.00  0.00    -0.218 NA
ATOM     13  C   UNL     1       6.630  -2.249  22.010  0.00  0.00    +0.202 A 
ENDROOT
BRANCH   1  14
ATOM     14  C   UNL     1       9.053  -1.589  21.933  0.00  0.00    +0.156 C 
BRANCH  14  15
ATOM     15  C   UNL     1       8.981  -0.122  22.390  0.00  0.00    +0.148 C 
BRANCH  15  16
ATOM     16  O   UNL     1       9.104   0.710  21.224  0.00  0.00    -0.389 OA
ATOM     17  H   UNL     1       9.503   0.185  20.513  0.00  0.00    +0.210 HD
ENDBRANCH  15  16
BRANCH  15  18
ATOM     18  C   UNL     1      10.106   0.196  23.414  0.00  0.00    +0.117 C 
BRANCH  18  20
ATOM     19  C   UNL     1       9.404   2.336  24.312  0.00  0.00    +0.105 C 
ATOM     20  N   UNL     1       9.696   0.936  24.626  0.00  0.00    -0.301 NA
BRANCH  20  21
ATOM     21  C   UNL     1       8.596   0.336  25.403  0.00  0.00    +0.112 C 
BRANCH  21  22
ATOM     22  C   UNL     1       8.965  -0.790  26.385  0.00  0.00    +0.171 C 
BRANCH  22  23
ATOM     23  O   UNL     1       9.027  -0.303  27.723  0.00  0.00    -0.394 OA
ATOM     24  H   UNL     1       8.978  -1.073  28.317  0.00  0.00    +0.209 HD
ENDBRANCH  22  23
ENDBRANCH  21  22
ENDBRANCH  20  21
ENDBRANCH  18  20
ENDBRANCH  15  18
ENDBRANCH  14  15
ENDBRANCH   1  14
TORSDOF 8
ENDMDL
