MODEL 1
REMARK VINA RESULT:      -4.8      0.000      0.000
REMARK  Name = 
REMARK  6 active torsions:
REMARK  status: ('A' for Active; 'I' for Inactive)
REMARK    1  A    between atoms: C_1  and  O_2
REMARK    2  A    between atoms: O_2  and  C_3
REMARK    3  A    between atoms: C_3  and  C_4
REMARK    4  A    between atoms: C_4  and  O_5
REMARK    5  A    between atoms: O_5  and  C_6
REMARK    6  A    between atoms: C_11  and  C_12
REMARK                            x       y       z     vdW  Elec       q    Type
REMARK                         _______ _______ _______ _____ _____    ______ ____
ROOT
ATOM      1  C   UNL     1       7.640  -4.557  23.694  0.00  0.00    +0.219 A 
ATOM      2  C   UNL     1       6.508  -4.874  24.405  0.00  0.00    +0.090 A 
ATOM      3  C   UNL     1       6.727  -5.432  25.646  0.00  0.00    +0.047 A 
ATOM      4  C   UNL     1       5.573  -5.836  26.513  0.00  0.00    +0.066 C 
ATOM      5  N   UNL     1       7.967  -5.638  26.136  0.00  0.00    -0.220 NA
ATOM      6  C   UNL     1       8.995  -5.265  25.371  0.00  0.00    +0.216 A 
ATOM      7  N   UNL     1      10.269  -5.485  25.851  0.00  0.00    -0.327 N 
ATOM      8  H   UNL     1      10.252  -6.242  26.519  0.00  0.00    +0.145 HD
ATOM      9  H   UNL     1      10.910  -5.563  25.075  0.00  0.00    +0.145 HD
ATOM     10  N   UNL     1       8.887  -4.745  24.152  0.00  0.00    -0.180 NA
ENDROOT
BRANCH   1  11
ATOM     11  O   UNL     1       7.455  -4.022  22.430  0.00  0.00    -0.474 OA
BRANCH  11  12
ATOM     12  C   UNL     1       6.802  -2.749  22.472  0.00  0.00    +0.258 C 
BRANCH  12  13
ATOM     13  C   UNL     1       7.837  -1.650  22.687  0.00  0.00    +0.200 C 
BRANCH  13  15
ATOM     14  C   UNL     1      10.185  -1.546  22.484  0.00  0.00    +0.194 C 
ATOM     15  O   UNL     1       8.966  -1.907  21.853  0.00  0.00    -0.380 OA
ENDBRANCH  13  15
ENDBRANCH  12  13
ENDBRANCH  11  12
ENDBRANCH   1  11
TORSDOF 4
ENDMDL
MODEL 2
REMARK VINA RESULT:      -4.8      1.991      2.718
REMARK  Name = 
REMARK  6 active torsions:
REMARK  status: ('A' for Active; 'I' for Inactive)
REMARK    1  A    between atoms: C_1  and  O_2
REMARK    2  A    between atoms: O_2  and  C_3
REMARK    3  A    between atoms: C_3  and  C_4
REMARK    4  A    between atoms: C_4  and  O_5
REMARK    5  A    between atoms: O_5  and  C_6
REMARK    6  A    between atoms: C_11  and  C_12
REMARK                            x       y       z     vdW  Elec       q    Type
REMARK                         _______ _______ _______ _____ _____    ______ ____
ROOT
ATOM      1  C   UNL     1       8.958  -2.846  23.707  0.00  0.00    +0.219 A 
ATOM      2  C   UNL     1       7.915  -3.406  23.010  0.00  0.00    +0.090 A 
ATOM      3  C   UNL     1       7.709  -4.751  23.232  0.00  0.00    +0.047 A 
ATOM      4  C   UNL     1       6.612  -5.482  22.520  0.00  0.00    +0.066 C 
ATOM      5  N   UNL     1       8.470  -5.465  24.088  0.00  0.00    -0.220 NA
ATOM      6  C   UNL     1       9.438  -4.812  24.735  0.00  0.00    +0.216 A 
ATOM      7  N   UNL     1      10.235  -5.532  25.600  0.00  0.00    -0.327 N 
ATOM      8  H   UNL     1      10.234  -6.505  25.329  0.00  0.00    +0.145 HD
ATOM      9  H   UNL     1      11.130  -5.074  25.689  0.00  0.00    +0.145 HD
ATOM     10  N   UNL     1       9.731  -3.526  24.568  0.00  0.00    -0.180 NA
ENDROOT
BRANCH   1  11
ATOM     11  O   UNL     1       9.209  -1.503  23.484  0.00  0.00    -0.474 OA
BRANCH  11  12
ATOM     12  C   UNL     1      10.096  -1.295  22.380  0.00  0.00    +0.258 C 
BRANCH  12  13
ATOM     13  C   UNL     1       9.476  -0.300  21.406  0.00  0.00    +0.200 C 
BRANCH  13  15
ATOM     14  C   UNL     1       8.806   1.902  21.927  0.00  0.00    +0.194 C 
ATOM     15  O   UNL     1       9.903   1.017  21.755  0.00  0.00    -0.380 OA
ENDBRANCH  13  15
ENDBRANCH  12  13
ENDBRANCH  11  12
ENDBRANCH   1  11
TORSDOF 4
ENDMDL
MODEL 3
REMARK VINA RESULT:      -4.7      2.186      3.001
REMARK  Name = 
REMARK  6 active torsions:
REMARK  status: ('A' for Active; 'I' for Inactive)
REMARK    1  A    between atoms: C_1  and  O_2
REMARK    2  A    between atoms: O_2  and  C_3
REMARK    3  A    between atoms: C_3  and  C_4
REMARK    4  A    between atoms: C_4  and  O_5
REMARK    5  A    between atoms: O_5  and  C_6
REMARK    6  A    between atoms: C_11  and  C_12
REMARK                            x       y       z     vdW  Elec       q    Type
REMARK                         _______ _______ _______ _____ _____    ______ ____
ROOT
ATOM      1  C   UNL     1       8.695  -2.857  23.752  0.00  0.00    +0.219 A 
ATOM      2  C   UNL     1       7.770  -3.520  22.981  0.00  0.00    +0.090 A 
ATOM      3  C   UNL     1       7.723  -4.886  23.158  0.00  0.00    +0.047 A 
ATOM      4  C   UNL     1       6.767  -5.723  22.364  0.00  0.00    +0.066 C 
ATOM      5  N   UNL     1       8.519  -5.527  24.039  0.00  0.00    -0.220 NA
ATOM      6  C   UNL     1       9.360  -4.780  24.757  0.00  0.00    +0.216 A 
ATOM      7  N   UNL     1      10.191  -5.424  25.650  0.00  0.00    -0.327 N 
ATOM      8  H   UNL     1      10.327  -6.380  25.356  0.00  0.00    +0.145 HD
ATOM      9  H   UNL     1      11.016  -4.862  25.803  0.00  0.00    +0.145 HD
ATOM     10  N   UNL     1       9.498  -3.463  24.640  0.00  0.00    -0.180 NA
ENDROOT
BRANCH   1  11
ATOM     11  O   UNL     1       8.788  -1.487  23.577  0.00  0.00    -0.474 OA
BRANCH  11  12
ATOM     12  C   UNL     1      10.119  -1.005  23.789  0.00  0.00    +0.258 C 
BRANCH  12  13
ATOM     13  C   UNL     1      10.101   0.107  24.832  0.00  0.00    +0.200 C 
BRANCH  13  15
ATOM     14  C   UNL     1      10.493   2.156  23.729  0.00  0.00    +0.194 C 
ATOM     15  O   UNL     1      11.069   1.093  24.474  0.00  0.00    -0.380 OA
ENDBRANCH  13  15
ENDBRANCH  12  13
ENDBRANCH  11  12
ENDBRANCH   1  11
TORSDOF 4
ENDMDL
MODEL 4
REMARK VINA RESULT:      -4.5      1.608      1.854
REMARK  Name = 
REMARK  6 active torsions:
REMARK  status: ('A' for Active; 'I' for Inactive)
REMARK    1  A    between atoms: C_1  and  O_2
REMARK    2  A    between atoms: O_2  and  C_3
REMARK    3  A    between atoms: C_3  and  C_4
REMARK    4  A    between atoms: C_4  and  O_5
REMARK    5  A    between atoms: O_5  and  C_6
REMARK    6  A    between atoms: C_11  and  C_12
REMARK                            x       y       z     vdW  Elec       q    Type
REMARK                         _______ _______ _______ _____ _____    ______ ____
ROOT
ATOM      1  C   UNL     1       8.341  -3.518  23.686  0.00  0.00    +0.219 A 
ATOM      2  C   UNL     1       7.063  -3.827  24.082  0.00  0.00    +0.090 A 
ATOM      3  C   UNL     1       6.965  -4.770  25.083  0.00  0.00    +0.047 A 
ATOM      4  C   UNL     1       5.624  -5.205  25.591  0.00  0.00    +0.066 C 
ATOM      5  N   UNL     1       8.052  -5.339  25.646  0.00  0.00    -0.220 NA
ATOM      6  C   UNL     1       9.246  -4.941  25.205  0.00  0.00    +0.216 A 
ATOM      7  N   UNL     1      10.366  -5.526  25.760  0.00  0.00    -0.327 N 
ATOM      8  H   UNL     1      10.125  -6.435  26.126  0.00  0.00    +0.145 HD
ATOM      9  H   UNL     1      11.130  -5.476  25.101  0.00  0.00    +0.145 HD
ATOM     10  N   UNL     1       9.443  -4.061  24.228  0.00  0.00    -0.180 NA
ENDROOT
BRANCH   1  11
ATOM     11  O   UNL     1       8.473  -2.596  22.662  0.00  0.00    -0.474 OA
BRANCH  11  12
ATOM     12  C   UNL     1       9.580  -1.712  22.870  0.00  0.00    +0.258 C 
BRANCH  12  13
ATOM     13  C   UNL     1       9.120  -0.490  23.656  0.00  0.00    +0.200 C 
BRANCH  13  15
ATOM     14  C   UNL     1      10.928   0.681  24.619  0.00  0.00    +0.194 C 
ATOM     15  O   UNL     1       9.955  -0.337  24.804  0.00  0.00    -0.380 OA
ENDBRANCH  13  15
ENDBRANCH  12  13
ENDBRANCH  11  12
ENDBRANCH   1  11
TORSDOF 4
ENDMDL
MODEL 5
REMARK VINA RESULT:      -4.5      1.760      2.445
REMARK  Name = 
REMARK  6 active torsions:
REMARK  status: ('A' for Active; 'I' for Inactive)
REMARK    1  A    between atoms: C_1  and  O_2
REMARK    2  A    between atoms: O_2  and  C_3
REMARK    3  A    between atoms: C_3  and  C_4
REMARK    4  A    between atoms: C_4  and  O_5
REMARK    5  A    between atoms: O_5  and  C_6
REMARK    6  A    between atoms: C_11  and  C_12
REMARK                            x       y       z     vdW  Elec       q    Type
REMARK                         _______ _______ _______ _____ _____    ______ ____
ROOT
ATOM      1  C   UNL     1       8.940  -3.857  24.277  0.00  0.00    +0.219 A 
ATOM      2  C   UNL     1       7.847  -3.947  23.450  0.00  0.00    +0.090 A 
ATOM      3  C   UNL     1       6.812  -4.725  23.921  0.00  0.00    +0.047 A 
ATOM      4  C   UNL     1       5.570  -4.916  23.105  0.00  0.00    +0.066 C 
ATOM      5  N   UNL     1       6.862  -5.343  25.121  0.00  0.00    -0.220 NA
ATOM      6  C   UNL     1       7.961  -5.161  25.855  0.00  0.00    +0.216 A 
ATOM      7  N   UNL     1       8.033  -5.800  27.075  0.00  0.00    -0.327 N 
ATOM      8  H   UNL     1       7.436  -6.614  27.066  0.00  0.00    +0.145 HD
ATOM      9  H   UNL     1       9.002  -5.936  27.324  0.00  0.00    +0.145 HD
ATOM     10  N   UNL     1       9.021  -4.454  25.477  0.00  0.00    -0.180 NA
ENDROOT
BRANCH   1  11
ATOM     11  O   UNL     1      10.010  -3.106  23.820  0.00  0.00    -0.474 OA
BRANCH  11  12
ATOM     12  C   UNL     1       9.844  -1.710  24.085  0.00  0.00    +0.258 C 
BRANCH  12  13
ATOM     13  C   UNL     1       9.866  -0.933  22.774  0.00  0.00    +0.200 C 
BRANCH  13  15
ATOM     14  C   UNL     1       9.943   1.274  21.943  0.00  0.00    +0.194 C 
ATOM     15  O   UNL     1      10.222   0.423  23.044  0.00  0.00    -0.380 OA
ENDBRANCH  13  15
ENDBRANCH  12  13
ENDBRANCH  11  12
ENDBRANCH   1  11
TORSDOF 4
ENDMDL
MODEL 6
REMARK VINA RESULT:      -4.5      1.533      2.333
REMARK  Name = 
REMARK  6 active torsions:
REMARK  status: ('A' for Active; 'I' for Inactive)
REMARK    1  A    between atoms: C_1  and  O_2
REMARK    2  A    between atoms: O_2  and  C_3
REMARK    3  A    between atoms: C_3  and  C_4
REMARK    4  A    between atoms: C_4  and  O_5
REMARK    5  A    between atoms: O_5  and  C_6
REMARK    6  A    between atoms: C_11  and  C_12
REMARK                            x       y       z     vdW  Elec       q    Type
REMARK                         _______ _______ _______ _____ _____    ______ ____
ROOT
ATOM      1  C   UNL     1       7.374  -3.779  24.608  0.00  0.00    +0.219 A 
ATOM      2  C   UNL     1       6.341  -4.319  25.335  0.00  0.00    +0.090 A 
ATOM      3  C   UNL     1       6.695  -5.323  26.211  0.00  0.00    +0.047 A 
ATOM      4  C   UNL     1       5.656  -6.003  27.049  0.00  0.00    +0.066 C 
ATOM      5  N   UNL     1       7.971  -5.737  26.356  0.00  0.00    -0.220 NA
ATOM      6  C   UNL     1       8.899  -5.122  25.620  0.00  0.00    +0.216 A 
ATOM      7  N   UNL     1      10.206  -5.546  25.745  0.00  0.00    -0.327 N 
ATOM      8  H   UNL     1      10.221  -6.503  26.066  0.00  0.00    +0.145 HD
ATOM      9  H   UNL     1      10.709  -5.332  24.896  0.00  0.00    +0.145 HD
ATOM     10  N   UNL     1       8.654  -4.164  24.730  0.00  0.00    -0.180 NA
ENDROOT
BRANCH   1  11
ATOM     11  O   UNL     1       7.048  -2.789  23.698  0.00  0.00    -0.474 OA
BRANCH  11  12
ATOM     12  C   UNL     1       7.202  -3.226  22.344  0.00  0.00    +0.258 C 
BRANCH  12  13
ATOM     13  C   UNL     1       5.831  -3.366  21.692  0.00  0.00    +0.200 C 
BRANCH  13  15
ATOM     14  C   UNL     1       6.224  -5.619  21.113  0.00  0.00    +0.194 C 
ATOM     15  O   UNL     1       5.391  -4.717  21.826  0.00  0.00    -0.380 OA
ENDBRANCH  13  15
ENDBRANCH  12  13
ENDBRANCH  11  12
ENDBRANCH   1  11
TORSDOF 4
ENDMDL
MODEL 7
REMARK VINA RESULT:      -4.4      2.935      5.224
REMARK  Name = 
REMARK  6 active torsions:
REMARK  status: ('A' for Active; 'I' for Inactive)
REMARK    1  A    between atoms: C_1  and  O_2
REMARK    2  A    between atoms: O_2  and  C_3
REMARK    3  A    between atoms: C_3  and  C_4
REMARK    4  A    between atoms: C_4  and  O_5
REMARK    5  A    between atoms: O_5  and  C_6
REMARK    6  A    between atoms: C_11  and  C_12
REMARK                            x       y       z     vdW  Elec       q    Type
REMARK                         _______ _______ _______ _____ _____    ______ ____
ROOT
ATOM      1  C   UNL     1       9.578  -2.096  24.067  0.00  0.00    +0.219 A 
ATOM      2  C   UNL     1       9.823  -1.387  22.916  0.00  0.00    +0.090 A 
ATOM      3  C   UNL     1       9.612  -0.027  23.002  0.00  0.00    +0.047 A 
ATOM      4  C   UNL     1       9.830   0.854  21.810  0.00  0.00    +0.066 C 
ATOM      5  N   UNL     1       9.208   0.569  24.144  0.00  0.00    -0.220 NA
ATOM      6  C   UNL     1       9.028  -0.213  25.210  0.00  0.00    +0.216 A 
ATOM      7  N   UNL     1       8.598   0.380  26.379  0.00  0.00    -0.327 N 
ATOM      8  H   UNL     1       8.107   1.235  26.162  0.00  0.00    +0.145 HD
ATOM      9  H   UNL     1       8.115  -0.305  26.942  0.00  0.00    +0.145 HD
ATOM     10  N   UNL     1       9.179  -1.534  25.219  0.00  0.00    -0.180 NA
ENDROOT
BRANCH   1  11
ATOM     11  O   UNL     1       9.752  -3.467  24.006  0.00  0.00    -0.474 OA
BRANCH  11  12
ATOM     12  C   UNL     1       8.682  -4.177  24.638  0.00  0.00    +0.258 C 
BRANCH  12  13
ATOM     13  C   UNL     1       7.573  -4.439  23.624  0.00  0.00    +0.200 C 
BRANCH  13  15
ATOM     14  C   UNL     1       7.100  -5.768  21.733  0.00  0.00    +0.194 C 
ATOM     15  O   UNL     1       7.858  -5.652  22.928  0.00  0.00    -0.380 OA
ENDBRANCH  13  15
ENDBRANCH  12  13
ENDBRANCH  11  12
ENDBRANCH   1  11
TORSDOF 4
ENDMDL
MODEL 8
REMARK VINA RESULT:      -4.3      2.368      3.545
REMARK  Name = 
REMARK  6 active torsions:
REMARK  status: ('A' for Active; 'I' for Inactive)
REMARK    1  A    between atoms: C_1  and  O_2
REMARK    2  A    between atoms: O_2  and  C_3
REMARK    3  A    between atoms: C_3  and  C_4
REMARK    4  A    between atoms: C_4  and  O_5
REMARK    5  A    between atoms: O_5  and  C_6
REMARK    6  A    between atoms: C_11  and  C_12
REMARK                            x       y       z     vdW  Elec       q    Type
REMARK                         _______ _______ _______ _____ _____    ______ ____
ROOT
ATOM      1  C   UNL     1       8.787  -2.329  23.250  0.00  0.00    +0.219 A 
ATOM      2  C   UNL     1       9.345  -3.068  24.265  0.00  0.00    +0.090 A 
ATOM      3  C   UNL     1       8.870  -4.356  24.389  0.00  0.00    +0.047 A 
ATOM      4  C   UNL     1       9.389  -5.258  25.467  0.00  0.00    +0.066 C 
ATOM      5  N   UNL     1       7.932  -4.862  23.561  0.00  0.00    -0.220 NA
ATOM      6  C   UNL     1       7.481  -4.064  22.591  0.00  0.00    +0.216 A 
ATOM      7  N   UNL     1       6.510  -4.562  21.747  0.00  0.00    -0.327 N 
ATOM      8  H   UNL     1       6.001  -5.298  22.215  0.00  0.00    +0.145 HD
ATOM      9  H   UNL     1       5.974  -3.796  21.365  0.00  0.00    +0.145 HD
ATOM     10  N   UNL     1       7.856  -2.802  22.407  0.00  0.00    -0.180 NA
ENDROOT
BRANCH   1  11
ATOM     11  O   UNL     1       9.220  -1.022  23.117  0.00  0.00    -0.474 OA
BRANCH  11  12
ATOM     12  C   UNL     1       9.534  -0.691  21.760  0.00  0.00    +0.258 C 
BRANCH  12  13
ATOM     13  C   UNL     1       9.132   0.752  21.478  0.00  0.00    +0.200 C 
BRANCH  13  15
ATOM     14  C   UNL     1       9.877   2.442  22.947  0.00  0.00    +0.194 C 
ATOM     15  O   UNL     1      10.210   1.613  21.843  0.00  0.00    -0.380 OA
ENDBRANCH  13  15
ENDBRANCH  12  13
ENDBRANCH  11  12
ENDBRANCH   1  11
TORSDOF 4
ENDMDL
MODEL 9
REMARK VINA RESULT:      -4.3      3.589      5.637
REMARK  Name = 
REMARK  6 active torsions:
REMARK  status: ('A' for Active; 'I' for Inactive)
REMARK    1  A    between atoms: C_1  and  O_2
REMARK    2  A    between atoms: O_2  and  C_3
REMARK    3  A    between atoms: C_3  and  C_4
REMARK    4  A    between atoms: C_4  and  O_5
REMARK    5  A    between atoms: O_5  and  C_6
REMARK    6  A    between atoms: C_11  and  C_12
REMARK                            x       y       z     vdW  Elec       q    Type
REMARK                         _______ _______ _______ _____ _____    ______ ____
ROOT
ATOM      1  C   UNL     1       8.410  -0.966  22.393  0.00  0.00    +0.219 A 
ATOM      2  C   UNL     1       7.303  -0.539  23.086  0.00  0.00    +0.090 A 
ATOM      3  C   UNL     1       7.191   0.827  23.239  0.00  0.00    +0.047 A 
ATOM      4  C   UNL     1       6.037   1.416  23.989  0.00  0.00    +0.066 C 
ATOM      5  N   UNL     1       8.099   1.686  22.729  0.00  0.00    -0.220 NA
ATOM      6  C   UNL     1       9.120   1.162  22.048  0.00  0.00    +0.216 A 
ATOM      7  N   UNL     1      10.064   2.028  21.535  0.00  0.00    -0.327 N 
ATOM      8  H   UNL     1      10.067   2.881  22.074  0.00  0.00    +0.145 HD
ATOM      9  H   UNL     1      10.941   1.540  21.430  0.00  0.00    +0.145 HD
ATOM     10  N   UNL     1       9.329  -0.138  21.870  0.00  0.00    -0.180 NA
ENDROOT
BRANCH   1  11
ATOM     11  O   UNL     1       8.568  -2.333  22.247  0.00  0.00    -0.474 OA
BRANCH  11  12
ATOM     12  C   UNL     1       8.510  -3.021  23.500  0.00  0.00    +0.258 C 
BRANCH  12  13
ATOM     13  C   UNL     1       7.727  -4.319  23.336  0.00  0.00    +0.200 C 
BRANCH  13  15
ATOM     14  C   UNL     1       7.062  -5.725  21.562  0.00  0.00    +0.194 C 
ATOM     15  O   UNL     1       7.213  -4.385  22.007  0.00  0.00    -0.380 OA
ENDBRANCH  13  15
ENDBRANCH  12  13
ENDBRANCH  11  12
ENDBRANCH   1  11
TORSDOF 4
ENDMDL
