MODEL 1
REMARK VINA RESULT:      -8.1      0.000      0.000
REMARK  Name = 
REMARK  8 active torsions:
REMARK  status: ('A' for Active; 'I' for Inactive)
REMARK    1  A    between atoms: C_1  and  N_2
REMARK    2  A    between atoms: C_3  and  C_5
REMARK    3  A    between atoms: C_9  and  N_12
REMARK    4  A    between atoms: N_15  and  C_21
REMARK    5  A    between atoms: C_18  and  C_19
REMARK    6  A    between atoms: C_18  and  C_20
REMARK    7  A    between atoms: C_24  and  C_25
REMARK    8  A    between atoms: C_27  and  C_29
REMARK                            x       y       z     vdW  Elec       q    Type
REMARK                         _______ _______ _______ _____ _____    ______ ____
ROOT
ATOM      1  N   UNL     1       6.724  -4.285  25.187  0.00  0.00    -0.268 N 
ATOM      2  C   UNL     1       8.028  -4.761  24.745  0.00  0.00    +0.112 C 
ATOM      3  C   UNL     1       8.084  -5.488  23.397  0.00  0.00    +0.042 C 
ATOM      4  C   UNL     1       8.751  -5.537  25.856  0.00  0.00    +0.042 C 
ATOM      5  C   UNL     1       8.744  -3.413  24.542  0.00  0.00    +0.249 C 
ATOM      6  O   UNL     1       9.898  -3.350  24.124  0.00  0.00    -0.272 OA
ATOM      7  N   UNL     1       7.926  -2.379  24.955  0.00  0.00    -0.220 N 
ATOM      8  C   UNL     1       6.842  -2.941  25.624  0.00  0.00    +0.152 C 
ATOM      9  S   UNL     1       5.956  -2.302  26.903  0.00  0.00    -0.017 S 
ENDROOT
BRANCH   1  13
ATOM     10  C   UNL     1       3.181  -6.549  24.439  0.00  0.00    +0.072 A 
ATOM     11  C   UNL     1       4.123  -6.989  25.376  0.00  0.00    +0.018 A 
ATOM     12  C   UNL     1       5.265  -6.224  25.663  0.00  0.00    +0.024 A 
ATOM     13  C   UNL     1       5.501  -5.004  25.022  0.00  0.00    +0.039 A 
ATOM     14  C   UNL     1       4.524  -4.552  24.121  0.00  0.00    +0.062 A 
ATOM     15  C   UNL     1       3.385  -5.311  23.840  0.00  0.00    +0.137 A 
ATOM     16  F   UNL     1       2.517  -4.824  22.939  0.00  0.00    -0.205 F 
BRANCH  10  20
ATOM     17  C   UNL     1       0.856  -8.744  22.390  0.00  0.00    +0.128 C 
ATOM     18  N   UNL     1       1.891  -7.823  22.786  0.00  0.00    -0.314 N 
ATOM     19  H   UNL     1       2.547  -7.498  22.085  0.00  0.00    +0.149 HD
ATOM     20  C   UNL     1       2.042  -7.445  24.101  0.00  0.00    +0.247 C 
ATOM     21  O   UNL     1       1.297  -7.843  24.993  0.00  0.00    -0.270 OA
ENDBRANCH  10  20
ENDBRANCH   1  13
BRANCH   7  22
ATOM     22  C   UNL     1       8.168  -0.985  24.671  0.00  0.00    +0.044 A 
ATOM     23  C   UNL     1       8.591  -0.534  23.410  0.00  0.00    +0.037 A 
ATOM     24  C   UNL     1       8.806   0.834  23.094  0.00  0.00    +0.074 A 
ATOM     25  C   UNL     1       8.674   1.787  24.106  0.00  0.00    +0.064 A 
ATOM     26  C   UNL     1       8.341   1.356  25.395  0.00  0.00    +0.021 A 
ATOM     27  C   UNL     1       8.087   0.002  25.665  0.00  0.00    +0.025 A 
BRANCH  24  28
ATOM     28  C   UNL     1       9.159   1.171  21.662  0.00  0.00    +0.419 C 
ATOM     29  F   UNL     1       8.164   1.874  21.053  0.00  0.00    -0.166 F 
ATOM     30  F   UNL     1       9.337   0.051  20.908  0.00  0.00    -0.166 F 
ATOM     31  F   UNL     1      10.284   1.911  21.500  0.00  0.00    -0.166 F 
ENDBRANCH  24  28
BRANCH  25  32
ATOM     32  C   UNL     1       8.866   3.192  23.896  0.00  0.00    +0.100 C 
ATOM     33  N   UNL     1       9.054   4.327  23.734  0.00  0.00    -0.191 NA
ENDBRANCH  25  32
ENDBRANCH   7  22
TORSDOF 5
ENDMDL
MODEL 2
REMARK VINA RESULT:      -7.9      1.560      1.840
REMARK  Name = 
REMARK  8 active torsions:
REMARK  status: ('A' for Active; 'I' for Inactive)
REMARK    1  A    between atoms: C_1  and  N_2
REMARK    2  A    between atoms: C_3  and  C_5
REMARK    3  A    between atoms: C_9  and  N_12
REMARK    4  A    between atoms: N_15  and  C_21
REMARK    5  A    between atoms: C_18  and  C_19
REMARK    6  A    between atoms: C_18  and  C_20
REMARK    7  A    between atoms: C_24  and  C_25
REMARK    8  A    between atoms: C_27  and  C_29
REMARK                            x       y       z     vdW  Elec       q    Type
REMARK                         _______ _______ _______ _____ _____    ______ ____
ROOT
ATOM      1  N   UNL     1       6.864  -4.086  25.074  0.00  0.00    -0.268 N 
ATOM      2  C   UNL     1       8.113  -4.456  24.422  0.00  0.00    +0.112 C 
ATOM      3  C   UNL     1       8.010  -5.327  23.165  0.00  0.00    +0.042 C 
ATOM      4  C   UNL     1       9.135  -5.004  25.428  0.00  0.00    +0.042 C 
ATOM      5  C   UNL     1       8.585  -3.068  23.950  0.00  0.00    +0.249 C 
ATOM      6  O   UNL     1       9.617  -2.921  23.301  0.00  0.00    -0.272 OA
ATOM      7  N   UNL     1       7.725  -2.094  24.424  0.00  0.00    -0.220 N 
ATOM      8  C   UNL     1       6.877  -2.695  25.350  0.00  0.00    +0.152 C 
ATOM      9  S   UNL     1       6.172  -2.016  26.718  0.00  0.00    -0.017 S 
ENDROOT
BRANCH   1  13
ATOM     10  C   UNL     1       3.629  -6.861  25.323  0.00  0.00    +0.072 A 
ATOM     11  C   UNL     1       4.669  -6.894  26.259  0.00  0.00    +0.018 A 
ATOM     12  C   UNL     1       5.710  -5.953  26.212  0.00  0.00    +0.024 A 
ATOM     13  C   UNL     1       5.744  -4.957  25.232  0.00  0.00    +0.039 A 
ATOM     14  C   UNL     1       4.670  -4.905  24.330  0.00  0.00    +0.062 A 
ATOM     15  C   UNL     1       3.631  -5.840  24.380  0.00  0.00    +0.137 A 
ATOM     16  F   UNL     1       2.659  -5.742  23.459  0.00  0.00    -0.205 F 
BRANCH  10  20
ATOM     17  C   UNL     1       0.726  -8.987  26.538  0.00  0.00    +0.128 C 
ATOM     18  N   UNL     1       1.785  -8.014  26.461  0.00  0.00    -0.314 N 
ATOM     19  H   UNL     1       1.882  -7.340  27.212  0.00  0.00    +0.149 HD
ATOM     20  C   UNL     1       2.606  -7.942  25.358  0.00  0.00    +0.247 C 
ATOM     21  O   UNL     1       2.503  -8.711  24.406  0.00  0.00    -0.270 OA
ENDBRANCH  10  20
ENDBRANCH   1  13
BRANCH   7  22
ATOM     22  C   UNL     1       7.714  -0.725  23.967  0.00  0.00    +0.044 A 
ATOM     23  C   UNL     1       8.863   0.084  23.980  0.00  0.00    +0.037 A 
ATOM     24  C   UNL     1       8.887   1.423  23.507  0.00  0.00    +0.074 A 
ATOM     25  C   UNL     1       7.693   2.009  23.082  0.00  0.00    +0.064 A 
ATOM     26  C   UNL     1       6.515   1.255  23.145  0.00  0.00    +0.021 A 
ATOM     27  C   UNL     1       6.532  -0.083  23.570  0.00  0.00    +0.025 A 
BRANCH  24  28
ATOM     28  C   UNL     1      10.224   2.130  23.487  0.00  0.00    +0.419 C 
ATOM     29  F   UNL     1      10.669   2.328  22.215  0.00  0.00    -0.166 F 
ATOM     30  F   UNL     1      11.191   1.400  24.108  0.00  0.00    -0.166 F 
ATOM     31  F   UNL     1      10.245   3.351  24.076  0.00  0.00    -0.166 F 
ENDBRANCH  24  28
BRANCH  25  32
ATOM     32  C   UNL     1       7.606   3.351  22.586  0.00  0.00    +0.100 C 
ATOM     33  N   UNL     1       7.504   4.440  22.194  0.00  0.00    -0.191 NA
ENDBRANCH  25  32
ENDBRANCH   7  22
TORSDOF 5
ENDMDL
MODEL 3
REMARK VINA RESULT:      -7.4      2.820      3.854
REMARK  Name = 
REMARK  8 active torsions:
REMARK  status: ('A' for Active; 'I' for Inactive)
REMARK    1  A    between atoms: C_1  and  N_2
REMARK    2  A    between atoms: C_3  and  C_5
REMARK    3  A    between atoms: C_9  and  N_12
REMARK    4  A    between atoms: N_15  and  C_21
REMARK    5  A    between atoms: C_18  and  C_19
REMARK    6  A    between atoms: C_18  and  C_20
REMARK    7  A    between atoms: C_24  and  C_25
REMARK    8  A    between atoms: C_27  and  C_29
REMARK                            x       y       z     vdW  Elec       q    Type
REMARK                         _______ _______ _______ _____ _____    ______ ____
ROOT
ATOM      1  N   UNL     1       7.883  -1.567  24.288  0.00  0.00    -0.268 N 
ATOM      2  C   UNL     1       8.793  -1.793  23.173  0.00  0.00    +0.112 C 
ATOM      3  C   UNL     1       8.259  -2.613  21.994  0.00  0.00    +0.042 C 
ATOM      4  C   UNL     1      10.164  -2.288  23.654  0.00  0.00    +0.042 C 
ATOM      5  C   UNL     1       8.945  -0.348  22.662  0.00  0.00    +0.249 C 
ATOM      6  O   UNL     1       9.623  -0.078  21.674  0.00  0.00    -0.272 OA
ATOM      7  N   UNL     1       8.280   0.522  23.507  0.00  0.00    -0.220 N 
ATOM      8  C   UNL     1       7.911  -0.195  24.643  0.00  0.00    +0.152 C 
ATOM      9  S   UNL     1       7.762   0.357  26.225  0.00  0.00    -0.017 S 
ENDROOT
BRANCH   1  13
ATOM     10  C   UNL     1       5.177  -4.616  25.559  0.00  0.00    +0.072 A 
ATOM     11  C   UNL     1       6.535  -4.683  25.895  0.00  0.00    +0.018 A 
ATOM     12  C   UNL     1       7.420  -3.659  25.522  0.00  0.00    +0.024 A 
ATOM     13  C   UNL     1       6.978  -2.544  24.805  0.00  0.00    +0.039 A 
ATOM     14  C   UNL     1       5.607  -2.465  24.518  0.00  0.00    +0.062 A 
ATOM     15  C   UNL     1       4.724  -3.483  24.893  0.00  0.00    +0.137 A 
ATOM     16  F   UNL     1       3.434  -3.348  24.549  0.00  0.00    -0.205 F 
BRANCH  10  20
ATOM     17  C   UNL     1       2.480  -6.679  27.260  0.00  0.00    +0.128 C 
ATOM     18  N   UNL     1       3.407  -5.629  26.924  0.00  0.00    -0.314 N 
ATOM     19  H   UNL     1       3.350  -4.750  27.427  0.00  0.00    +0.149 HD
ATOM     20  C   UNL     1       4.305  -5.775  25.891  0.00  0.00    +0.247 C 
ATOM     21  O   UNL     1       4.386  -6.806  25.226  0.00  0.00    -0.270 OA
ENDBRANCH  10  20
ENDBRANCH   1  13
BRANCH   7  22
ATOM     22  C   UNL     1       7.997   1.902  23.197  0.00  0.00    +0.044 A 
ATOM     23  C   UNL     1       8.807   2.958  23.649  0.00  0.00    +0.037 A 
ATOM     24  C   UNL     1       8.570   4.322  23.332  0.00  0.00    +0.074 A 
ATOM     25  C   UNL     1       7.425   4.656  22.604  0.00  0.00    +0.064 A 
ATOM     26  C   UNL     1       6.552   3.632  22.220  0.00  0.00    +0.021 A 
ATOM     27  C   UNL     1       6.840   2.287  22.504  0.00  0.00    +0.025 A 
BRANCH  24  28
ATOM     28  C   UNL     1       9.590   5.334  23.805  0.00  0.00    +0.419 C 
ATOM     29  F   UNL     1      10.797   4.752  24.051  0.00  0.00    -0.166 F 
ATOM     30  F   UNL     1       9.216   5.920  24.976  0.00  0.00    -0.166 F 
ATOM     31  F   UNL     1       9.842   6.351  22.944  0.00  0.00    -0.166 F 
ENDBRANCH  24  28
BRANCH  25  32
ATOM     32  C   UNL     1       7.092   5.999  22.231  0.00  0.00    +0.100 C 
ATOM     33  N   UNL     1       6.840   7.084  21.901  0.00  0.00    -0.191 NA
ENDBRANCH  25  32
ENDBRANCH   7  22
TORSDOF 5
ENDMDL
MODEL 4
REMARK VINA RESULT:      -7.1      2.750      9.002
REMARK  Name = 
REMARK  8 active torsions:
REMARK  status: ('A' for Active; 'I' for Inactive)
REMARK    1  A    between atoms: C_1  and  N_2
REMARK    2  A    between atoms: C_3  and  C_5
REMARK    3  A    between atoms: C_9  and  N_12
REMARK    4  A    between atoms: N_15  and  C_21
REMARK    5  A    between atoms: C_18  and  C_19
REMARK    6  A    between atoms: C_18  and  C_20
REMARK    7  A    between atoms: C_24  and  C_25
REMARK    8  A    between atoms: C_27  and  C_29
REMARK                            x       y       z     vdW  Elec       q    Type
REMARK                         _______ _______ _______ _____ _____    ______ ____
ROOT
ATOM      1  N   UNL     1       8.208  -3.683  24.334  0.00  0.00    -0.268 N 
ATOM      2  C   UNL     1       8.775  -4.256  25.547  0.00  0.00    +0.112 C 
ATOM      3  C   UNL     1       8.953  -3.317  26.745  0.00  0.00    +0.042 C 
ATOM      4  C   UNL     1      10.045  -5.066  25.249  0.00  0.00    +0.042 C 
ATOM      5  C   UNL     1       7.647  -5.234  25.927  0.00  0.00    +0.249 C 
ATOM      6  O   UNL     1       7.701  -5.921  26.945  0.00  0.00    -0.272 OA
ATOM      7  N   UNL     1       6.677  -5.238  24.943  0.00  0.00    -0.220 N 
ATOM      8  C   UNL     1       7.180  -4.533  23.852  0.00  0.00    +0.152 C 
ATOM      9  S   UNL     1       6.867  -4.772  22.217  0.00  0.00    -0.017 S 
ENDROOT
BRANCH   1  13
ATOM     10  C   UNL     1       9.150   0.300  23.118  0.00  0.00    +0.072 A 
ATOM     11  C   UNL     1      10.131  -0.698  23.109  0.00  0.00    +0.018 A 
ATOM     12  C   UNL     1       9.816  -2.020  23.460  0.00  0.00    +0.024 A 
ATOM     13  C   UNL     1       8.518  -2.382  23.832  0.00  0.00    +0.039 A 
ATOM     14  C   UNL     1       7.534  -1.382  23.790  0.00  0.00    +0.062 A 
ATOM     15  C   UNL     1       7.848  -0.066  23.436  0.00  0.00    +0.137 A 
ATOM     16  F   UNL     1       6.856   0.838  23.455  0.00  0.00    -0.205 F 
BRANCH  10  20
ATOM     17  C   UNL     1      11.083   3.563  23.330  0.00  0.00    +0.128 C 
ATOM     18  N   UNL     1      10.581   2.238  23.590  0.00  0.00    -0.314 N 
ATOM     19  H   UNL     1      11.032   1.678  24.305  0.00  0.00    +0.149 HD
ATOM     20  C   UNL     1       9.561   1.703  22.836  0.00  0.00    +0.247 C 
ATOM     21  O   UNL     1       9.009   2.326  21.932  0.00  0.00    -0.270 OA
ENDBRANCH  10  20
ENDBRANCH   1  13
BRANCH   7  22
ATOM     22  C   UNL     1       5.370  -5.832  25.088  0.00  0.00    +0.044 A 
ATOM     23  C   UNL     1       4.511  -5.514  26.154  0.00  0.00    +0.037 A 
ATOM     24  C   UNL     1       3.208  -6.060  26.304  0.00  0.00    +0.074 A 
ATOM     25  C   UNL     1       2.776  -7.030  25.397  0.00  0.00    +0.064 A 
ATOM     26  C   UNL     1       3.647  -7.432  24.378  0.00  0.00    +0.021 A 
ATOM     27  C   UNL     1       4.910  -6.838  24.226  0.00  0.00    +0.025 A 
BRANCH  24  28
ATOM     28  C   UNL     1       2.363  -5.540  27.446  0.00  0.00    +0.419 C 
ATOM     29  F   UNL     1       3.029  -4.603  28.177  0.00  0.00    -0.166 F 
ATOM     30  F   UNL     1       2.036  -6.529  28.323  0.00  0.00    -0.166 F 
ATOM     31  F   UNL     1       1.192  -4.960  27.086  0.00  0.00    -0.166 F 
ENDBRANCH  24  28
BRANCH  25  32
ATOM     32  C   UNL     1       1.482  -7.644  25.457  0.00  0.00    +0.100 C 
ATOM     33  N   UNL     1       0.443  -8.158  25.532  0.00  0.00    -0.191 NA
ENDBRANCH  25  32
ENDBRANCH   7  22
TORSDOF 5
ENDMDL
MODEL 5
REMARK VINA RESULT:      -6.9      2.876      8.929
REMARK  Name = 
REMARK  8 active torsions:
REMARK  status: ('A' for Active; 'I' for Inactive)
REMARK    1  A    between atoms: C_1  and  N_2
REMARK    2  A    between atoms: C_3  and  C_5
REMARK    3  A    between atoms: C_9  and  N_12
REMARK    4  A    between atoms: N_15  and  C_21
REMARK    5  A    between atoms: C_18  and  C_19
REMARK    6  A    between atoms: C_18  and  C_20
REMARK    7  A    between atoms: C_24  and  C_25
REMARK    8  A    between atoms: C_27  and  C_29
REMARK                            x       y       z     vdW  Elec       q    Type
REMARK                         _______ _______ _______ _____ _____    ______ ____
ROOT
ATOM      1  N   UNL     1       7.519  -2.059  23.876  0.00  0.00    -0.268 N 
ATOM      2  C   UNL     1       8.478  -2.637  24.808  0.00  0.00    +0.112 C 
ATOM      3  C   UNL     1       8.705  -1.889  26.127  0.00  0.00    +0.042 C 
ATOM      4  C   UNL     1       9.797  -2.997  24.110  0.00  0.00    +0.042 C 
ATOM      5  C   UNL     1       7.742  -3.940  25.169  0.00  0.00    +0.249 C 
ATOM      6  O   UNL     1       8.199  -4.738  25.985  0.00  0.00    -0.272 OA
ATOM      7  N   UNL     1       6.595  -4.059  24.406  0.00  0.00    -0.220 N 
ATOM      8  C   UNL     1       6.642  -3.076  23.420  0.00  0.00    +0.152 C 
ATOM      9  S   UNL     1       6.017  -3.128  21.860  0.00  0.00    -0.017 S 
ENDROOT
BRANCH   1  13
ATOM     10  C   UNL     1       6.928   2.049  22.874  0.00  0.00    +0.072 A 
ATOM     11  C   UNL     1       6.217   1.464  23.927  0.00  0.00    +0.018 A 
ATOM     12  C   UNL     1       6.443   0.128  24.294  0.00  0.00    +0.024 A 
ATOM     13  C   UNL     1       7.380  -0.661  23.620  0.00  0.00    +0.039 A 
ATOM     14  C   UNL     1       8.121  -0.048  22.598  0.00  0.00    +0.062 A 
ATOM     15  C   UNL     1       7.899   1.285  22.236  0.00  0.00    +0.137 A 
ATOM     16  F   UNL     1       8.624   1.786  21.224  0.00  0.00    -0.205 F 
BRANCH  10  20
ATOM     17  C   UNL     1       7.353   5.685  21.860  0.00  0.00    +0.128 C 
ATOM     18  N   UNL     1       7.603   4.344  22.322  0.00  0.00    -0.314 N 
ATOM     19  H   UNL     1       8.561   4.057  22.489  0.00  0.00    +0.149 HD
ATOM     20  C   UNL     1       6.577   3.436  22.463  0.00  0.00    +0.247 C 
ATOM     21  O   UNL     1       5.405   3.723  22.235  0.00  0.00    -0.270 OA
ENDBRANCH  10  20
ENDBRANCH   1  13
BRANCH   7  22
ATOM     22  C   UNL     1       5.542  -5.012  24.659  0.00  0.00    +0.044 A 
ATOM     23  C   UNL     1       4.711  -4.936  25.789  0.00  0.00    +0.037 A 
ATOM     24  C   UNL     1       3.647  -5.841  26.046  0.00  0.00    +0.074 A 
ATOM     25  C   UNL     1       3.459  -6.922  25.181  0.00  0.00    +0.064 A 
ATOM     26  C   UNL     1       4.331  -7.074  24.097  0.00  0.00    +0.021 A 
ATOM     27  C   UNL     1       5.342  -6.134  23.841  0.00  0.00    +0.025 A 
BRANCH  24  28
ATOM     28  C   UNL     1       2.774  -5.566  27.250  0.00  0.00    +0.419 C 
ATOM     29  F   UNL     1       3.158  -4.431  27.898  0.00  0.00    -0.166 F 
ATOM     30  F   UNL     1       2.855  -6.564  28.172  0.00  0.00    -0.166 F 
ATOM     31  F   UNL     1       1.453  -5.409  26.987  0.00  0.00    -0.166 F 
ENDBRANCH  24  28
BRANCH  25  32
ATOM     32  C   UNL     1       2.417  -7.892  25.348  0.00  0.00    +0.100 C 
ATOM     33  N   UNL     1       1.557  -8.657  25.502  0.00  0.00    -0.191 NA
ENDBRANCH  25  32
ENDBRANCH   7  22
TORSDOF 5
ENDMDL
MODEL 6
REMARK VINA RESULT:      -6.9      2.122      2.541
REMARK  Name = 
REMARK  8 active torsions:
REMARK  status: ('A' for Active; 'I' for Inactive)
REMARK    1  A    between atoms: C_1  and  N_2
REMARK    2  A    between atoms: C_3  and  C_5
REMARK    3  A    between atoms: C_9  and  N_12
REMARK    4  A    between atoms: N_15  and  C_21
REMARK    5  A    between atoms: C_18  and  C_19
REMARK    6  A    between atoms: C_18  and  C_20
REMARK    7  A    between atoms: C_24  and  C_25
REMARK    8  A    between atoms: C_27  and  C_29
REMARK                            x       y       z     vdW  Elec       q    Type
REMARK                         _______ _______ _______ _____ _____    ______ ____
ROOT
ATOM      1  N   UNL     1       7.167  -3.080  24.779  0.00  0.00    -0.268 N 
ATOM      2  C   UNL     1       8.269  -3.498  23.922  0.00  0.00    +0.112 C 
ATOM      3  C   UNL     1       7.904  -4.069  22.547  0.00  0.00    +0.042 C 
ATOM      4  C   UNL     1       9.265  -4.388  24.678  0.00  0.00    +0.042 C 
ATOM      5  C   UNL     1       8.931  -2.132  23.662  0.00  0.00    +0.249 C 
ATOM      6  O   UNL     1       9.912  -2.016  22.930  0.00  0.00    -0.272 OA
ATOM      7  N   UNL     1       8.300  -1.154  24.408  0.00  0.00    -0.220 N 
ATOM      8  C   UNL     1       7.446  -1.793  25.304  0.00  0.00    +0.152 C 
ATOM      9  S   UNL     1       6.995  -1.305  26.849  0.00  0.00    -0.017 S 
ENDROOT
BRANCH   1  13
ATOM     10  C   UNL     1       3.463  -5.095  25.453  0.00  0.00    +0.072 A 
ATOM     11  C   UNL     1       3.492  -3.856  24.804  0.00  0.00    +0.018 A 
ATOM     12  C   UNL     1       4.710  -3.212  24.535  0.00  0.00    +0.024 A 
ATOM     13  C   UNL     1       5.930  -3.783  24.907  0.00  0.00    +0.039 A 
ATOM     14  C   UNL     1       5.890  -5.048  25.514  0.00  0.00    +0.062 A 
ATOM     15  C   UNL     1       4.677  -5.691  25.778  0.00  0.00    +0.137 A 
ATOM     16  F   UNL     1       4.724  -6.883  26.393  0.00  0.00    -0.205 F 
BRANCH  10  20
ATOM     17  C   UNL     1       0.449  -7.403  25.356  0.00  0.00    +0.128 C 
ATOM     18  N   UNL     1       1.684  -6.734  25.038  0.00  0.00    -0.314 N 
ATOM     19  H   UNL     1       2.245  -7.086  24.271  0.00  0.00    +0.149 HD
ATOM     20  C   UNL     1       2.142  -5.684  25.803  0.00  0.00    +0.247 C 
ATOM     21  O   UNL     1       1.518  -5.247  26.767  0.00  0.00    -0.270 OA
ENDBRANCH  10  20
ENDBRANCH   1  13
BRANCH   7  22
ATOM     22  C   UNL     1       8.487   0.264  24.218  0.00  0.00    +0.044 A 
ATOM     23  C   UNL     1       7.530   1.072  23.581  0.00  0.00    +0.037 A 
ATOM     24  C   UNL     1       7.673   2.475  23.410  0.00  0.00    +0.074 A 
ATOM     25  C   UNL     1       8.863   3.085  23.815  0.00  0.00    +0.064 A 
ATOM     26  C   UNL     1       9.871   2.288  24.369  0.00  0.00    +0.021 A 
ATOM     27  C   UNL     1       9.679   0.912  24.572  0.00  0.00    +0.025 A 
BRANCH  24  28
ATOM     28  C   UNL     1       6.510   3.224  22.799  0.00  0.00    +0.419 C 
ATOM     29  F   UNL     1       5.525   2.375  22.392  0.00  0.00    -0.166 F 
ATOM     30  F   UNL     1       6.883   3.918  21.688  0.00  0.00    -0.166 F 
ATOM     31  F   UNL     1       5.905   4.124  23.613  0.00  0.00    -0.166 F 
ENDBRANCH  24  28
BRANCH  25  32
ATOM     32  C   UNL     1       9.110   4.491  23.688  0.00  0.00    +0.100 C 
ATOM     33  N   UNL     1       9.332   5.629  23.611  0.00  0.00    -0.191 NA
ENDBRANCH  25  32
ENDBRANCH   7  22
TORSDOF 5
ENDMDL
MODEL 7
REMARK VINA RESULT:      -6.8      3.654      9.760
REMARK  Name = 
REMARK  8 active torsions:
REMARK  status: ('A' for Active; 'I' for Inactive)
REMARK    1  A    between atoms: C_1  and  N_2
REMARK    2  A    between atoms: C_3  and  C_5
REMARK    3  A    between atoms: C_9  and  N_12
REMARK    4  A    between atoms: N_15  and  C_21
REMARK    5  A    between atoms: C_18  and  C_19
REMARK    6  A    between atoms: C_18  and  C_20
REMARK    7  A    between atoms: C_24  and  C_25
REMARK    8  A    between atoms: C_27  and  C_29
REMARK                            x       y       z     vdW  Elec       q    Type
REMARK                         _______ _______ _______ _____ _____    ______ ____
ROOT
ATOM      1  N   UNL     1       7.503   2.176  25.120  0.00  0.00    -0.268 N 
ATOM      2  C   UNL     1       6.147   2.668  25.320  0.00  0.00    +0.112 C 
ATOM      3  C   UNL     1       5.572   3.586  24.236  0.00  0.00    +0.042 C 
ATOM      4  C   UNL     1       5.957   3.244  26.731  0.00  0.00    +0.042 C 
ATOM      5  C   UNL     1       5.369   1.342  25.222  0.00  0.00    +0.249 C 
ATOM      6  O   UNL     1       4.143   1.303  25.301  0.00  0.00    -0.272 OA
ATOM      7  N   UNL     1       6.254   0.286  25.109  0.00  0.00    -0.220 N 
ATOM      8  C   UNL     1       7.532   0.778  25.360  0.00  0.00    +0.152 C 
ATOM      9  S   UNL     1       8.839  -0.014  26.060  0.00  0.00    -0.017 S 
ENDROOT
BRANCH   1  13
ATOM     10  C   UNL     1      10.843   4.483  23.798  0.00  0.00    +0.072 A 
ATOM     11  C   UNL     1      10.739   3.127  23.468  0.00  0.00    +0.018 A 
ATOM     12  C   UNL     1       9.619   2.375  23.857  0.00  0.00    +0.024 A 
ATOM     13  C   UNL     1       8.576   2.953  24.587  0.00  0.00    +0.039 A 
ATOM     14  C   UNL     1       8.671   4.324  24.869  0.00  0.00    +0.062 A 
ATOM     15  C   UNL     1       9.784   5.074  24.477  0.00  0.00    +0.137 A 
ATOM     16  F   UNL     1       9.813   6.372  24.817  0.00  0.00    -0.205 F 
BRANCH  10  20
ATOM     17  C   UNL     1      13.654   5.938  21.698  0.00  0.00    +0.128 C 
ATOM     18  N   UNL     1      12.492   5.204  22.128  0.00  0.00    -0.314 N 
ATOM     19  H   UNL     1      11.931   4.727  21.431  0.00  0.00    +0.149 HD
ATOM     20  C   UNL     1      12.097   5.206  23.447  0.00  0.00    +0.247 C 
ATOM     21  O   UNL     1      12.720   5.800  24.323  0.00  0.00    -0.270 OA
ENDBRANCH  10  20
ENDBRANCH   1  13
BRANCH   7  22
ATOM     22  C   UNL     1       5.876  -1.057  24.740  0.00  0.00    +0.044 A 
ATOM     23  C   UNL     1       6.379  -1.694  23.593  0.00  0.00    +0.037 A 
ATOM     24  C   UNL     1       6.050  -3.025  23.224  0.00  0.00    +0.074 A 
ATOM     25  C   UNL     1       5.111  -3.723  23.988  0.00  0.00    +0.064 A 
ATOM     26  C   UNL     1       4.527  -3.080  25.085  0.00  0.00    +0.021 A 
ATOM     27  C   UNL     1       4.910  -1.781  25.453  0.00  0.00    +0.025 A 
BRANCH  24  28
ATOM     28  C   UNL     1       6.753  -3.608  22.018  0.00  0.00    +0.419 C 
ATOM     29  F   UNL     1       7.759  -2.797  21.584  0.00  0.00    -0.166 F 
ATOM     30  F   UNL     1       5.908  -3.748  20.960  0.00  0.00    -0.166 F 
ATOM     31  F   UNL     1       7.319  -4.825  22.207  0.00  0.00    -0.166 F 
ENDBRANCH  24  28
BRANCH  25  32
ATOM     32  C   UNL     1       4.709  -5.069  23.705  0.00  0.00    +0.100 C 
ATOM     33  N   UNL     1       4.401  -6.160  23.447  0.00  0.00    -0.191 NA
ENDBRANCH  25  32
ENDBRANCH   7  22
TORSDOF 5
ENDMDL
MODEL 8
REMARK VINA RESULT:      -6.8      3.838     10.033
REMARK  Name = 
REMARK  8 active torsions:
REMARK  status: ('A' for Active; 'I' for Inactive)
REMARK    1  A    between atoms: C_1  and  N_2
REMARK    2  A    between atoms: C_3  and  C_5
REMARK    3  A    between atoms: C_9  and  N_12
REMARK    4  A    between atoms: N_15  and  C_21
REMARK    5  A    between atoms: C_18  and  C_19
REMARK    6  A    between atoms: C_18  and  C_20
REMARK    7  A    between atoms: C_24  and  C_25
REMARK    8  A    between atoms: C_27  and  C_29
REMARK                            x       y       z     vdW  Elec       q    Type
REMARK                         _______ _______ _______ _____ _____    ______ ____
ROOT
ATOM      1  N   UNL     1       8.101   1.790  24.804  0.00  0.00    -0.268 N 
ATOM      2  C   UNL     1       6.695   2.070  25.064  0.00  0.00    +0.112 C 
ATOM      3  C   UNL     1       5.972   2.984  24.069  0.00  0.00    +0.042 C 
ATOM      4  C   UNL     1       6.465   2.497  26.521  0.00  0.00    +0.042 C 
ATOM      5  C   UNL     1       6.106   0.661  24.867  0.00  0.00    +0.249 C 
ATOM      6  O   UNL     1       4.900   0.445  24.960  0.00  0.00    -0.272 OA
ATOM      7  N   UNL     1       7.124  -0.249  24.653  0.00  0.00    -0.220 N 
ATOM      8  C   UNL     1       8.329   0.395  24.925  0.00  0.00    +0.152 C 
ATOM      9  S   UNL     1       9.751  -0.261  25.537  0.00  0.00    -0.017 S 
ENDROOT
BRANCH   1  13
ATOM     10  C   UNL     1      11.048   4.650  23.635  0.00  0.00    +0.072 A 
ATOM     11  C   UNL     1      11.155   3.313  23.234  0.00  0.00    +0.018 A 
ATOM     12  C   UNL     1      10.163   2.379  23.574  0.00  0.00    +0.024 A 
ATOM     13  C   UNL     1       9.042   2.750  24.322  0.00  0.00    +0.039 A 
ATOM     14  C   UNL     1       8.924   4.103  24.675  0.00  0.00    +0.062 A 
ATOM     15  C   UNL     1       9.909   5.034  24.333  0.00  0.00    +0.137 A 
ATOM     16  F   UNL     1       9.736   6.302  24.739  0.00  0.00    -0.205 F 
BRANCH  10  20
ATOM     17  C   UNL     1      13.824   6.381  21.706  0.00  0.00    +0.128 C 
ATOM     18  N   UNL     1      12.775   5.477  22.098  0.00  0.00    -0.314 N 
ATOM     19  H   UNL     1      12.441   4.796  21.425  0.00  0.00    +0.149 HD
ATOM     20  C   UNL     1      12.175   5.575  23.334  0.00  0.00    +0.247 C 
ATOM     21  O   UNL     1      12.517   6.407  24.171  0.00  0.00    -0.270 OA
ENDBRANCH  10  20
ENDBRANCH   1  13
BRANCH   7  22
ATOM     22  C   UNL     1       6.927  -1.597  24.178  0.00  0.00    +0.044 A 
ATOM     23  C   UNL     1       7.090  -2.720  25.007  0.00  0.00    +0.037 A 
ATOM     24  C   UNL     1       6.871  -4.055  24.576  0.00  0.00    +0.074 A 
ATOM     25  C   UNL     1       6.557  -4.286  23.234  0.00  0.00    +0.064 A 
ATOM     26  C   UNL     1       6.477  -3.192  22.365  0.00  0.00    +0.021 A 
ATOM     27  C   UNL     1       6.650  -1.880  22.833  0.00  0.00    +0.025 A 
BRANCH  24  28
ATOM     28  C   UNL     1       6.985  -5.150  25.613  0.00  0.00    +0.419 C 
ATOM     29  F   UNL     1       8.119  -5.886  25.441  0.00  0.00    -0.166 F 
ATOM     30  F   UNL     1       5.954  -6.034  25.530  0.00  0.00    -0.166 F 
ATOM     31  F   UNL     1       7.013  -4.729  26.902  0.00  0.00    -0.166 F 
ENDBRANCH  24  28
BRANCH  25  32
ATOM     32  C   UNL     1       6.315  -5.592  22.695  0.00  0.00    +0.100 C 
ATOM     33  N   UNL     1       6.088  -6.642  22.253  0.00  0.00    -0.191 NA
ENDBRANCH  25  32
ENDBRANCH   7  22
TORSDOF 5
ENDMDL
MODEL 9
REMARK VINA RESULT:      -6.7      2.391      3.024
REMARK  Name = 
REMARK  8 active torsions:
REMARK  status: ('A' for Active; 'I' for Inactive)
REMARK    1  A    between atoms: C_1  and  N_2
REMARK    2  A    between atoms: C_3  and  C_5
REMARK    3  A    between atoms: C_9  and  N_12
REMARK    4  A    between atoms: N_15  and  C_21
REMARK    5  A    between atoms: C_18  and  C_19
REMARK    6  A    between atoms: C_18  and  C_20
REMARK    7  A    between atoms: C_24  and  C_25
REMARK    8  A    between atoms: C_27  and  C_29
REMARK                            x       y       z     vdW  Elec       q    Type
REMARK                         _______ _______ _______ _____ _____    ______ ____
ROOT
ATOM      1  N   UNL     1       6.627  -2.699  24.932  0.00  0.00    -0.268 N 
ATOM      2  C   UNL     1       8.068  -2.892  24.844  0.00  0.00    +0.112 C 
ATOM      3  C   UNL     1       8.582  -3.783  23.707  0.00  0.00    +0.042 C 
ATOM      4  C   UNL     1       8.671  -3.275  26.202  0.00  0.00    +0.042 C 
ATOM      5  C   UNL     1       8.505  -1.456  24.500  0.00  0.00    +0.249 C 
ATOM      6  O   UNL     1       9.681  -1.168  24.295  0.00  0.00    -0.272 OA
ATOM      7  N   UNL     1       7.411  -0.611  24.535  0.00  0.00    -0.220 N 
ATOM      8  C   UNL     1       6.351  -1.318  25.097  0.00  0.00    +0.152 C 
ATOM      9  S   UNL     1       5.082  -0.732  26.034  0.00  0.00    -0.017 S 
ENDROOT
BRANCH   1  13
ATOM     10  C   UNL     1       3.536  -5.599  24.413  0.00  0.00    +0.072 A 
ATOM     11  C   UNL     1       3.813  -4.665  23.408  0.00  0.00    +0.018 A 
ATOM     12  C   UNL     1       4.860  -3.742  23.552  0.00  0.00    +0.024 A 
ATOM     13  C   UNL     1       5.657  -3.722  24.700  0.00  0.00    +0.039 A 
ATOM     14  C   UNL     1       5.400  -4.694  25.679  0.00  0.00    +0.062 A 
ATOM     15  C   UNL     1       4.359  -5.617  25.533  0.00  0.00    +0.137 A 
ATOM     16  F   UNL     1       4.157  -6.492  26.531  0.00  0.00    -0.205 F 
BRANCH  10  20
ATOM     17  C   UNL     1       1.482  -8.707  23.672  0.00  0.00    +0.128 C 
ATOM     18  N   UNL     1       2.566  -7.765  23.788  0.00  0.00    -0.314 N 
ATOM     19  H   UNL     1       3.507  -8.077  23.574  0.00  0.00    +0.149 HD
ATOM     20  C   UNL     1       2.352  -6.487  24.253  0.00  0.00    +0.247 C 
ATOM     21  O   UNL     1       1.237  -6.074  24.562  0.00  0.00    -0.270 OA
ENDBRANCH  10  20
ENDBRANCH   1  13
BRANCH   7  22
ATOM     22  C   UNL     1       7.404   0.736  24.019  0.00  0.00    +0.044 A 
ATOM     23  C   UNL     1       7.510   1.863  24.851  0.00  0.00    +0.037 A 
ATOM     24  C   UNL     1       7.539   3.199  24.368  0.00  0.00    +0.074 A 
ATOM     25  C   UNL     1       7.369   3.423  23.000  0.00  0.00    +0.064 A 
ATOM     26  C   UNL     1       7.171   2.323  22.158  0.00  0.00    +0.021 A 
ATOM     27  C   UNL     1       7.197   1.012  22.659  0.00  0.00    +0.025 A 
BRANCH  24  28
ATOM     28  C   UNL     1       7.762   4.301  25.379  0.00  0.00    +0.419 C 
ATOM     29  F   UNL     1       6.763   5.226  25.341  0.00  0.00    -0.166 F 
ATOM     30  F   UNL     1       8.912   4.987  25.133  0.00  0.00    -0.166 F 
ATOM     31  F   UNL     1       7.839   3.898  26.671  0.00  0.00    -0.166 F 
ENDBRANCH  24  28
BRANCH  25  32
ATOM     32  C   UNL     1       7.383   4.728  22.407  0.00  0.00    +0.100 C 
ATOM     33  N   UNL     1       7.371   5.776  21.906  0.00  0.00    -0.191 NA
ENDBRANCH  25  32
ENDBRANCH   7  22
TORSDOF 5
ENDMDL
