MODEL 1
REMARK VINA RESULT:      -5.9      0.000      0.000
REMARK  Name = 
REMARK  12 active torsions:
REMARK  status: ('A' for Active; 'I' for Inactive)
REMARK    1  A    between atoms: C_2  and  N_3
REMARK    2  A    between atoms: C_2  and  C_4
REMARK    3  A    between atoms: C_2  and  C_11
REMARK    4  A    between atoms: C_4  and  C_5
REMARK    5  A    between atoms: C_11  and  O_13
REMARK    6  A    between atoms: C_11  and  C_14
REMARK    7  A    between atoms: C_14  and  C_15
REMARK    8  A    between atoms: C_15  and  C_17
REMARK    9  A    between atoms: C_15  and  C_20
REMARK   10  A    between atoms: C_17  and  C_18
REMARK   11  A    between atoms: C_17  and  C_19
REMARK   12  A    between atoms: C_20  and  O_21
REMARK                            x       y       z     vdW  Elec       q    Type
REMARK                         _______ _______ _______ _____ _____    ______ ____
ROOT
ATOM      1  C   UNL     1       9.805  -1.496  24.195  0.00  0.00    +0.132 C 
ENDROOT
BRANCH   1   2
ATOM      2  O   UNL     1       8.541  -1.186  24.804  0.00  0.00    -0.390 OA
ATOM      3  H   UNL     1       8.207  -1.990  25.236  0.00  0.00    +0.210 HD
ENDBRANCH   1   2
BRANCH   1   4
ATOM      4  C   UNL     1       9.936  -0.730  22.843  0.00  0.00    +0.080 C 
BRANCH   4   5
ATOM      5  N   UNL     1      10.212  -1.656  21.729  0.00  0.00    -0.325 NA
ATOM      6  H   UNL     1      10.704  -2.480  22.070  0.00  0.00    +0.119 HD
ATOM      7  H   UNL     1       9.311  -2.014  21.395  0.00  0.00    +0.119 HD
ENDBRANCH   4   5
BRANCH   4   8
ATOM      8  C   UNL     1       8.663   0.068  22.456  0.00  0.00    +0.024 C 
BRANCH   8   9
ATOM      9  C   UNL     1       8.925   1.399  21.709  0.00  0.00    -0.009 C 
ATOM     10  C   UNL     1      10.237   2.062  22.175  0.00  0.00    +0.003 C 
ATOM     11  C   UNL     1      10.144   2.683  23.570  0.00  0.00    +0.000 C 
ATOM     12  C   UNL     1       8.959   3.636  23.691  0.00  0.00    +0.000 C 
ATOM     13  C   UNL     1       7.654   2.982  23.251  0.00  0.00    +0.000 C 
ATOM     14  C   UNL     1       7.769   2.406  21.841  0.00  0.00    +0.003 C 
ENDBRANCH   8   9
ENDBRANCH   4   8
ENDBRANCH   1   4
BRANCH   1  15
ATOM     15  C   UNL     1       9.836  -3.031  24.080  0.00  0.00    +0.047 C 
BRANCH  15  16
ATOM     16  C   UNL     1       8.653  -3.803  24.697  0.00  0.00    +0.103 C 
BRANCH  16  17
ATOM     17  C   UNL     1       7.778  -4.596  23.690  0.00  0.00    -0.003 C 
ATOM     18  C   UNL     1       7.382  -3.735  22.479  0.00  0.00    +0.008 C 
ATOM     19  C   UNL     1       6.532  -5.243  24.302  0.00  0.00    +0.008 C 
ENDBRANCH  16  17
BRANCH  16  20
ATOM     20  C   UNL     1       9.233  -4.700  25.782  0.00  0.00    +0.308 C 
ATOM     21  O   UNL     1       8.894  -4.686  26.953  0.00  0.00    -0.251 OA
BRANCH  20  22
ATOM     22  O   UNL     1      10.182  -5.557  25.333  0.00  0.00    -0.480 OA
ATOM     23  H   UNL     1      11.075  -5.175  25.234  0.00  0.00    +0.295 HD
ENDBRANCH  20  22
ENDBRANCH  16  20
ENDBRANCH  15  16
ENDBRANCH   1  15
TORSDOF 10
ENDMDL
MODEL 2
REMARK VINA RESULT:      -5.8      2.649      5.797
REMARK  Name = 
REMARK  12 active torsions:
REMARK  status: ('A' for Active; 'I' for Inactive)
REMARK    1  A    between atoms: C_2  and  N_3
REMARK    2  A    between atoms: C_2  and  C_4
REMARK    3  A    between atoms: C_2  and  C_11
REMARK    4  A    between atoms: C_4  and  C_5
REMARK    5  A    between atoms: C_11  and  O_13
REMARK    6  A    between atoms: C_11  and  C_14
REMARK    7  A    between atoms: C_14  and  C_15
REMARK    8  A    between atoms: C_15  and  C_17
REMARK    9  A    between atoms: C_15  and  C_20
REMARK   10  A    between atoms: C_17  and  C_18
REMARK   11  A    between atoms: C_17  and  C_19
REMARK   12  A    between atoms: C_20  and  O_21
REMARK                            x       y       z     vdW  Elec       q    Type
REMARK                         _______ _______ _______ _____ _____    ______ ____
ROOT
ATOM      1  C   UNL     1       9.141  -3.949  25.552  0.00  0.00    +0.132 C 
ENDROOT
BRANCH   1   2
ATOM      2  O   UNL     1      10.054  -4.187  24.468  0.00  0.00    -0.390 OA
ATOM      3  H   UNL     1      10.955  -4.219  24.832  0.00  0.00    +0.210 HD
ENDBRANCH   1   2
BRANCH   1   4
ATOM      4  C   UNL     1       8.054  -5.067  25.576  0.00  0.00    +0.080 C 
BRANCH   4   5
ATOM      5  N   UNL     1       8.045  -5.777  26.867  0.00  0.00    -0.325 NA
ATOM      6  H   UNL     1       8.456  -6.703  26.763  0.00  0.00    +0.119 HD
ATOM      7  H   UNL     1       8.684  -5.282  27.496  0.00  0.00    +0.119 HD
ENDBRANCH   4   5
BRANCH   4   8
ATOM      8  C   UNL     1       6.614  -4.538  25.346  0.00  0.00    +0.024 C 
BRANCH   8   9
ATOM      9  C   UNL     1       5.834  -5.232  24.202  0.00  0.00    -0.009 C 
ATOM     10  C   UNL     1       6.773  -5.672  23.061  0.00  0.00    +0.003 C 
ATOM     11  C   UNL     1       7.289  -4.509  22.213  0.00  0.00    +0.000 C 
ATOM     12  C   UNL     1       6.151  -3.632  21.698  0.00  0.00    +0.000 C 
ATOM     13  C   UNL     1       5.229  -3.175  22.823  0.00  0.00    +0.000 C 
ATOM     14  C   UNL     1       4.702  -4.364  23.626  0.00  0.00    +0.003 C 
ENDBRANCH   8   9
ENDBRANCH   4   8
ENDBRANCH   1   4
BRANCH   1  15
ATOM     15  C   UNL     1       8.604  -2.524  25.326  0.00  0.00    +0.047 C 
BRANCH  15  16
ATOM     16  C   UNL     1       9.373  -1.636  24.328  0.00  0.00    +0.103 C 
BRANCH  16  17
ATOM     17  C   UNL     1       8.592  -1.245  23.046  0.00  0.00    -0.003 C 
ATOM     18  C   UNL     1       9.537  -0.992  21.859  0.00  0.00    +0.008 C 
ATOM     19  C   UNL     1       7.640  -0.057  23.218  0.00  0.00    +0.008 C 
ENDBRANCH  16  17
BRANCH  16  20
ATOM     20  C   UNL     1       9.849  -0.415  25.104  0.00  0.00    +0.308 C 
ATOM     21  O   UNL     1      10.738   0.338  24.744  0.00  0.00    -0.251 OA
BRANCH  20  22
ATOM     22  O   UNL     1       9.177  -0.209  26.264  0.00  0.00    -0.480 OA
ATOM     23  H   UNL     1       9.660   0.307  26.937  0.00  0.00    +0.295 HD
ENDBRANCH  20  22
ENDBRANCH  16  20
ENDBRANCH  15  16
ENDBRANCH   1  15
TORSDOF 10
ENDMDL
MODEL 3
REMARK VINA RESULT:      -5.8      4.842      7.535
REMARK  Name = 
REMARK  12 active torsions:
REMARK  status: ('A' for Active; 'I' for Inactive)
REMARK    1  A    between atoms: C_2  and  N_3
REMARK    2  A    between atoms: C_2  and  C_4
REMARK    3  A    between atoms: C_2  and  C_11
REMARK    4  A    between atoms: C_4  and  C_5
REMARK    5  A    between atoms: C_11  and  O_13
REMARK    6  A    between atoms: C_11  and  C_14
REMARK    7  A    between atoms: C_14  and  C_15
REMARK    8  A    between atoms: C_15  and  C_17
REMARK    9  A    between atoms: C_15  and  C_20
REMARK   10  A    between atoms: C_17  and  C_18
REMARK   11  A    between atoms: C_17  and  C_19
REMARK   12  A    between atoms: C_20  and  O_21
REMARK                            x       y       z     vdW  Elec       q    Type
REMARK                         _______ _______ _______ _____ _____    ______ ____
ROOT
ATOM      1  C   UNL     1       6.567  -5.253  26.890  0.00  0.00    +0.132 C 
ENDROOT
BRANCH   1   2
ATOM      2  O   UNL     1       7.696  -5.840  27.558  0.00  0.00    -0.390 OA
ATOM      3  H   UNL     1       7.429  -6.712  27.894  0.00  0.00    +0.210 HD
ENDBRANCH   1   2
BRANCH   1   4
ATOM      4  C   UNL     1       5.618  -6.379  26.378  0.00  0.00    +0.080 C 
BRANCH   4   5
ATOM      5  N   UNL     1       5.061  -7.160  27.497  0.00  0.00    -0.325 NA
ATOM      6  H   UNL     1       5.156  -8.157  27.312  0.00  0.00    +0.119 HD
ATOM      7  H   UNL     1       5.655  -6.993  28.315  0.00  0.00    +0.119 HD
ENDBRANCH   4   5
BRANCH   4   8
ATOM      8  C   UNL     1       4.412  -5.850  25.558  0.00  0.00    +0.024 C 
BRANCH   8   9
ATOM      9  C   UNL     1       3.976  -6.750  24.376  0.00  0.00    -0.009 C 
ATOM     10  C   UNL     1       3.519  -5.912  23.164  0.00  0.00    +0.003 C 
ATOM     11  C   UNL     1       2.157  -5.245  23.362  0.00  0.00    +0.000 C 
ATOM     12  C   UNL     1       1.089  -6.248  23.786  0.00  0.00    +0.000 C 
ATOM     13  C   UNL     1       1.524  -7.067  24.997  0.00  0.00    +0.000 C 
ATOM     14  C   UNL     1       2.868  -7.749  24.751  0.00  0.00    +0.003 C 
ENDBRANCH   8   9
ENDBRANCH   4   8
ENDBRANCH   1   4
BRANCH   1  15
ATOM     15  C   UNL     1       7.166  -4.356  25.791  0.00  0.00    +0.047 C 
BRANCH  15  16
ATOM     16  C   UNL     1       7.940  -5.060  24.659  0.00  0.00    +0.103 C 
BRANCH  16  17
ATOM     17  C   UNL     1       7.510  -4.674  23.219  0.00  0.00    -0.003 C 
ATOM     18  C   UNL     1       6.394  -3.616  23.223  0.00  0.00    +0.008 C 
ATOM     19  C   UNL     1       7.105  -5.859  22.337  0.00  0.00    +0.008 C 
ENDBRANCH  16  17
BRANCH  16  20
ATOM     20  C   UNL     1       9.419  -4.790  24.907  0.00  0.00    +0.308 C 
ATOM     21  O   UNL     1      10.049  -3.864  24.424  0.00  0.00    -0.251 OA
BRANCH  20  22
ATOM     22  O   UNL     1      10.004  -5.680  25.744  0.00  0.00    -0.480 OA
ATOM     23  H   UNL     1      10.258  -5.326  26.617  0.00  0.00    +0.295 HD
ENDBRANCH  20  22
ENDBRANCH  16  20
ENDBRANCH  15  16
ENDBRANCH   1  15
TORSDOF 10
ENDMDL
MODEL 4
REMARK VINA RESULT:      -5.8      1.951      2.912
REMARK  Name = 
REMARK  12 active torsions:
REMARK  status: ('A' for Active; 'I' for Inactive)
REMARK    1  A    between atoms: C_2  and  N_3
REMARK    2  A    between atoms: C_2  and  C_4
REMARK    3  A    between atoms: C_2  and  C_11
REMARK    4  A    between atoms: C_4  and  C_5
REMARK    5  A    between atoms: C_11  and  O_13
REMARK    6  A    between atoms: C_11  and  C_14
REMARK    7  A    between atoms: C_14  and  C_15
REMARK    8  A    between atoms: C_15  and  C_17
REMARK    9  A    between atoms: C_15  and  C_20
REMARK   10  A    between atoms: C_17  and  C_18
REMARK   11  A    between atoms: C_17  and  C_19
REMARK   12  A    between atoms: C_20  and  O_21
REMARK                            x       y       z     vdW  Elec       q    Type
REMARK                         _______ _______ _______ _____ _____    ______ ____
ROOT
ATOM      1  C   UNL     1       8.744  -3.651  23.974  0.00  0.00    +0.132 C 
ENDROOT
BRANCH   1   2
ATOM      2  O   UNL     1       9.972  -4.052  24.603  0.00  0.00    -0.390 OA
ATOM      3  H   UNL     1       9.856  -3.987  25.565  0.00  0.00    +0.210 HD
ENDBRANCH   1   2
BRANCH   1   4
ATOM      4  C   UNL     1       8.132  -2.442  24.746  0.00  0.00    +0.080 C 
BRANCH   4   5
ATOM      5  N   UNL     1       8.651  -2.369  26.123  0.00  0.00    -0.325 NA
ATOM      6  H   UNL     1       9.060  -3.262  26.393  0.00  0.00    +0.119 HD
ATOM      7  H   UNL     1       9.439  -1.715  26.122  0.00  0.00    +0.119 HD
ENDBRANCH   4   5
BRANCH   4   8
ATOM      8  C   UNL     1       8.426  -1.070  24.084  0.00  0.00    +0.024 C 
BRANCH   8   9
ATOM      9  C   UNL     1       9.850  -0.916  23.495  0.00  0.00    -0.009 C 
ATOM     10  C   UNL     1      10.602   0.269  24.134  0.00  0.00    +0.003 C 
ATOM     11  C   UNL     1      10.095   1.635  23.671  0.00  0.00    +0.000 C 
ATOM     12  C   UNL     1      10.064   1.743  22.149  0.00  0.00    +0.000 C 
ATOM     13  C   UNL     1       9.304   0.587  21.510  0.00  0.00    +0.000 C 
ATOM     14  C   UNL     1       9.860  -0.762  21.965  0.00  0.00    +0.003 C 
ENDBRANCH   8   9
ENDBRANCH   4   8
ENDBRANCH   1   4
BRANCH   1  15
ATOM     15  C   UNL     1       7.867  -4.917  23.948  0.00  0.00    +0.047 C 
BRANCH  15  16
ATOM     16  C   UNL     1       6.559  -4.879  24.763  0.00  0.00    +0.103 C 
BRANCH  16  17
ATOM     17  C   UNL     1       5.288  -5.342  24.004  0.00  0.00    -0.003 C 
ATOM     18  C   UNL     1       5.625  -5.868  22.598  0.00  0.00    +0.008 C 
ATOM     19  C   UNL     1       4.180  -4.287  23.915  0.00  0.00    +0.008 C 
ENDBRANCH  16  17
BRANCH  16  20
ATOM     20  C   UNL     1       6.804  -5.700  26.023  0.00  0.00    +0.308 C 
ATOM     21  O   UNL     1       5.950  -6.335  26.618  0.00  0.00    -0.251 OA
BRANCH  20  22
ATOM     22  O   UNL     1       8.092  -5.683  26.445  0.00  0.00    -0.480 OA
ATOM     23  H   UNL     1       8.720  -5.235  25.846  0.00  0.00    +0.295 HD
ENDBRANCH  20  22
ENDBRANCH  16  20
ENDBRANCH  15  16
ENDBRANCH   1  15
TORSDOF 10
ENDMDL
MODEL 5
REMARK VINA RESULT:      -5.8      2.407      6.499
REMARK  Name = 
REMARK  12 active torsions:
REMARK  status: ('A' for Active; 'I' for Inactive)
REMARK    1  A    between atoms: C_2  and  N_3
REMARK    2  A    between atoms: C_2  and  C_4
REMARK    3  A    between atoms: C_2  and  C_11
REMARK    4  A    between atoms: C_4  and  C_5
REMARK    5  A    between atoms: C_11  and  O_13
REMARK    6  A    between atoms: C_11  and  C_14
REMARK    7  A    between atoms: C_14  and  C_15
REMARK    8  A    between atoms: C_15  and  C_17
REMARK    9  A    between atoms: C_15  and  C_20
REMARK   10  A    between atoms: C_17  and  C_18
REMARK   11  A    between atoms: C_17  and  C_19
REMARK   12  A    between atoms: C_20  and  O_21
REMARK                            x       y       z     vdW  Elec       q    Type
REMARK                         _______ _______ _______ _____ _____    ______ ____
ROOT
ATOM      1  C   UNL     1       7.537  -0.882  22.683  0.00  0.00    +0.132 C 
ENDROOT
BRANCH   1   2
ATOM      2  O   UNL     1       6.215  -1.333  23.022  0.00  0.00    -0.390 OA
ATOM      3  H   UNL     1       5.575  -0.696  22.663  0.00  0.00    +0.210 HD
ENDBRANCH   1   2
BRANCH   1   4
ATOM      4  C   UNL     1       8.479  -2.111  22.502  0.00  0.00    +0.080 C 
BRANCH   4   5
ATOM      5  N   UNL     1       9.697  -1.746  21.757  0.00  0.00    -0.325 NA
ATOM      6  H   UNL     1      10.436  -2.425  21.936  0.00  0.00    +0.119 HD
ATOM      7  H   UNL     1       9.491  -1.849  20.759  0.00  0.00    +0.119 HD
ENDBRANCH   4   5
BRANCH   4   8
ATOM      8  C   UNL     1       8.945  -2.739  23.842  0.00  0.00    +0.024 C 
BRANCH   8   9
ATOM      9  C   UNL     1       8.551  -4.223  24.044  0.00  0.00    -0.009 C 
ATOM     10  C   UNL     1       7.044  -4.375  24.331  0.00  0.00    +0.003 C 
ATOM     11  C   UNL     1       6.640  -3.915  25.733  0.00  0.00    +0.000 C 
ATOM     12  C   UNL     1       7.488  -4.577  26.814  0.00  0.00    +0.000 C 
ATOM     13  C   UNL     1       8.980  -4.413  26.550  0.00  0.00    +0.000 C 
ATOM     14  C   UNL     1       9.355  -4.917  25.157  0.00  0.00    +0.003 C 
ENDBRANCH   8   9
ENDBRANCH   4   8
ENDBRANCH   1   4
BRANCH   1  15
ATOM     15  C   UNL     1       7.939   0.086  23.810  0.00  0.00    +0.047 C 
BRANCH  15  16
ATOM     16  C   UNL     1       8.640   1.394  23.392  0.00  0.00    +0.103 C 
BRANCH  16  17
ATOM     17  C   UNL     1      10.187   1.387  23.508  0.00  0.00    -0.003 C 
ATOM     18  C   UNL     1      10.663   0.547  24.706  0.00  0.00    +0.008 C 
ATOM     19  C   UNL     1      10.828   2.777  23.557  0.00  0.00    +0.008 C 
ENDBRANCH  16  17
BRANCH  16  20
ATOM     20  C   UNL     1       8.173   1.708  21.976  0.00  0.00    +0.308 C 
ATOM     21  O   UNL     1       7.143   2.298  21.696  0.00  0.00    -0.251 OA
BRANCH  20  22
ATOM     22  O   UNL     1       9.024   1.279  21.013  0.00  0.00    -0.480 OA
ATOM     23  H   UNL     1       9.349   1.971  20.406  0.00  0.00    +0.295 HD
ENDBRANCH  20  22
ENDBRANCH  16  20
ENDBRANCH  15  16
ENDBRANCH   1  15
TORSDOF 10
ENDMDL
MODEL 6
REMARK VINA RESULT:      -5.7      2.060      2.686
REMARK  Name = 
REMARK  12 active torsions:
REMARK  status: ('A' for Active; 'I' for Inactive)
REMARK    1  A    between atoms: C_2  and  N_3
REMARK    2  A    between atoms: C_2  and  C_4
REMARK    3  A    between atoms: C_2  and  C_11
REMARK    4  A    between atoms: C_4  and  C_5
REMARK    5  A    between atoms: C_11  and  O_13
REMARK    6  A    between atoms: C_11  and  C_14
REMARK    7  A    between atoms: C_14  and  C_15
REMARK    8  A    between atoms: C_15  and  C_17
REMARK    9  A    between atoms: C_15  and  C_20
REMARK   10  A    between atoms: C_17  and  C_18
REMARK   11  A    between atoms: C_17  and  C_19
REMARK   12  A    between atoms: C_20  and  O_21
REMARK                            x       y       z     vdW  Elec       q    Type
REMARK                         _______ _______ _______ _____ _____    ______ ____
ROOT
ATOM      1  C   UNL     1       8.241  -2.261  26.318  0.00  0.00    +0.132 C 
ENDROOT
BRANCH   1   2
ATOM      2  O   UNL     1       6.861  -2.589  26.546  0.00  0.00    -0.390 OA
ATOM      3  H   UNL     1       6.762  -2.861  27.473  0.00  0.00    +0.210 HD
ENDBRANCH   1   2
BRANCH   1   4
ATOM      4  C   UNL     1       8.445  -0.722  26.464  0.00  0.00    +0.080 C 
BRANCH   4   5
ATOM      5  N   UNL     1       9.178  -0.394  27.700  0.00  0.00    -0.325 NA
ATOM      6  H   UNL     1       8.636   0.255  28.269  0.00  0.00    +0.119 HD
ATOM      7  H   UNL     1       9.229  -1.248  28.265  0.00  0.00    +0.119 HD
ENDBRANCH   4   5
BRANCH   4   8
ATOM      8  C   UNL     1       9.238  -0.086  25.293  0.00  0.00    +0.024 C 
BRANCH   8   9
ATOM      9  C   UNL     1       8.447   0.942  24.446  0.00  0.00    -0.009 C 
ATOM     10  C   UNL     1       8.139   0.397  23.036  0.00  0.00    +0.003 C 
ATOM     11  C   UNL     1       9.363   0.350  22.120  0.00  0.00    +0.000 C 
ATOM     12  C   UNL     1      10.080   1.695  22.059  0.00  0.00    +0.000 C 
ATOM     13  C   UNL     1      10.407   2.231  23.448  0.00  0.00    +0.000 C 
ATOM     14  C   UNL     1       9.158   2.301  24.325  0.00  0.00    +0.003 C 
ENDBRANCH   8   9
ENDBRANCH   4   8
ENDBRANCH   1   4
BRANCH   1  15
ATOM     15  C   UNL     1       8.572  -2.832  24.928  0.00  0.00    +0.047 C 
BRANCH  15  16
ATOM     16  C   UNL     1       7.850  -4.131  24.515  0.00  0.00    +0.103 C 
BRANCH  16  17
ATOM     17  C   UNL     1       7.763  -4.388  22.987  0.00  0.00    -0.003 C 
ATOM     18  C   UNL     1       7.187  -3.173  22.239  0.00  0.00    +0.008 C 
ATOM     19  C   UNL     1       6.994  -5.654  22.597  0.00  0.00    +0.008 C 
ENDBRANCH  16  17
BRANCH  16  20
ATOM     20  C   UNL     1       8.547  -5.271  25.248  0.00  0.00    +0.308 C 
ATOM     21  O   UNL     1       8.083  -5.874  26.200  0.00  0.00    -0.251 OA
BRANCH  20  22
ATOM     22  O   UNL     1       9.762  -5.586  24.738  0.00  0.00    -0.480 OA
ATOM     23  H   UNL     1      10.302  -6.184  25.289  0.00  0.00    +0.295 HD
ENDBRANCH  20  22
ENDBRANCH  16  20
ENDBRANCH  15  16
ENDBRANCH   1  15
TORSDOF 10
ENDMDL
MODEL 7
REMARK VINA RESULT:      -5.7      1.917      3.055
REMARK  Name = 
REMARK  12 active torsions:
REMARK  status: ('A' for Active; 'I' for Inactive)
REMARK    1  A    between atoms: C_2  and  N_3
REMARK    2  A    between atoms: C_2  and  C_4
REMARK    3  A    between atoms: C_2  and  C_11
REMARK    4  A    between atoms: C_4  and  C_5
REMARK    5  A    between atoms: C_11  and  O_13
REMARK    6  A    between atoms: C_11  and  C_14
REMARK    7  A    between atoms: C_14  and  C_15
REMARK    8  A    between atoms: C_15  and  C_17
REMARK    9  A    between atoms: C_15  and  C_20
REMARK   10  A    between atoms: C_17  and  C_18
REMARK   11  A    between atoms: C_17  and  C_19
REMARK   12  A    between atoms: C_20  and  O_21
REMARK                            x       y       z     vdW  Elec       q    Type
REMARK                         _______ _______ _______ _____ _____    ______ ____
ROOT
ATOM      1  C   UNL     1       7.307  -3.480  24.017  0.00  0.00    +0.132 C 
ENDROOT
BRANCH   1   2
ATOM      2  O   UNL     1       7.405  -3.538  22.584  0.00  0.00    -0.390 OA
ATOM      3  H   UNL     1       7.945  -4.311  22.348  0.00  0.00    +0.210 HD
ENDBRANCH   1   2
BRANCH   1   4
ATOM      4  C   UNL     1       8.558  -2.752  24.597  0.00  0.00    +0.080 C 
BRANCH   4   5
ATOM      5  N   UNL     1       9.800  -3.468  24.255  0.00  0.00    -0.325 NA
ATOM      6  H   UNL     1      10.319  -3.697  25.101  0.00  0.00    +0.119 HD
ATOM      7  H   UNL     1       9.534  -4.377  23.863  0.00  0.00    +0.119 HD
ENDBRANCH   4   5
BRANCH   4   8
ATOM      8  C   UNL     1       8.724  -1.298  24.083  0.00  0.00    +0.024 C 
BRANCH   8   9
ATOM      9  C   UNL     1      10.083  -0.991  23.407  0.00  0.00    -0.009 C 
ATOM     10  C   UNL     1      10.749   0.261  24.015  0.00  0.00    +0.003 C 
ATOM     11  C   UNL     1      10.073   1.570  23.605  0.00  0.00    +0.000 C 
ATOM     12  C   UNL     1       9.932   1.687  22.091  0.00  0.00    +0.000 C 
ATOM     13  C   UNL     1       9.256   0.463  21.484  0.00  0.00    +0.000 C 
ATOM     14  C   UNL     1       9.978  -0.824  21.882  0.00  0.00    +0.003 C 
ENDBRANCH   8   9
ENDBRANCH   4   8
ENDBRANCH   1   4
BRANCH   1  15
ATOM     15  C   UNL     1       7.134  -4.940  24.473  0.00  0.00    +0.047 C 
BRANCH  15  16
ATOM     16  C   UNL     1       6.239  -5.187  25.704  0.00  0.00    +0.103 C 
BRANCH  16  17
ATOM     17  C   UNL     1       5.252  -6.379  25.581  0.00  0.00    -0.003 C 
ATOM     18  C   UNL     1       4.732  -6.540  24.143  0.00  0.00    +0.008 C 
ATOM     19  C   UNL     1       4.076  -6.334  26.561  0.00  0.00    +0.008 C 
ENDBRANCH  16  17
BRANCH  16  20
ATOM     20  C   UNL     1       7.170  -5.336  26.900  0.00  0.00    +0.308 C 
ATOM     21  O   UNL     1       6.906  -4.985  28.037  0.00  0.00    -0.251 OA
BRANCH  20  22
ATOM     22  O   UNL     1       8.355  -5.921  26.600  0.00  0.00    -0.480 OA
ATOM     23  H   UNL     1       8.365  -6.895  26.658  0.00  0.00    +0.295 HD
ENDBRANCH  20  22
ENDBRANCH  16  20
ENDBRANCH  15  16
ENDBRANCH   1  15
TORSDOF 10
ENDMDL
MODEL 8
REMARK VINA RESULT:      -5.7      2.614      6.270
REMARK  Name = 
REMARK  12 active torsions:
REMARK  status: ('A' for Active; 'I' for Inactive)
REMARK    1  A    between atoms: C_2  and  N_3
REMARK    2  A    between atoms: C_2  and  C_4
REMARK    3  A    between atoms: C_2  and  C_11
REMARK    4  A    between atoms: C_4  and  C_5
REMARK    5  A    between atoms: C_11  and  O_13
REMARK    6  A    between atoms: C_11  and  C_14
REMARK    7  A    between atoms: C_14  and  C_15
REMARK    8  A    between atoms: C_15  and  C_17
REMARK    9  A    between atoms: C_15  and  C_20
REMARK   10  A    between atoms: C_17  and  C_18
REMARK   11  A    between atoms: C_17  and  C_19
REMARK   12  A    between atoms: C_20  and  O_21
REMARK                            x       y       z     vdW  Elec       q    Type
REMARK                         _______ _______ _______ _____ _____    ______ ____
ROOT
ATOM      1  C   UNL     1      10.426  -1.701  23.253  0.00  0.00    +0.132 C 
ENDROOT
BRANCH   1   2
ATOM      2  O   UNL     1      10.298  -1.516  21.833  0.00  0.00    -0.390 OA
ATOM      3  H   UNL     1      10.472  -2.368  21.399  0.00  0.00    +0.210 HD
ENDBRANCH   1   2
BRANCH   1   4
ATOM      4  C   UNL     1       9.394  -2.765  23.737  0.00  0.00    +0.080 C 
BRANCH   4   5
ATOM      5  N   UNL     1       8.859  -2.425  25.067  0.00  0.00    -0.325 NA
ATOM      6  H   UNL     1       7.932  -2.010  24.979  0.00  0.00    +0.119 HD
ATOM      7  H   UNL     1       8.701  -3.303  25.571  0.00  0.00    +0.119 HD
ENDBRANCH   4   5
BRANCH   4   8
ATOM      8  C   UNL     1       8.174  -2.922  22.792  0.00  0.00    +0.024 C 
BRANCH   8   9
ATOM      9  C   UNL     1       7.002  -3.757  23.365  0.00  0.00    -0.009 C 
ATOM     10  C   UNL     1       7.363  -5.254  23.454  0.00  0.00    +0.003 C 
ATOM     11  C   UNL     1       7.401  -5.954  22.095  0.00  0.00    +0.000 C 
ATOM     12  C   UNL     1       6.116  -5.731  21.304  0.00  0.00    +0.000 C 
ATOM     13  C   UNL     1       5.762  -4.252  21.193  0.00  0.00    +0.000 C 
ATOM     14  C   UNL     1       5.695  -3.593  22.570  0.00  0.00    +0.003 C 
ENDBRANCH   8   9
ENDBRANCH   4   8
ENDBRANCH   1   4
BRANCH   1  15
ATOM     15  C   UNL     1      10.249  -0.299  23.863  0.00  0.00    +0.047 C 
BRANCH  15  16
ATOM     16  C   UNL     1       9.327   0.681  23.110  0.00  0.00    +0.103 C 
BRANCH  16  17
ATOM     17  C   UNL     1       8.017   1.064  23.850  0.00  0.00    -0.003 C 
ATOM     18  C   UNL     1       8.195   1.024  25.378  0.00  0.00    +0.008 C 
ATOM     19  C   UNL     1       6.792   0.239  23.444  0.00  0.00    +0.008 C 
ENDBRANCH  16  17
BRANCH  16  20
ATOM     20  C   UNL     1      10.170   1.903  22.770  0.00  0.00    +0.308 C 
ATOM     21  O   UNL     1      10.848   2.527  23.568  0.00  0.00    -0.251 OA
BRANCH  20  22
ATOM     22  O   UNL     1      10.121   2.253  21.461  0.00  0.00    -0.480 OA
ATOM     23  H   UNL     1      10.946   2.107  20.960  0.00  0.00    +0.295 HD
ENDBRANCH  20  22
ENDBRANCH  16  20
ENDBRANCH  15  16
ENDBRANCH   1  15
TORSDOF 10
ENDMDL
MODEL 9
REMARK VINA RESULT:      -5.6      2.007      2.636
REMARK  Name = 
REMARK  12 active torsions:
REMARK  status: ('A' for Active; 'I' for Inactive)
REMARK    1  A    between atoms: C_2  and  N_3
REMARK    2  A    between atoms: C_2  and  C_4
REMARK    3  A    between atoms: C_2  and  C_11
REMARK    4  A    between atoms: C_4  and  C_5
REMARK    5  A    between atoms: C_11  and  O_13
REMARK    6  A    between atoms: C_11  and  C_14
REMARK    7  A    between atoms: C_14  and  C_15
REMARK    8  A    between atoms: C_15  and  C_17
REMARK    9  A    between atoms: C_15  and  C_20
REMARK   10  A    between atoms: C_17  and  C_18
REMARK   11  A    between atoms: C_17  and  C_19
REMARK   12  A    between atoms: C_20  and  O_21
REMARK                            x       y       z     vdW  Elec       q    Type
REMARK                         _______ _______ _______ _____ _____    ______ ____
ROOT
ATOM      1  C   UNL     1       9.344  -2.711  23.658  0.00  0.00    +0.132 C 
ENDROOT
BRANCH   1   2
ATOM      2  O   UNL     1       9.045  -2.159  24.951  0.00  0.00    -0.390 OA
ATOM      3  H   UNL     1       8.909  -1.202  24.848  0.00  0.00    +0.210 HD
ENDBRANCH   1   2
BRANCH   1   4
ATOM      4  C   UNL     1      10.280  -1.739  22.878  0.00  0.00    +0.080 C 
BRANCH   4   5
ATOM      5  N   UNL     1       9.878  -1.628  21.464  0.00  0.00    -0.325 NA
ATOM      6  H   UNL     1      10.650  -1.267  20.906  0.00  0.00    +0.119 HD
ATOM      7  H   UNL     1       9.728  -2.579  21.111  0.00  0.00    +0.119 HD
ENDBRANCH   4   5
BRANCH   4   8
ATOM      8  C   UNL     1      10.296  -0.298  23.452  0.00  0.00    +0.024 C 
BRANCH   8   9
ATOM      9  C   UNL     1       9.338   0.698  22.753  0.00  0.00    -0.009 C 
ATOM     10  C   UNL     1      10.094   1.932  22.219  0.00  0.00    +0.003 C 
ATOM     11  C   UNL     1      10.544   2.895  23.318  0.00  0.00    +0.000 C 
ATOM     12  C   UNL     1       9.388   3.295  24.231  0.00  0.00    +0.000 C 
ATOM     13  C   UNL     1       8.648   2.081  24.781  0.00  0.00    +0.000 C 
ATOM     14  C   UNL     1       8.180   1.160  23.655  0.00  0.00    +0.003 C 
ENDBRANCH   8   9
ENDBRANCH   4   8
ENDBRANCH   1   4
BRANCH   1  15
ATOM     15  C   UNL     1       7.977  -2.968  22.999  0.00  0.00    +0.047 C 
BRANCH  15  16
ATOM     16  C   UNL     1       7.391  -4.388  23.133  0.00  0.00    +0.103 C 
BRANCH  16  17
ATOM     17  C   UNL     1       6.467  -4.613  24.360  0.00  0.00    -0.003 C 
ATOM     18  C   UNL     1       5.684  -3.340  24.723  0.00  0.00    +0.008 C 
ATOM     19  C   UNL     1       7.180  -5.161  25.601  0.00  0.00    +0.008 C 
ENDBRANCH  16  17
BRANCH  16  20
ATOM     20  C   UNL     1       6.683  -4.696  21.820  0.00  0.00    +0.308 C 
ATOM     21  O   UNL     1       5.876  -3.963  21.275  0.00  0.00    -0.251 OA
BRANCH  20  22
ATOM     22  O   UNL     1       7.039  -5.884  21.273  0.00  0.00    -0.480 OA
ATOM     23  H   UNL     1       6.322  -6.544  21.209  0.00  0.00    +0.295 HD
ENDBRANCH  20  22
ENDBRANCH  16  20
ENDBRANCH  15  16
ENDBRANCH   1  15
TORSDOF 10
ENDMDL
