MODEL 1
REMARK VINA RESULT:      -6.4      0.000      0.000
REMARK  Name = 
REMARK  8 active torsions:
REMARK  status: ('A' for Active; 'I' for Inactive)
REMARK    1  A    between atoms: C_1  and  C_2
REMARK    2  A    between atoms: C_2  and  C_3
REMARK    3  A    between atoms: C_3  and  C_4
REMARK    4  A    between atoms: C_9  and  C_10
REMARK    5  A    between atoms: C_10  and  C_11
REMARK    6  A    between atoms: C_15  and  C_16
REMARK    7  A    between atoms: C_16  and  C_17
REMARK    8  A    between atoms: C_17  and  O_18
REMARK                            x       y       z     vdW  Elec       q    Type
REMARK                         _______ _______ _______ _____ _____    ______ ____
ROOT
ATOM      1  C   UNL     1       7.689  -4.578  25.693  0.00  0.00    -0.046 A 
ATOM      2  C   UNL     1       6.719  -4.771  24.700  0.00  0.00    +0.009 A 
ATOM      3  C   UNL     1       6.794  -4.147  23.432  0.00  0.00    -0.013 A 
ATOM      4  C   UNL     1       7.873  -3.258  23.243  0.00  0.00    +0.050 A 
ATOM      5  N   UNL     1       8.214  -2.464  22.164  0.00  0.00    -0.357 N 
ATOM      6  H   UNL     1       7.703  -2.425  21.291  0.00  0.00    +0.166 HD
ATOM      7  C   UNL     1       9.307  -1.684  22.468  0.00  0.00    +0.026 A 
ATOM      8  C   UNL     1       9.777  -2.100  23.694  0.00  0.00    +0.031 A 
ATOM      9  C   UNL     1       8.859  -3.052  24.208  0.00  0.00    +0.000 A 
ATOM     10  C   UNL     1       8.786  -3.748  25.426  0.00  0.00    +0.013 A 
ENDROOT
BRANCH   1  11
ATOM     11  C   UNL     1       7.580  -5.268  27.036  0.00  0.00    +0.035 C 
BRANCH  11  13
ATOM     12  C   UNL     1       6.030  -6.309  28.742  0.00  0.00    +0.004 C 
ATOM     13  C   UNL     1       6.130  -5.618  27.393  0.00  0.00    +0.001 C 
ENDBRANCH  11  13
ENDBRANCH   1  11
BRANCH   3  14
ATOM     14  C   UNL     1       5.757  -4.463  22.375  0.00  0.00    +0.157 C 
BRANCH  14  15
ATOM     15  C   UNL     1       6.074  -5.552  21.375  0.00  0.00    +0.309 C 
ATOM     16  O   UNL     1       6.068  -5.344  20.166  0.00  0.00    -0.251 OA
BRANCH  15  17
ATOM     17  O   UNL     1       6.359  -6.773  21.869  0.00  0.00    -0.480 OA
ATOM     18  H   UNL     1       6.400  -6.821  22.846  0.00  0.00    +0.295 HD
ENDBRANCH  15  17
ENDBRANCH  14  15
ENDBRANCH   3  14
BRANCH   7  19
ATOM     19  C   UNL     1       9.819  -0.619  21.550  0.00  0.00    +0.148 C 
BRANCH  19  20
ATOM     20  C   UNL     1       9.111   0.726  21.700  0.00  0.00    +0.216 C 
ATOM     21  O   UNL     1       7.924   0.797  22.015  0.00  0.00    -0.276 OA
ATOM     22  N   UNL     1       9.814   1.874  21.485  0.00  0.00    -0.329 N 
ATOM     23  H   UNL     1       9.289   2.738  21.521  0.00  0.00    +0.145 HD
ATOM     24  H   UNL     1      10.690   1.873  20.978  0.00  0.00    +0.145 HD
ENDBRANCH  19  20
ENDBRANCH   7  19
TORSDOF 7
ENDMDL
MODEL 2
REMARK VINA RESULT:      -6.3      2.646      5.952
REMARK  Name = 
REMARK  8 active torsions:
REMARK  status: ('A' for Active; 'I' for Inactive)
REMARK    1  A    between atoms: C_1  and  C_2
REMARK    2  A    between atoms: C_2  and  C_3
REMARK    3  A    between atoms: C_3  and  C_4
REMARK    4  A    between atoms: C_9  and  C_10
REMARK    5  A    between atoms: C_10  and  C_11
REMARK    6  A    between atoms: C_15  and  C_16
REMARK    7  A    between atoms: C_16  and  C_17
REMARK    8  A    between atoms: C_17  and  O_18
REMARK                            x       y       z     vdW  Elec       q    Type
REMARK                         _______ _______ _______ _____ _____    ______ ____
ROOT
ATOM      1  C   UNL     1       9.166  -2.083  22.929  0.00  0.00    -0.046 A 
ATOM      2  C   UNL     1       8.059  -2.638  22.272  0.00  0.00    +0.009 A 
ATOM      3  C   UNL     1       7.141  -3.497  22.920  0.00  0.00    -0.013 A 
ATOM      4  C   UNL     1       7.438  -3.822  24.260  0.00  0.00    +0.050 A 
ATOM      5  N   UNL     1       6.789  -4.651  25.156  0.00  0.00    -0.357 N 
ATOM      6  H   UNL     1       5.939  -5.163  24.958  0.00  0.00    +0.166 HD
ATOM      7  C   UNL     1       7.499  -4.736  26.332  0.00  0.00    +0.026 A 
ATOM      8  C   UNL     1       8.528  -3.822  26.256  0.00  0.00    +0.031 A 
ATOM      9  C   UNL     1       8.525  -3.279  24.945  0.00  0.00    +0.000 A 
ATOM     10  C   UNL     1       9.372  -2.373  24.285  0.00  0.00    +0.013 A 
ENDROOT
BRANCH   1  11
ATOM     11  C   UNL     1      10.125  -1.163  22.205  0.00  0.00    +0.035 C 
BRANCH  11  13
ATOM     12  C   UNL     1       9.847   1.337  21.943  0.00  0.00    +0.004 C 
ATOM     13  C   UNL     1       9.397  -0.033  21.466  0.00  0.00    +0.001 C 
ENDBRANCH  11  13
ENDBRANCH   1  11
BRANCH   3  14
ATOM     14  C   UNL     1       5.921  -3.995  22.174  0.00  0.00    +0.157 C 
BRANCH  14  15
ATOM     15  C   UNL     1       5.941  -5.415  21.652  0.00  0.00    +0.309 C 
ATOM     16  O   UNL     1       5.992  -5.662  20.452  0.00  0.00    -0.251 OA
BRANCH  15  17
ATOM     17  O   UNL     1       5.893  -6.405  22.565  0.00  0.00    -0.480 OA
ATOM     18  H   UNL     1       5.612  -6.124  23.459  0.00  0.00    +0.295 HD
ENDBRANCH  15  17
ENDBRANCH  14  15
ENDBRANCH   3  14
BRANCH   7  19
ATOM     19  C   UNL     1       7.123  -5.673  27.437  0.00  0.00    +0.148 C 
BRANCH  19  20
ATOM     20  C   UNL     1       5.625  -5.955  27.531  0.00  0.00    +0.216 C 
ATOM     21  O   UNL     1       4.790  -5.069  27.353  0.00  0.00    -0.276 OA
ATOM     22  N   UNL     1       5.205  -7.221  27.813  0.00  0.00    -0.329 N 
ATOM     23  H   UNL     1       4.209  -7.348  27.941  0.00  0.00    +0.145 HD
ATOM     24  H   UNL     1       5.825  -7.907  28.222  0.00  0.00    +0.145 HD
ENDBRANCH  19  20
ENDBRANCH   7  19
TORSDOF 7
ENDMDL
MODEL 3
REMARK VINA RESULT:      -6.1      2.542      4.045
REMARK  Name = 
REMARK  8 active torsions:
REMARK  status: ('A' for Active; 'I' for Inactive)
REMARK    1  A    between atoms: C_1  and  C_2
REMARK    2  A    between atoms: C_2  and  C_3
REMARK    3  A    between atoms: C_3  and  C_4
REMARK    4  A    between atoms: C_9  and  C_10
REMARK    5  A    between atoms: C_10  and  C_11
REMARK    6  A    between atoms: C_15  and  C_16
REMARK    7  A    between atoms: C_16  and  C_17
REMARK    8  A    between atoms: C_17  and  O_18
REMARK                            x       y       z     vdW  Elec       q    Type
REMARK                         _______ _______ _______ _____ _____    ______ ____
ROOT
ATOM      1  C   UNL     1       5.993  -3.545  23.394  0.00  0.00    -0.046 A 
ATOM      2  C   UNL     1       6.667  -3.987  24.541  0.00  0.00    +0.009 A 
ATOM      3  C   UNL     1       7.696  -3.235  25.155  0.00  0.00    -0.013 A 
ATOM      4  C   UNL     1       8.057  -2.036  24.508  0.00  0.00    +0.050 A 
ATOM      5  N   UNL     1       9.032  -1.102  24.808  0.00  0.00    -0.357 N 
ATOM      6  H   UNL     1       9.654  -1.152  25.605  0.00  0.00    +0.166 HD
ATOM      7  C   UNL     1       9.083  -0.131  23.834  0.00  0.00    +0.026 A 
ATOM      8  C   UNL     1       8.020  -0.348  22.985  0.00  0.00    +0.031 A 
ATOM      9  C   UNL     1       7.400  -1.564  23.372  0.00  0.00    +0.000 A 
ATOM     10  C   UNL     1       6.334  -2.306  22.835  0.00  0.00    +0.013 A 
ENDROOT
BRANCH   1  11
ATOM     11  C   UNL     1       4.892  -4.372  22.767  0.00  0.00    +0.035 C 
BRANCH  11  13
ATOM     12  C   UNL     1       6.397  -5.721  21.246  0.00  0.00    +0.004 C 
ATOM     13  C   UNL     1       5.374  -5.773  22.368  0.00  0.00    +0.001 C 
ENDBRANCH  11  13
ENDBRANCH   1  11
BRANCH   3  14
ATOM     14  C   UNL     1       8.326  -3.732  26.440  0.00  0.00    +0.157 C 
BRANCH  14  15
ATOM     15  C   UNL     1       8.229  -5.208  26.752  0.00  0.00    +0.309 C 
ATOM     16  O   UNL     1       7.491  -5.636  27.633  0.00  0.00    -0.251 OA
BRANCH  15  17
ATOM     17  O   UNL     1       8.997  -6.041  26.023  0.00  0.00    -0.480 OA
ATOM     18  H   UNL     1       8.914  -6.987  26.259  0.00  0.00    +0.295 HD
ENDBRANCH  15  17
ENDBRANCH  14  15
ENDBRANCH   3  14
BRANCH   7  19
ATOM     19  C   UNL     1      10.136   0.933  23.808  0.00  0.00    +0.148 C 
BRANCH  19  20
ATOM     20  C   UNL     1       9.762   2.159  22.979  0.00  0.00    +0.216 C 
ATOM     21  O   UNL     1       9.082   3.071  23.448  0.00  0.00    -0.276 OA
ATOM     22  N   UNL     1      10.197   2.246  21.690  0.00  0.00    -0.329 N 
ATOM     23  H   UNL     1       9.864   3.037  21.154  0.00  0.00    +0.145 HD
ATOM     24  H   UNL     1      10.519   1.433  21.182  0.00  0.00    +0.145 HD
ENDBRANCH  19  20
ENDBRANCH   7  19
TORSDOF 7
ENDMDL
MODEL 4
REMARK VINA RESULT:      -5.9      1.125      1.308
REMARK  Name = 
REMARK  8 active torsions:
REMARK  status: ('A' for Active; 'I' for Inactive)
REMARK    1  A    between atoms: C_1  and  C_2
REMARK    2  A    between atoms: C_2  and  C_3
REMARK    3  A    between atoms: C_3  and  C_4
REMARK    4  A    between atoms: C_9  and  C_10
REMARK    5  A    between atoms: C_10  and  C_11
REMARK    6  A    between atoms: C_15  and  C_16
REMARK    7  A    between atoms: C_16  and  C_17
REMARK    8  A    between atoms: C_17  and  O_18
REMARK                            x       y       z     vdW  Elec       q    Type
REMARK                         _______ _______ _______ _____ _____    ______ ____
ROOT
ATOM      1  C   UNL     1       7.382  -4.534  25.956  0.00  0.00    -0.046 A 
ATOM      2  C   UNL     1       7.175  -5.007  24.653  0.00  0.00    +0.009 A 
ATOM      3  C   UNL     1       7.705  -4.355  23.514  0.00  0.00    -0.013 A 
ATOM      4  C   UNL     1       8.405  -3.155  23.758  0.00  0.00    +0.050 A 
ATOM      5  N   UNL     1       9.001  -2.261  22.887  0.00  0.00    -0.357 N 
ATOM      6  H   UNL     1       9.031  -2.367  21.882  0.00  0.00    +0.166 HD
ATOM      7  C   UNL     1       9.489  -1.173  23.576  0.00  0.00    +0.026 A 
ATOM      8  C   UNL     1       9.355  -1.447  24.920  0.00  0.00    +0.031 A 
ATOM      9  C   UNL     1       8.636  -2.664  25.043  0.00  0.00    +0.000 A 
ATOM     10  C   UNL     1       8.154  -3.380  26.151  0.00  0.00    +0.013 A 
ENDROOT
BRANCH   1  11
ATOM     11  C   UNL     1       6.805  -5.260  27.152  0.00  0.00    +0.035 C 
BRANCH  11  13
ATOM     12  C   UNL     1       4.282  -5.374  27.021  0.00  0.00    +0.004 C 
ATOM     13  C   UNL     1       5.586  -6.114  26.779  0.00  0.00    +0.001 C 
ENDBRANCH  11  13
ENDBRANCH   1  11
BRANCH   3  14
ATOM     14  C   UNL     1       7.515  -4.965  22.141  0.00  0.00    +0.157 C 
BRANCH  14  15
ATOM     15  C   UNL     1       6.140  -4.882  21.515  0.00  0.00    +0.309 C 
ATOM     16  O   UNL     1       5.707  -5.769  20.787  0.00  0.00    -0.251 OA
BRANCH  15  17
ATOM     17  O   UNL     1       5.409  -3.782  21.783  0.00  0.00    -0.480 OA
ATOM     18  H   UNL     1       5.431  -3.096  21.086  0.00  0.00    +0.295 HD
ENDBRANCH  15  17
ENDBRANCH  14  15
ENDBRANCH   3  14
BRANCH   7  19
ATOM     19  C   UNL     1      10.058   0.028  22.889  0.00  0.00    +0.148 C 
BRANCH  19  20
ATOM     20  C   UNL     1       9.023   0.868  22.144  0.00  0.00    +0.216 C 
ATOM     21  O   UNL     1       7.817   0.645  22.247  0.00  0.00    -0.276 OA
ATOM     22  N   UNL     1       9.446   1.893  21.351  0.00  0.00    -0.329 N 
ATOM     23  H   UNL     1       8.734   2.374  20.817  0.00  0.00    +0.145 HD
ATOM     24  H   UNL     1      10.402   1.952  21.025  0.00  0.00    +0.145 HD
ENDBRANCH  19  20
ENDBRANCH   7  19
TORSDOF 7
ENDMDL
MODEL 5
REMARK VINA RESULT:      -5.9      3.049      6.211
REMARK  Name = 
REMARK  8 active torsions:
REMARK  status: ('A' for Active; 'I' for Inactive)
REMARK    1  A    between atoms: C_1  and  C_2
REMARK    2  A    between atoms: C_2  and  C_3
REMARK    3  A    between atoms: C_3  and  C_4
REMARK    4  A    between atoms: C_9  and  C_10
REMARK    5  A    between atoms: C_10  and  C_11
REMARK    6  A    between atoms: C_15  and  C_16
REMARK    7  A    between atoms: C_16  and  C_17
REMARK    8  A    between atoms: C_17  and  O_18
REMARK                            x       y       z     vdW  Elec       q    Type
REMARK                         _______ _______ _______ _____ _____    ______ ____
ROOT
ATOM      1  C   UNL     1       9.294  -1.231  23.169  0.00  0.00    -0.046 A 
ATOM      2  C   UNL     1       9.183  -1.653  24.501  0.00  0.00    +0.009 A 
ATOM      3  C   UNL     1       8.445  -2.800  24.877  0.00  0.00    -0.013 A 
ATOM      4  C   UNL     1       7.766  -3.467  23.837  0.00  0.00    +0.050 A 
ATOM      5  N   UNL     1       6.936  -4.573  23.860  0.00  0.00    -0.357 N 
ATOM      6  H   UNL     1       6.700  -5.101  24.690  0.00  0.00    +0.166 HD
ATOM      7  C   UNL     1       6.421  -4.813  22.606  0.00  0.00    +0.026 A 
ATOM      8  C   UNL     1       7.055  -3.956  21.733  0.00  0.00    +0.031 A 
ATOM      9  C   UNL     1       7.864  -3.079  22.500  0.00  0.00    +0.000 A 
ATOM     10  C   UNL     1       8.666  -1.976  22.161  0.00  0.00    +0.013 A 
ENDROOT
BRANCH   1  11
ATOM     11  C   UNL     1      10.097  -0.002  22.802  0.00  0.00    +0.035 C 
BRANCH  11  13
ATOM     12  C   UNL     1      10.601   2.246  23.845  0.00  0.00    +0.004 C 
ATOM     13  C   UNL     1      10.621   0.739  24.038  0.00  0.00    +0.001 C 
ENDBRANCH  11  13
ENDBRANCH   1  11
BRANCH   3  14
ATOM     14  C   UNL     1       8.434  -3.247  26.324  0.00  0.00    +0.157 C 
BRANCH  14  15
ATOM     15  C   UNL     1       8.713  -4.704  26.617  0.00  0.00    +0.309 C 
ATOM     16  O   UNL     1       7.808  -5.512  26.800  0.00  0.00    -0.251 OA
BRANCH  15  17
ATOM     17  O   UNL     1      10.005  -5.081  26.677  0.00  0.00    -0.480 OA
ATOM     18  H   UNL     1      10.632  -4.464  26.251  0.00  0.00    +0.295 HD
ENDBRANCH  15  17
ENDBRANCH  14  15
ENDBRANCH   3  14
BRANCH   7  19
ATOM     19  C   UNL     1       5.377  -5.854  22.347  0.00  0.00    +0.148 C 
BRANCH  19  20
ATOM     20  C   UNL     1       4.044  -5.586  23.043  0.00  0.00    +0.216 C 
ATOM     21  O   UNL     1       3.804  -4.506  23.582  0.00  0.00    -0.276 OA
ATOM     22  N   UNL     1       3.097  -6.566  23.061  0.00  0.00    -0.329 N 
ATOM     23  H   UNL     1       2.260  -6.374  23.596  0.00  0.00    +0.145 HD
ATOM     24  H   UNL     1       3.329  -7.533  22.877  0.00  0.00    +0.145 HD
ENDBRANCH  19  20
ENDBRANCH   7  19
TORSDOF 7
ENDMDL
MODEL 6
REMARK VINA RESULT:      -5.8      3.592      7.110
REMARK  Name = 
REMARK  8 active torsions:
REMARK  status: ('A' for Active; 'I' for Inactive)
REMARK    1  A    between atoms: C_1  and  C_2
REMARK    2  A    between atoms: C_2  and  C_3
REMARK    3  A    between atoms: C_3  and  C_4
REMARK    4  A    between atoms: C_9  and  C_10
REMARK    5  A    between atoms: C_10  and  C_11
REMARK    6  A    between atoms: C_15  and  C_16
REMARK    7  A    between atoms: C_16  and  C_17
REMARK    8  A    between atoms: C_17  and  O_18
REMARK                            x       y       z     vdW  Elec       q    Type
REMARK                         _______ _______ _______ _____ _____    ______ ____
ROOT
ATOM      1  C   UNL     1      10.010   1.891  23.891  0.00  0.00    -0.046 A 
ATOM      2  C   UNL     1       8.787   1.988  24.569  0.00  0.00    +0.009 A 
ATOM      3  C   UNL     1       8.072   0.852  25.015  0.00  0.00    -0.013 A 
ATOM      4  C   UNL     1       8.628  -0.400  24.679  0.00  0.00    +0.050 A 
ATOM      5  N   UNL     1       8.176  -1.685  24.916  0.00  0.00    -0.357 N 
ATOM      6  H   UNL     1       7.326  -1.916  25.414  0.00  0.00    +0.166 HD
ATOM      7  C   UNL     1       9.008  -2.605  24.318  0.00  0.00    +0.026 A 
ATOM      8  C   UNL     1      10.099  -1.915  23.835  0.00  0.00    +0.031 A 
ATOM      9  C   UNL     1       9.848  -0.530  24.015  0.00  0.00    +0.000 A 
ATOM     10  C   UNL     1      10.562   0.625  23.654  0.00  0.00    +0.013 A 
ENDROOT
BRANCH   1  11
ATOM     11  C   UNL     1      10.751   3.129  23.434  0.00  0.00    +0.035 C 
BRANCH  11  13
ATOM     12  C   UNL     1      10.899   5.631  23.773  0.00  0.00    +0.004 C 
ATOM     13  C   UNL     1       9.985   4.418  23.761  0.00  0.00    +0.001 C 
ENDBRANCH  11  13
ENDBRANCH   1  11
BRANCH   3  14
ATOM     14  C   UNL     1       6.798   1.029  25.814  0.00  0.00    +0.157 C 
BRANCH  14  15
ATOM     15  C   UNL     1       5.483   0.753  25.120  0.00  0.00    +0.309 C 
ATOM     16  O   UNL     1       4.658   1.639  24.919  0.00  0.00    -0.251 OA
BRANCH  15  17
ATOM     17  O   UNL     1       5.247  -0.516  24.735  0.00  0.00    -0.480 OA
ATOM     18  H   UNL     1       4.769  -1.061  25.393  0.00  0.00    +0.295 HD
ENDBRANCH  15  17
ENDBRANCH  14  15
ENDBRANCH   3  14
BRANCH   7  19
ATOM     19  C   UNL     1       8.697  -4.068  24.276  0.00  0.00    +0.148 C 
BRANCH  19  20
ATOM     20  C   UNL     1       9.074  -4.821  25.551  0.00  0.00    +0.216 C 
ATOM     21  O   UNL     1       8.704  -4.437  26.660  0.00  0.00    -0.276 OA
ATOM     22  N   UNL     1       9.834  -5.949  25.455  0.00  0.00    -0.329 N 
ATOM     23  H   UNL     1      10.123  -6.374  26.326  0.00  0.00    +0.145 HD
ATOM     24  H   UNL     1      10.375  -6.155  24.625  0.00  0.00    +0.145 HD
ENDBRANCH  19  20
ENDBRANCH   7  19
TORSDOF 7
ENDMDL
MODEL 7
REMARK VINA RESULT:      -5.7      1.363      2.254
REMARK  Name = 
REMARK  8 active torsions:
REMARK  status: ('A' for Active; 'I' for Inactive)
REMARK    1  A    between atoms: C_1  and  C_2
REMARK    2  A    between atoms: C_2  and  C_3
REMARK    3  A    between atoms: C_3  and  C_4
REMARK    4  A    between atoms: C_9  and  C_10
REMARK    5  A    between atoms: C_10  and  C_11
REMARK    6  A    between atoms: C_15  and  C_16
REMARK    7  A    between atoms: C_16  and  C_17
REMARK    8  A    between atoms: C_17  and  O_18
REMARK                            x       y       z     vdW  Elec       q    Type
REMARK                         _______ _______ _______ _____ _____    ______ ____
ROOT
ATOM      1  C   UNL     1       5.879  -5.959  26.802  0.00  0.00    -0.046 A 
ATOM      2  C   UNL     1       5.163  -5.815  25.605  0.00  0.00    +0.009 A 
ATOM      3  C   UNL     1       5.698  -5.157  24.473  0.00  0.00    -0.013 A 
ATOM      4  C   UNL     1       6.979  -4.589  24.634  0.00  0.00    +0.050 A 
ATOM      5  N   UNL     1       7.760  -3.853  23.763  0.00  0.00    -0.357 N 
ATOM      6  H   UNL     1       7.502  -3.620  22.812  0.00  0.00    +0.166 HD
ATOM      7  C   UNL     1       8.907  -3.425  24.391  0.00  0.00    +0.026 A 
ATOM      8  C   UNL     1       8.946  -4.030  25.629  0.00  0.00    +0.031 A 
ATOM      9  C   UNL     1       7.721  -4.723  25.808  0.00  0.00    +0.000 A 
ATOM     10  C   UNL     1       7.182  -5.447  26.885  0.00  0.00    +0.013 A 
ENDROOT
BRANCH   1  11
ATOM     11  C   UNL     1       5.278  -6.675  27.992  0.00  0.00    +0.035 C 
BRANCH  11  13
ATOM     12  C   UNL     1       5.291  -5.341  30.140  0.00  0.00    +0.004 C 
ATOM     13  C   UNL     1       6.027  -6.365  29.294  0.00  0.00    +0.001 C 
ENDBRANCH  11  13
ENDBRANCH   1  11
BRANCH   3  14
ATOM     14  C   UNL     1       4.903  -5.109  23.185  0.00  0.00    +0.157 C 
BRANCH  14  15
ATOM     15  C   UNL     1       5.638  -5.366  21.889  0.00  0.00    +0.309 C 
ATOM     16  O   UNL     1       5.888  -4.464  21.096  0.00  0.00    -0.251 OA
BRANCH  15  17
ATOM     17  O   UNL     1       6.003  -6.638  21.633  0.00  0.00    -0.480 OA
ATOM     18  H   UNL     1       5.765  -6.961  20.741  0.00  0.00    +0.295 HD
ENDBRANCH  15  17
ENDBRANCH  14  15
ENDBRANCH   3  14
BRANCH   7  19
ATOM     19  C   UNL     1       9.878  -2.486  23.747  0.00  0.00    +0.148 C 
BRANCH  19  20
ATOM     20  C   UNL     1       9.255  -1.570  22.695  0.00  0.00    +0.216 C 
ATOM     21  O   UNL     1       8.167  -1.026  22.878  0.00  0.00    -0.276 OA
ATOM     22  N   UNL     1       9.924  -1.348  21.529  0.00  0.00    -0.329 N 
ATOM     23  H   UNL     1       9.442  -0.798  20.829  0.00  0.00    +0.145 HD
ATOM     24  H   UNL     1      10.668  -1.960  21.219  0.00  0.00    +0.145 HD
ENDBRANCH  19  20
ENDBRANCH   7  19
TORSDOF 7
ENDMDL
MODEL 8
REMARK VINA RESULT:      -5.7      3.893      8.212
REMARK  Name = 
REMARK  8 active torsions:
REMARK  status: ('A' for Active; 'I' for Inactive)
REMARK    1  A    between atoms: C_1  and  C_2
REMARK    2  A    between atoms: C_2  and  C_3
REMARK    3  A    between atoms: C_3  and  C_4
REMARK    4  A    between atoms: C_9  and  C_10
REMARK    5  A    between atoms: C_10  and  C_11
REMARK    6  A    between atoms: C_15  and  C_16
REMARK    7  A    between atoms: C_16  and  C_17
REMARK    8  A    between atoms: C_17  and  O_18
REMARK                            x       y       z     vdW  Elec       q    Type
REMARK                         _______ _______ _______ _____ _____    ______ ____
ROOT
ATOM      1  C   UNL     1      10.430   4.556  23.692  0.00  0.00    -0.046 A 
ATOM      2  C   UNL     1       9.034   4.636  23.785  0.00  0.00    +0.009 A 
ATOM      3  C   UNL     1       8.216   3.492  23.946  0.00  0.00    -0.013 A 
ATOM      4  C   UNL     1       8.882   2.249  23.940  0.00  0.00    +0.050 A 
ATOM      5  N   UNL     1       8.393   0.959  24.029  0.00  0.00    -0.357 N 
ATOM      6  H   UNL     1       7.416   0.718  24.134  0.00  0.00    +0.166 HD
ATOM      7  C   UNL     1       9.414   0.047  23.886  0.00  0.00    +0.026 A 
ATOM      8  C   UNL     1      10.596   0.756  23.872  0.00  0.00    +0.031 A 
ATOM      9  C   UNL     1      10.270   2.137  23.859  0.00  0.00    +0.000 A 
ATOM     10  C   UNL     1      11.051   3.302  23.774  0.00  0.00    +0.013 A 
ENDROOT
BRANCH   1  11
ATOM     11  C   UNL     1      11.275   5.801  23.527  0.00  0.00    +0.035 C 
BRANCH  11  13
ATOM     12  C   UNL     1      13.286   5.668  21.999  0.00  0.00    +0.004 C 
ATOM     13  C   UNL     1      12.770   5.477  23.416  0.00  0.00    +0.001 C 
ENDBRANCH  11  13
ENDBRANCH   1  11
BRANCH   3  14
ATOM     14  C   UNL     1       6.721   3.656  24.123  0.00  0.00    +0.157 C 
BRANCH  14  15
ATOM     15  C   UNL     1       5.833   3.390  22.928  0.00  0.00    +0.309 C 
ATOM     16  O   UNL     1       4.746   2.832  23.041  0.00  0.00    -0.251 OA
BRANCH  15  17
ATOM     17  O   UNL     1       6.291   3.785  21.724  0.00  0.00    -0.480 OA
ATOM     18  H   UNL     1       6.550   3.056  21.125  0.00  0.00    +0.295 HD
ENDBRANCH  15  17
ENDBRANCH  14  15
ENDBRANCH   3  14
BRANCH   7  19
ATOM     19  C   UNL     1       9.173  -1.427  23.791  0.00  0.00    +0.148 C 
BRANCH  19  20
ATOM     20  C   UNL     1       8.859  -1.917  22.379  0.00  0.00    +0.216 C 
ATOM     21  O   UNL     1       7.986  -2.759  22.169  0.00  0.00    -0.276 OA
ATOM     22  N   UNL     1       9.559  -1.406  21.328  0.00  0.00    -0.329 N 
ATOM     23  H   UNL     1       9.372  -1.813  20.421  0.00  0.00    +0.145 HD
ATOM     24  H   UNL     1      10.442  -0.929  21.460  0.00  0.00    +0.145 HD
ENDBRANCH  19  20
ENDBRANCH   7  19
TORSDOF 7
ENDMDL
MODEL 9
REMARK VINA RESULT:      -5.6      4.696      6.870
REMARK  Name = 
REMARK  8 active torsions:
REMARK  status: ('A' for Active; 'I' for Inactive)
REMARK    1  A    between atoms: C_1  and  C_2
REMARK    2  A    between atoms: C_2  and  C_3
REMARK    3  A    between atoms: C_3  and  C_4
REMARK    4  A    between atoms: C_9  and  C_10
REMARK    5  A    between atoms: C_10  and  C_11
REMARK    6  A    between atoms: C_15  and  C_16
REMARK    7  A    between atoms: C_16  and  C_17
REMARK    8  A    between atoms: C_17  and  O_18
REMARK                            x       y       z     vdW  Elec       q    Type
REMARK                         _______ _______ _______ _____ _____    ______ ____
ROOT
ATOM      1  C   UNL     1       9.343  -0.036  24.569  0.00  0.00    -0.046 A 
ATOM      2  C   UNL     1       8.144   0.547  25.000  0.00  0.00    +0.009 A 
ATOM      3  C   UNL     1       7.896   1.937  24.902  0.00  0.00    -0.013 A 
ATOM      4  C   UNL     1       8.957   2.721  24.404  0.00  0.00    +0.050 A 
ATOM      5  N   UNL     1       9.065   4.088  24.222  0.00  0.00    -0.357 N 
ATOM      6  H   UNL     1       8.334   4.757  24.425  0.00  0.00    +0.166 HD
ATOM      7  C   UNL     1      10.331   4.416  23.792  0.00  0.00    +0.026 A 
ATOM      8  C   UNL     1      10.994   3.236  23.534  0.00  0.00    +0.031 A 
ATOM      9  C   UNL     1      10.158   2.170  23.957  0.00  0.00    +0.000 A 
ATOM     10  C   UNL     1      10.336   0.777  24.004  0.00  0.00    +0.013 A 
ENDROOT
BRANCH   1  11
ATOM     11  C   UNL     1       9.572  -1.528  24.682  0.00  0.00    +0.035 C 
BRANCH  11  13
ATOM     12  C   UNL     1       8.683  -2.150  22.398  0.00  0.00    +0.004 C 
ATOM     13  C   UNL     1       9.886  -2.172  23.326  0.00  0.00    +0.001 C 
ENDBRANCH  11  13
ENDBRANCH   1  11
BRANCH   3  14
ATOM     14  C   UNL     1       6.547   2.491  25.311  0.00  0.00    +0.157 C 
BRANCH  14  15
ATOM     15  C   UNL     1       5.605   2.938  24.216  0.00  0.00    +0.309 C 
ATOM     16  O   UNL     1       5.741   4.016  23.645  0.00  0.00    -0.251 OA
BRANCH  15  17
ATOM     17  O   UNL     1       4.596   2.104  23.896  0.00  0.00    -0.480 OA
ATOM     18  H   UNL     1       3.830   2.534  23.465  0.00  0.00    +0.295 HD
ENDBRANCH  15  17
ENDBRANCH  14  15
ENDBRANCH   3  14
BRANCH   7  19
ATOM     19  C   UNL     1      10.794   5.832  23.649  0.00  0.00    +0.148 C 
BRANCH  19  20
ATOM     20  C   UNL     1      12.251   6.055  24.047  0.00  0.00    +0.216 C 
ATOM     21  O   UNL     1      12.561   6.435  25.176  0.00  0.00    -0.276 OA
ATOM     22  N   UNL     1      13.232   5.820  23.130  0.00  0.00    -0.329 N 
ATOM     23  H   UNL     1      14.177   6.052  23.410  0.00  0.00    +0.145 HD
ATOM     24  H   UNL     1      13.032   5.768  22.140  0.00  0.00    +0.145 HD
ENDBRANCH  19  20
ENDBRANCH   7  19
TORSDOF 7
ENDMDL
