MODEL 1
REMARK VINA RESULT:      -6.8      0.000      0.000
REMARK  Name = 
REMARK  5 active torsions:
REMARK  status: ('A' for Active; 'I' for Inactive)
REMARK    1  A    between atoms: C_1  and  C_2
REMARK    2  A    between atoms: C_2  and  N_3
REMARK    3  A    between atoms: C_2  and  C_13
REMARK    4  A    between atoms: N_3  and  N_4
REMARK    5  A    between atoms: C_5  and  C_7
REMARK                            x       y       z     vdW  Elec       q    Type
REMARK                         _______ _______ _______ _____ _____    ______ ____
ROOT
ATOM      1  N   UNL     1       9.799  -3.673  24.268  0.00  0.00    -0.233 NA
ATOM      2  H   UNL     1      10.004  -4.029  23.324  0.00  0.00    +0.145 HD
ENDROOT
BRANCH   1   3
ATOM      3  N   UNL     1       9.928  -2.267  24.211  0.00  0.00    -0.246 N 
ATOM      4  H   UNL     1      10.124  -1.771  25.077  0.00  0.00    +0.169 HD
ATOM      5  C   UNL     1       9.991  -1.632  22.979  0.00  0.00    +0.258 C 
ATOM      6  O   UNL     1       9.951  -2.229  21.906  0.00  0.00    -0.269 OA
BRANCH   5   7
ATOM      7  C   UNL     1      10.124  -0.152  23.025  0.00  0.00    +0.038 A 
ATOM      8  C   UNL     1      10.572   0.500  24.182  0.00  0.00    +0.013 A 
ATOM      9  C   UNL     1      10.697   1.890  24.193  0.00  0.00    +0.001 A 
ATOM     10  C   UNL     1      10.371   2.629  23.057  0.00  0.00    +0.000 A 
ATOM     11  C   UNL     1       9.901   1.985  21.912  0.00  0.00    +0.001 A 
ATOM     12  C   UNL     1       9.770   0.595  21.897  0.00  0.00    +0.013 A 
ENDBRANCH   5   7
ENDBRANCH   1   3
BRANCH   1  14
ATOM     13  C   UNL     1       8.473  -5.155  25.751  0.00  0.00    +0.030 C 
ATOM     14  C   UNL     1       8.428  -4.090  24.644  0.00  0.00    +0.099 C 
BRANCH  14  15
ATOM     15  C   UNL     1       7.579  -4.443  23.422  0.00  0.00    -0.029 A 
ATOM     16  C   UNL     1       7.642  -5.749  22.900  0.00  0.00    +0.005 A 
ATOM     17  C   UNL     1       6.895  -6.117  21.777  0.00  0.00    +0.000 A 
ATOM     18  C   UNL     1       6.078  -5.183  21.149  0.00  0.00    +0.000 A 
ATOM     19  C   UNL     1       6.009  -3.883  21.642  0.00  0.00    +0.000 A 
ATOM     20  C   UNL     1       6.751  -3.516  22.769  0.00  0.00    +0.005 A 
ENDBRANCH  14  15
ENDBRANCH   1  14
TORSDOF 4
ENDMDL
MODEL 2
REMARK VINA RESULT:      -6.6      0.964      1.104
REMARK  Name = 
REMARK  5 active torsions:
REMARK  status: ('A' for Active; 'I' for Inactive)
REMARK    1  A    between atoms: C_1  and  C_2
REMARK    2  A    between atoms: C_2  and  N_3
REMARK    3  A    between atoms: C_2  and  C_13
REMARK    4  A    between atoms: N_3  and  N_4
REMARK    5  A    between atoms: C_5  and  C_7
REMARK                            x       y       z     vdW  Elec       q    Type
REMARK                         _______ _______ _______ _____ _____    ______ ____
ROOT
ATOM      1  N   UNL     1       9.595  -3.795  24.242  0.00  0.00    -0.233 NA
ATOM      2  H   UNL     1       9.466  -4.120  23.274  0.00  0.00    +0.145 HD
ENDROOT
BRANCH   1   3
ATOM      3  N   UNL     1       9.810  -2.399  24.177  0.00  0.00    -0.246 N 
ATOM      4  H   UNL     1      10.170  -1.933  25.006  0.00  0.00    +0.169 HD
ATOM      5  C   UNL     1       9.728  -1.747  22.954  0.00  0.00    +0.258 C 
ATOM      6  O   UNL     1       9.485  -2.320  21.896  0.00  0.00    -0.269 OA
BRANCH   5   7
ATOM      7  C   UNL     1       9.969  -0.280  22.992  0.00  0.00    +0.038 A 
ATOM      8  C   UNL     1      10.453   0.346  24.148  0.00  0.00    +0.013 A 
ATOM      9  C   UNL     1      10.679   1.723  24.150  0.00  0.00    +0.001 A 
ATOM     10  C   UNL     1      10.418   2.475  23.006  0.00  0.00    +0.000 A 
ATOM     11  C   UNL     1       9.912   1.858  21.861  0.00  0.00    +0.001 A 
ATOM     12  C   UNL     1       9.680   0.481  21.854  0.00  0.00    +0.013 A 
ENDBRANCH   5   7
ENDBRANCH   1   3
BRANCH   1  14
ATOM     13  C   UNL     1       8.766  -4.828  26.339  0.00  0.00    +0.030 C 
ATOM     14  C   UNL     1       8.382  -4.133  25.023  0.00  0.00    +0.099 C 
BRANCH  14  15
ATOM     15  C   UNL     1       7.336  -4.856  24.175  0.00  0.00    -0.029 A 
ATOM     16  C   UNL     1       7.646  -5.186  22.841  0.00  0.00    +0.005 A 
ATOM     17  C   UNL     1       6.719  -5.836  22.022  0.00  0.00    +0.000 A 
ATOM     18  C   UNL     1       5.460  -6.160  22.517  0.00  0.00    +0.000 A 
ATOM     19  C   UNL     1       5.128  -5.834  23.828  0.00  0.00    +0.000 A 
ATOM     20  C   UNL     1       6.058  -5.189  24.651  0.00  0.00    +0.005 A 
ENDBRANCH  14  15
ENDBRANCH   1  14
TORSDOF 4
ENDMDL
MODEL 3
REMARK VINA RESULT:      -6.2      1.804      3.111
REMARK  Name = 
REMARK  5 active torsions:
REMARK  status: ('A' for Active; 'I' for Inactive)
REMARK    1  A    between atoms: C_1  and  C_2
REMARK    2  A    between atoms: C_2  and  N_3
REMARK    3  A    between atoms: C_2  and  C_13
REMARK    4  A    between atoms: N_3  and  N_4
REMARK    5  A    between atoms: C_5  and  C_7
REMARK                            x       y       z     vdW  Elec       q    Type
REMARK                         _______ _______ _______ _____ _____    ______ ____
ROOT
ATOM      1  N   UNL     1       9.475  -3.962  24.452  0.00  0.00    -0.233 NA
ATOM      2  H   UNL     1      10.284  -4.557  24.225  0.00  0.00    +0.145 HD
ENDROOT
BRANCH   1   3
ATOM      3  N   UNL     1       9.704  -2.710  23.836  0.00  0.00    -0.246 N 
ATOM      4  H   UNL     1       9.906  -2.699  22.840  0.00  0.00    +0.169 HD
ATOM      5  C   UNL     1       9.449  -1.542  24.541  0.00  0.00    +0.258 C 
ATOM      6  O   UNL     1       9.016  -1.524  25.690  0.00  0.00    -0.269 OA
BRANCH   5   7
ATOM      7  C   UNL     1       9.723  -0.278  23.807  0.00  0.00    +0.038 A 
ATOM      8  C   UNL     1       9.468  -0.166  22.434  0.00  0.00    +0.013 A 
ATOM      9  C   UNL     1       9.724   1.036  21.774  0.00  0.00    +0.001 A 
ATOM     10  C   UNL     1      10.241   2.123  22.479  0.00  0.00    +0.000 A 
ATOM     11  C   UNL     1      10.520   2.006  23.841  0.00  0.00    +0.001 A 
ATOM     12  C   UNL     1      10.268   0.804  24.506  0.00  0.00    +0.013 A 
ENDBRANCH   5   7
ENDBRANCH   1   3
BRANCH   1  14
ATOM     13  C   UNL     1       7.596  -3.755  22.845  0.00  0.00    +0.030 C 
ATOM     14  C   UNL     1       8.247  -4.615  23.940  0.00  0.00    +0.099 C 
BRANCH  14  15
ATOM     15  C   UNL     1       7.319  -5.060  25.070  0.00  0.00    -0.029 A 
ATOM     16  C   UNL     1       7.796  -5.038  26.395  0.00  0.00    +0.005 A 
ATOM     17  C   UNL     1       6.989  -5.446  27.462  0.00  0.00    +0.000 A 
ATOM     18  C   UNL     1       5.695  -5.895  27.223  0.00  0.00    +0.000 A 
ATOM     19  C   UNL     1       5.207  -5.936  25.920  0.00  0.00    +0.000 A 
ATOM     20  C   UNL     1       6.011  -5.521  24.853  0.00  0.00    +0.005 A 
ENDBRANCH  14  15
ENDBRANCH   1  14
TORSDOF 4
ENDMDL
MODEL 4
REMARK VINA RESULT:      -6.2      2.200      6.861
REMARK  Name = 
REMARK  5 active torsions:
REMARK  status: ('A' for Active; 'I' for Inactive)
REMARK    1  A    between atoms: C_1  and  C_2
REMARK    2  A    between atoms: C_2  and  N_3
REMARK    3  A    between atoms: C_2  and  C_13
REMARK    4  A    between atoms: N_3  and  N_4
REMARK    5  A    between atoms: C_5  and  C_7
REMARK                            x       y       z     vdW  Elec       q    Type
REMARK                         _______ _______ _______ _____ _____    ______ ____
ROOT
ATOM      1  N   UNL     1       8.227  -2.312  22.200  0.00  0.00    -0.233 NA
ATOM      2  H   UNL     1       8.331  -2.707  21.255  0.00  0.00    +0.145 HD
ENDROOT
BRANCH   1   3
ATOM      3  N   UNL     1       7.551  -3.281  22.976  0.00  0.00    -0.246 N 
ATOM      4  H   UNL     1       7.912  -3.485  23.905  0.00  0.00    +0.169 HD
ATOM      5  C   UNL     1       6.323  -3.768  22.550  0.00  0.00    +0.258 C 
ATOM      6  O   UNL     1       5.766  -3.394  21.521  0.00  0.00    -0.269 OA
BRANCH   5   7
ATOM      7  C   UNL     1       5.694  -4.784  23.434  0.00  0.00    +0.038 A 
ATOM      8  C   UNL     1       6.182  -5.025  24.725  0.00  0.00    +0.013 A 
ATOM      9  C   UNL     1       5.564  -5.977  25.536  0.00  0.00    +0.001 A 
ATOM     10  C   UNL     1       4.467  -6.694  25.060  0.00  0.00    +0.000 A 
ATOM     11  C   UNL     1       3.995  -6.475  23.766  0.00  0.00    +0.001 A 
ATOM     12  C   UNL     1       4.611  -5.525  22.948  0.00  0.00    +0.013 A 
ENDBRANCH   5   7
ENDBRANCH   1   3
BRANCH   1  14
ATOM     13  C   UNL     1       9.836  -2.822  24.019  0.00  0.00    +0.030 C 
ATOM     14  C   UNL     1       9.574  -2.011  22.739  0.00  0.00    +0.099 C 
BRANCH  14  15
ATOM     15  C   UNL     1       9.828  -0.507  22.847  0.00  0.00    -0.029 A 
ATOM     16  C   UNL     1       9.542   0.315  21.740  0.00  0.00    +0.005 A 
ATOM     17  C   UNL     1       9.768   1.694  21.785  0.00  0.00    +0.000 A 
ATOM     18  C   UNL     1      10.293   2.275  22.934  0.00  0.00    +0.000 A 
ATOM     19  C   UNL     1      10.592   1.480  24.036  0.00  0.00    +0.000 A 
ATOM     20  C   UNL     1      10.361   0.101  23.994  0.00  0.00    +0.005 A 
ENDBRANCH  14  15
ENDBRANCH   1  14
TORSDOF 4
ENDMDL
MODEL 5
REMARK VINA RESULT:      -6.2      1.865      3.325
REMARK  Name = 
REMARK  5 active torsions:
REMARK  status: ('A' for Active; 'I' for Inactive)
REMARK    1  A    between atoms: C_1  and  C_2
REMARK    2  A    between atoms: C_2  and  N_3
REMARK    3  A    between atoms: C_2  and  C_13
REMARK    4  A    between atoms: N_3  and  N_4
REMARK    5  A    between atoms: C_5  and  C_7
REMARK                            x       y       z     vdW  Elec       q    Type
REMARK                         _______ _______ _______ _____ _____    ______ ____
ROOT
ATOM      1  N   UNL     1       6.911  -3.381  22.200  0.00  0.00    -0.233 NA
ATOM      2  H   UNL     1       6.159  -3.201  22.878  0.00  0.00    +0.145 HD
ENDROOT
BRANCH   1   3
ATOM      3  N   UNL     1       7.795  -2.280  22.269  0.00  0.00    -0.246 N 
ATOM      4  H   UNL     1       8.537  -2.219  21.576  0.00  0.00    +0.169 HD
ATOM      5  C   UNL     1       7.513  -1.225  23.126  0.00  0.00    +0.258 C 
ATOM      6  O   UNL     1       6.514  -1.181  23.840  0.00  0.00    -0.269 OA
BRANCH   5   7
ATOM      7  C   UNL     1       8.503  -0.116  23.127  0.00  0.00    +0.038 A 
ATOM      8  C   UNL     1       8.990   0.422  21.929  0.00  0.00    +0.013 A 
ATOM      9  C   UNL     1       9.911   1.470  21.961  0.00  0.00    +0.001 A 
ATOM     10  C   UNL     1      10.351   1.976  23.183  0.00  0.00    +0.000 A 
ATOM     11  C   UNL     1       9.887   1.425  24.378  0.00  0.00    +0.001 A 
ATOM     12  C   UNL     1       8.968   0.374  24.352  0.00  0.00    +0.013 A 
ENDBRANCH   5   7
ENDBRANCH   1   3
BRANCH   1  14
ATOM     13  C   UNL     1       6.949  -5.829  21.800  0.00  0.00    +0.030 C 
ATOM     14  C   UNL     1       7.582  -4.653  22.560  0.00  0.00    +0.099 C 
BRANCH  14  15
ATOM     15  C   UNL     1       7.700  -4.831  24.074  0.00  0.00    -0.029 A 
ATOM     16  C   UNL     1       6.553  -5.181  24.813  0.00  0.00    +0.005 A 
ATOM     17  C   UNL     1       6.608  -5.343  26.200  0.00  0.00    +0.000 A 
ATOM     18  C   UNL     1       7.808  -5.149  26.877  0.00  0.00    +0.000 A 
ATOM     19  C   UNL     1       8.951  -4.793  26.167  0.00  0.00    +0.000 A 
ATOM     20  C   UNL     1       8.899  -4.637  24.778  0.00  0.00    +0.005 A 
ENDBRANCH  14  15
ENDBRANCH   1  14
TORSDOF 4
ENDMDL
MODEL 6
REMARK VINA RESULT:      -6.1      1.450      2.713
REMARK  Name = 
REMARK  5 active torsions:
REMARK  status: ('A' for Active; 'I' for Inactive)
REMARK    1  A    between atoms: C_1  and  C_2
REMARK    2  A    between atoms: C_2  and  N_3
REMARK    3  A    between atoms: C_2  and  C_13
REMARK    4  A    between atoms: N_3  and  N_4
REMARK    5  A    between atoms: C_5  and  C_7
REMARK                            x       y       z     vdW  Elec       q    Type
REMARK                         _______ _______ _______ _____ _____    ______ ____
ROOT
ATOM      1  N   UNL     1       9.416  -3.754  24.283  0.00  0.00    -0.233 NA
ATOM      2  H   UNL     1      10.195  -4.044  23.677  0.00  0.00    +0.145 HD
ENDROOT
BRANCH   1   3
ATOM      3  N   UNL     1       9.326  -2.346  24.187  0.00  0.00    -0.246 N 
ATOM      4  H   UNL     1       8.774  -1.855  24.886  0.00  0.00    +0.169 HD
ATOM      5  C   UNL     1      10.138  -1.666  23.292  0.00  0.00    +0.258 C 
ATOM      6  O   UNL     1      10.960  -2.219  22.566  0.00  0.00    -0.269 OA
BRANCH   5   7
ATOM      7  C   UNL     1       9.968  -0.189  23.265  0.00  0.00    +0.038 A 
ATOM      8  C   UNL     1       9.888   0.554  24.450  0.00  0.00    +0.013 A 
ATOM      9  C   UNL     1       9.738   1.940  24.394  0.00  0.00    +0.001 A 
ATOM     10  C   UNL     1       9.661   2.585  23.160  0.00  0.00    +0.000 A 
ATOM     11  C   UNL     1       9.715   1.845  21.978  0.00  0.00    +0.001 A 
ATOM     12  C   UNL     1       9.861   0.457  22.029  0.00  0.00    +0.013 A 
ENDBRANCH   5   7
ENDBRANCH   1   3
BRANCH   1  14
ATOM     13  C   UNL     1       7.441  -3.539  22.796  0.00  0.00    +0.030 C 
ATOM     14  C   UNL     1       8.178  -4.422  23.816  0.00  0.00    +0.099 C 
BRANCH  14  15
ATOM     15  C   UNL     1       7.329  -4.937  24.979  0.00  0.00    -0.029 A 
ATOM     16  C   UNL     1       7.880  -4.947  26.275  0.00  0.00    +0.005 A 
ATOM     17  C   UNL     1       7.148  -5.419  27.368  0.00  0.00    +0.000 A 
ATOM     18  C   UNL     1       5.856  -5.900  27.186  0.00  0.00    +0.000 A 
ATOM     19  C   UNL     1       5.296  -5.908  25.912  0.00  0.00    +0.000 A 
ATOM     20  C   UNL     1       6.025  -5.430  24.818  0.00  0.00    +0.005 A 
ENDBRANCH  14  15
ENDBRANCH   1  14
TORSDOF 4
ENDMDL
MODEL 7
REMARK VINA RESULT:      -5.9      2.216      6.809
REMARK  Name = 
REMARK  5 active torsions:
REMARK  status: ('A' for Active; 'I' for Inactive)
REMARK    1  A    between atoms: C_1  and  C_2
REMARK    2  A    between atoms: C_2  and  N_3
REMARK    3  A    between atoms: C_2  and  C_13
REMARK    4  A    between atoms: N_3  and  N_4
REMARK    5  A    between atoms: C_5  and  C_7
REMARK                            x       y       z     vdW  Elec       q    Type
REMARK                         _______ _______ _______ _____ _____    ______ ____
ROOT
ATOM      1  N   UNL     1       9.104  -2.722  23.577  0.00  0.00    -0.233 NA
ATOM      2  H   UNL     1       9.848  -3.428  23.499  0.00  0.00    +0.145 HD
ENDROOT
BRANCH   1   3
ATOM      3  N   UNL     1       7.958  -3.388  24.068  0.00  0.00    -0.246 N 
ATOM      4  H   UNL     1       7.077  -2.881  24.071  0.00  0.00    +0.169 HD
ATOM      5  C   UNL     1       8.016  -4.749  24.333  0.00  0.00    +0.258 C 
ATOM      6  O   UNL     1       9.020  -5.432  24.154  0.00  0.00    -0.269 OA
BRANCH   5   7
ATOM      7  C   UNL     1       6.760  -5.356  24.848  0.00  0.00    +0.038 A 
ATOM      8  C   UNL     1       6.567  -5.572  26.219  0.00  0.00    +0.013 A 
ATOM      9  C   UNL     1       5.373  -6.133  26.673  0.00  0.00    +0.001 A 
ATOM     10  C   UNL     1       4.377  -6.486  25.764  0.00  0.00    +0.000 A 
ATOM     11  C   UNL     1       4.576  -6.295  24.396  0.00  0.00    +0.001 A 
ATOM     12  C   UNL     1       5.770  -5.737  23.935  0.00  0.00    +0.013 A 
ENDBRANCH   5   7
ENDBRANCH   1   3
BRANCH   1  14
ATOM     13  C   UNL     1       8.644  -1.572  25.727  0.00  0.00    +0.030 C 
ATOM     14  C   UNL     1       9.560  -1.652  24.495  0.00  0.00    +0.099 C 
BRANCH  14  15
ATOM     15  C   UNL     1       9.801  -0.331  23.764  0.00  0.00    -0.029 A 
ATOM     16  C   UNL     1      10.317   0.765  24.483  0.00  0.00    +0.005 A 
ATOM     17  C   UNL     1      10.543   1.997  23.861  0.00  0.00    +0.000 A 
ATOM     18  C   UNL     1      10.247   2.160  22.512  0.00  0.00    +0.000 A 
ATOM     19  C   UNL     1       9.726   1.093  21.785  0.00  0.00    +0.000 A 
ATOM     20  C   UNL     1       9.506  -0.142  22.404  0.00  0.00    +0.005 A 
ENDBRANCH  14  15
ENDBRANCH   1  14
TORSDOF 4
ENDMDL
MODEL 8
REMARK VINA RESULT:      -5.8      2.408      3.936
REMARK  Name = 
REMARK  5 active torsions:
REMARK  status: ('A' for Active; 'I' for Inactive)
REMARK    1  A    between atoms: C_1  and  C_2
REMARK    2  A    between atoms: C_2  and  N_3
REMARK    3  A    between atoms: C_2  and  C_13
REMARK    4  A    between atoms: N_3  and  N_4
REMARK    5  A    between atoms: C_5  and  C_7
REMARK                            x       y       z     vdW  Elec       q    Type
REMARK                         _______ _______ _______ _____ _____    ______ ____
ROOT
ATOM      1  N   UNL     1       8.950   0.054  23.816  0.00  0.00    -0.233 NA
ATOM      2  H   UNL     1       8.943  -0.275  24.791  0.00  0.00    +0.145 HD
ENDROOT
BRANCH   1   3
ATOM      3  N   UNL     1       9.709   1.246  23.792  0.00  0.00    -0.246 N 
ATOM      4  H   UNL     1      10.712   1.170  23.636  0.00  0.00    +0.169 HD
ATOM      5  C   UNL     1       9.061   2.473  23.773  0.00  0.00    +0.258 C 
ATOM      6  O   UNL     1       7.839   2.594  23.765  0.00  0.00    -0.269 OA
BRANCH   5   7
ATOM      7  C   UNL     1       9.948   3.666  23.751  0.00  0.00    +0.038 A 
ATOM      8  C   UNL     1       9.469   4.932  24.114  0.00  0.00    +0.013 A 
ATOM      9  C   UNL     1      10.328   6.032  24.094  0.00  0.00    +0.001 A 
ATOM     10  C   UNL     1      11.657   5.874  23.705  0.00  0.00    +0.000 A 
ATOM     11  C   UNL     1      12.130   4.619  23.319  0.00  0.00    +0.001 A 
ATOM     12  C   UNL     1      11.275   3.515  23.334  0.00  0.00    +0.013 A 
ENDBRANCH   5   7
ENDBRANCH   1   3
BRANCH   1  14
ATOM     13  C   UNL     1       9.536  -0.571  21.487  0.00  0.00    +0.030 C 
ATOM     14  C   UNL     1       9.547  -1.001  22.963  0.00  0.00    +0.099 C 
BRANCH  14  15
ATOM     15  C   UNL     1       8.954  -2.380  23.254  0.00  0.00    -0.029 A 
ATOM     16  C   UNL     1       7.914  -2.863  22.437  0.00  0.00    +0.005 A 
ATOM     17  C   UNL     1       7.331  -4.112  22.671  0.00  0.00    +0.000 A 
ATOM     18  C   UNL     1       7.770  -4.897  23.732  0.00  0.00    +0.000 A 
ATOM     19  C   UNL     1       8.790  -4.434  24.558  0.00  0.00    +0.000 A 
ATOM     20  C   UNL     1       9.378  -3.188  24.321  0.00  0.00    +0.005 A 
ENDBRANCH  14  15
ENDBRANCH   1  14
TORSDOF 4
ENDMDL
MODEL 9
REMARK VINA RESULT:      -5.8      2.744      4.380
REMARK  Name = 
REMARK  5 active torsions:
REMARK  status: ('A' for Active; 'I' for Inactive)
REMARK    1  A    between atoms: C_1  and  C_2
REMARK    2  A    between atoms: C_2  and  N_3
REMARK    3  A    between atoms: C_2  and  C_13
REMARK    4  A    between atoms: N_3  and  N_4
REMARK    5  A    between atoms: C_5  and  C_7
REMARK                            x       y       z     vdW  Elec       q    Type
REMARK                         _______ _______ _______ _____ _____    ______ ____
ROOT
ATOM      1  N   UNL     1      10.489   0.447  23.272  0.00  0.00    -0.233 NA
ATOM      2  H   UNL     1      11.518   0.431  23.282  0.00  0.00    +0.145 HD
ENDROOT
BRANCH   1   3
ATOM      3  N   UNL     1      10.104   1.782  23.010  0.00  0.00    -0.246 N 
ATOM      4  H   UNL     1      10.265   2.149  22.076  0.00  0.00    +0.169 HD
ATOM      5  C   UNL     1       9.347   2.474  23.944  0.00  0.00    +0.258 C 
ATOM      6  O   UNL     1       8.970   1.986  25.007  0.00  0.00    -0.269 OA
BRANCH   5   7
ATOM      7  C   UNL     1       8.995   3.871  23.577  0.00  0.00    +0.038 A 
ATOM      8  C   UNL     1       9.835   4.942  23.908  0.00  0.00    +0.013 A 
ATOM      9  C   UNL     1       9.484   6.241  23.541  0.00  0.00    +0.001 A 
ATOM     10  C   UNL     1       8.295   6.474  22.851  0.00  0.00    +0.000 A 
ATOM     11  C   UNL     1       7.444   5.413  22.541  0.00  0.00    +0.001 A 
ATOM     12  C   UNL     1       7.789   4.111  22.910  0.00  0.00    +0.013 A 
ENDBRANCH   5   7
ENDBRANCH   1   3
BRANCH   1  14
ATOM     13  C   UNL     1       9.142   0.261  21.196  0.00  0.00    +0.030 C 
ATOM     14  C   UNL     1      10.010  -0.484  22.222  0.00  0.00    +0.099 C 
BRANCH  14  15
ATOM     15  C   UNL     1       9.392  -1.750  22.816  0.00  0.00    -0.029 A 
ATOM     16  C   UNL     1       8.215  -2.270  22.242  0.00  0.00    +0.005 A 
ATOM     17  C   UNL     1       7.605  -3.418  22.757  0.00  0.00    +0.000 A 
ATOM     18  C   UNL     1       8.154  -4.062  23.861  0.00  0.00    +0.000 A 
ATOM     19  C   UNL     1       9.311  -3.559  24.449  0.00  0.00    +0.000 A 
ATOM     20  C   UNL     1       9.926  -2.415  23.931  0.00  0.00    +0.005 A 
ENDBRANCH  14  15
ENDBRANCH   1  14
TORSDOF 4
ENDMDL
