MODEL 1
REMARK VINA RESULT:      -5.7      0.000      0.000
REMARK  Name = 
REMARK  3 active torsions:
REMARK  status: ('A' for Active; 'I' for Inactive)
REMARK    1  A    between atoms: C_1  and  C_2
REMARK    2  A    between atoms: N_6  and  O_7
REMARK    3  A    between atoms: C_8  and  C_10
REMARK                            x       y       z     vdW  Elec       q    Type
REMARK                         _______ _______ _______ _____ _____    ______ ____
ROOT
ATOM      1  C   UNL     1      13.271   5.049  23.040  0.00  0.00    +0.044 C 
ATOM      2  C   UNL     1      11.830   4.998  23.454  0.00  0.00    -0.043 A 
ATOM      3  C   UNL     1      11.129   3.724  23.383  0.00  0.00    +0.028 A 
ATOM      4  C   UNL     1       9.831   3.604  23.752  0.00  0.00    +0.065 A 
ATOM      5  N   UNL     1       9.206   4.743  24.208  0.00  0.00    -0.151 N 
ATOM      6  C   UNL     1       9.768   6.000  24.296  0.00  0.00    +0.284 A 
ATOM      7  O   UNL     1       9.160   6.988  24.698  0.00  0.00    -0.265 OA
ATOM      8  C   UNL     1      11.184   6.096  23.880  0.00  0.00    +0.076 A 
ENDROOT
BRANCH   4   9
ATOM      9  C   UNL     1       9.091   2.268  23.626  0.00  0.00    +0.039 C 
ATOM     10  C   UNL     1       9.605   1.190  24.602  0.00  0.00    +0.010 C 
ATOM     11  C   UNL     1      10.588   0.188  24.011  0.00  0.00    +0.001 C 
ATOM     12  C   UNL     1      10.047  -0.428  22.730  0.00  0.00    +0.000 C 
ATOM     13  C   UNL     1       9.747   0.633  21.680  0.00  0.00    +0.001 C 
ATOM     14  C   UNL     1       8.835   1.749  22.192  0.00  0.00    +0.010 C 
ENDBRANCH   4   9
BRANCH   5  15
ATOM     15  O   UNL     1       7.869   4.648  24.629  0.00  0.00    -0.423 OA
ATOM     16  H   UNL     1       7.613   5.593  24.688  0.00  0.00    +0.326 HD
ENDBRANCH   5  15
TORSDOF 2
ENDMDL
MODEL 2
REMARK VINA RESULT:      -5.5      4.713      7.079
REMARK  Name = 
REMARK  3 active torsions:
REMARK  status: ('A' for Active; 'I' for Inactive)
REMARK    1  A    between atoms: C_1  and  C_2
REMARK    2  A    between atoms: N_6  and  O_7
REMARK    3  A    between atoms: C_8  and  C_10
REMARK                            x       y       z     vdW  Elec       q    Type
REMARK                         _______ _______ _______ _____ _____    ______ ____
ROOT
ATOM      1  C   UNL     1       5.391  -0.997  25.417  0.00  0.00    +0.044 C 
ATOM      2  C   UNL     1       6.649  -1.745  25.085  0.00  0.00    -0.043 A 
ATOM      3  C   UNL     1       7.746  -1.020  24.459  0.00  0.00    +0.028 A 
ATOM      4  C   UNL     1       8.913  -1.630  24.143  0.00  0.00    +0.065 A 
ATOM      5  N   UNL     1       9.019  -2.968  24.449  0.00  0.00    -0.151 N 
ATOM      6  C   UNL     1       8.038  -3.752  25.021  0.00  0.00    +0.284 A 
ATOM      7  O   UNL     1       8.180  -4.948  25.262  0.00  0.00    -0.265 OA
ATOM      8  C   UNL     1       6.775  -3.056  25.348  0.00  0.00    +0.076 A 
ENDROOT
BRANCH   4   9
ATOM      9  C   UNL     1      10.042  -0.867  23.440  0.00  0.00    +0.039 C 
ATOM     10  C   UNL     1      10.600   0.304  24.274  0.00  0.00    +0.010 C 
ATOM     11  C   UNL     1      10.054   1.680  23.916  0.00  0.00    +0.001 C 
ATOM     12  C   UNL     1      10.169   1.950  22.424  0.00  0.00    +0.000 C 
ATOM     13  C   UNL     1       9.424   0.905  21.605  0.00  0.00    +0.001 C 
ATOM     14  C   UNL     1       9.826  -0.531  21.946  0.00  0.00    +0.010 C 
ENDBRANCH   4   9
BRANCH   5  15
ATOM     15  O   UNL     1      10.227  -3.625  24.164  0.00  0.00    -0.423 OA
ATOM     16  H   UNL     1      10.873  -2.889  24.232  0.00  0.00    +0.326 HD
ENDBRANCH   5  15
TORSDOF 2
ENDMDL
MODEL 3
REMARK VINA RESULT:      -5.5      1.883      2.185
REMARK  Name = 
REMARK  3 active torsions:
REMARK  status: ('A' for Active; 'I' for Inactive)
REMARK    1  A    between atoms: C_1  and  C_2
REMARK    2  A    between atoms: N_6  and  O_7
REMARK    3  A    between atoms: C_8  and  C_10
REMARK                            x       y       z     vdW  Elec       q    Type
REMARK                         _______ _______ _______ _____ _____    ______ ____
ROOT
ATOM      1  C   UNL     1      10.765   6.371  24.556  0.00  0.00    +0.044 C 
ATOM      2  C   UNL     1       9.599   5.804  23.800  0.00  0.00    -0.043 A 
ATOM      3  C   UNL     1       9.397   4.362  23.809  0.00  0.00    +0.028 A 
ATOM      4  C   UNL     1       8.360   3.785  23.157  0.00  0.00    +0.065 A 
ATOM      5  N   UNL     1       7.497   4.626  22.491  0.00  0.00    -0.151 N 
ATOM      6  C   UNL     1       7.607   5.998  22.401  0.00  0.00    +0.284 A 
ATOM      7  O   UNL     1       6.815   6.703  21.781  0.00  0.00    -0.265 OA
ATOM      8  C   UNL     1       8.754   6.595  23.119  0.00  0.00    +0.076 A 
ENDROOT
BRANCH   4   9
ATOM      9  C   UNL     1       8.186   2.262  23.135  0.00  0.00    +0.039 C 
ATOM     10  C   UNL     1       8.630   1.576  24.443  0.00  0.00    +0.010 C 
ATOM     11  C   UNL     1      10.026   0.967  24.422  0.00  0.00    +0.001 C 
ATOM     12  C   UNL     1      10.212   0.055  23.220  0.00  0.00    +0.000 C 
ATOM     13  C   UNL     1       9.987   0.798  21.910  0.00  0.00    +0.001 C 
ATOM     14  C   UNL     1       8.646   1.530  21.853  0.00  0.00    +0.010 C 
ENDBRANCH   4   9
BRANCH   5  15
ATOM     15  O   UNL     1       6.393   4.063  21.831  0.00  0.00    -0.423 OA
ATOM     16  H   UNL     1       6.678   4.109  20.893  0.00  0.00    +0.326 HD
ENDBRANCH   5  15
TORSDOF 2
ENDMDL
MODEL 4
REMARK VINA RESULT:      -5.5      1.774      3.143
REMARK  Name = 
REMARK  3 active torsions:
REMARK  status: ('A' for Active; 'I' for Inactive)
REMARK    1  A    between atoms: C_1  and  C_2
REMARK    2  A    between atoms: N_6  and  O_7
REMARK    3  A    between atoms: C_8  and  C_10
REMARK                            x       y       z     vdW  Elec       q    Type
REMARK                         _______ _______ _______ _____ _____    ______ ____
ROOT
ATOM      1  C   UNL     1       6.760   3.268  26.469  0.00  0.00    +0.044 C 
ATOM      2  C   UNL     1       7.886   3.722  25.588  0.00  0.00    -0.043 A 
ATOM      3  C   UNL     1       8.656   2.717  24.868  0.00  0.00    +0.028 A 
ATOM      4  C   UNL     1       9.678   3.057  24.047  0.00  0.00    +0.065 A 
ATOM      5  N   UNL     1       9.951   4.401  23.917  0.00  0.00    -0.151 N 
ATOM      6  C   UNL     1       9.302   5.430  24.566  0.00  0.00    +0.284 A 
ATOM      7  O   UNL     1       9.594   6.614  24.424  0.00  0.00    -0.265 OA
ATOM      8  C   UNL     1       8.195   5.023  25.459  0.00  0.00    +0.076 A 
ENDROOT
BRANCH   4   9
ATOM      9  C   UNL     1      10.512   1.987  23.332  0.00  0.00    +0.039 C 
ATOM     10  C   UNL     1      10.001   1.661  21.914  0.00  0.00    +0.010 C 
ATOM     11  C   UNL     1       9.129   0.417  21.803  0.00  0.00    +0.001 C 
ATOM     12  C   UNL     1       9.800  -0.787  22.448  0.00  0.00    +0.000 C 
ATOM     13  C   UNL     1      10.104  -0.538  23.919  0.00  0.00    +0.001 C 
ATOM     14  C   UNL     1      10.903   0.744  24.163  0.00  0.00    +0.010 C 
ENDBRANCH   4   9
BRANCH   5  15
ATOM     15  O   UNL     1      10.985   4.791  23.049  0.00  0.00    -0.423 OA
ATOM     16  H   UNL     1      11.214   5.677  23.400  0.00  0.00    +0.326 HD
ENDBRANCH   5  15
TORSDOF 2
ENDMDL
MODEL 5
REMARK VINA RESULT:      -5.3      5.337      8.159
REMARK  Name = 
REMARK  3 active torsions:
REMARK  status: ('A' for Active; 'I' for Inactive)
REMARK    1  A    between atoms: C_1  and  C_2
REMARK    2  A    between atoms: N_6  and  O_7
REMARK    3  A    between atoms: C_8  and  C_10
REMARK                            x       y       z     vdW  Elec       q    Type
REMARK                         _______ _______ _______ _____ _____    ______ ____
ROOT
ATOM      1  C   UNL     1       6.443  -5.188  21.415  0.00  0.00    +0.044 C 
ATOM      2  C   UNL     1       7.039  -4.704  22.704  0.00  0.00    -0.043 A 
ATOM      3  C   UNL     1       7.785  -3.453  22.700  0.00  0.00    +0.028 A 
ATOM      4  C   UNL     1       8.339  -2.953  23.830  0.00  0.00    +0.065 A 
ATOM      5  N   UNL     1       8.158  -3.678  24.987  0.00  0.00    -0.151 N 
ATOM      6  C   UNL     1       7.490  -4.880  25.098  0.00  0.00    +0.284 A 
ATOM      7  O   UNL     1       7.368  -5.494  26.154  0.00  0.00    -0.265 OA
ATOM      8  C   UNL     1       6.902  -5.400  23.844  0.00  0.00    +0.076 A 
ENDROOT
BRANCH   4   9
ATOM      9  C   UNL     1       9.163  -1.660  23.804  0.00  0.00    +0.039 C 
ATOM     10  C   UNL     1       8.320  -0.393  24.054  0.00  0.00    +0.010 C 
ATOM     11  C   UNL     1       7.907   0.374  22.805  0.00  0.00    +0.001 C 
ATOM     12  C   UNL     1       9.105   0.665  21.913  0.00  0.00    +0.000 C 
ATOM     13  C   UNL     1       9.809  -0.615  21.485  0.00  0.00    +0.001 C 
ATOM     14  C   UNL     1      10.193  -1.517  22.660  0.00  0.00    +0.010 C 
ENDBRANCH   4   9
BRANCH   5  15
ATOM     15  O   UNL     1       8.693  -3.171  26.183  0.00  0.00    -0.423 OA
ATOM     16  H   UNL     1       9.438  -3.789  26.343  0.00  0.00    +0.326 HD
ENDBRANCH   5  15
TORSDOF 2
ENDMDL
MODEL 6
REMARK VINA RESULT:      -5.3      3.895      6.084
REMARK  Name = 
REMARK  3 active torsions:
REMARK  status: ('A' for Active; 'I' for Inactive)
REMARK    1  A    between atoms: C_1  and  C_2
REMARK    2  A    between atoms: N_6  and  O_7
REMARK    3  A    between atoms: C_8  and  C_10
REMARK                            x       y       z     vdW  Elec       q    Type
REMARK                         _______ _______ _______ _____ _____    ______ ____
ROOT
ATOM      1  C   UNL     1       8.033  -0.545  27.073  0.00  0.00    +0.044 C 
ATOM      2  C   UNL     1       8.656  -0.869  25.747  0.00  0.00    -0.043 A 
ATOM      3  C   UNL     1       8.832   0.205  24.778  0.00  0.00    +0.028 A 
ATOM      4  C   UNL     1       9.397  -0.016  23.567  0.00  0.00    +0.065 A 
ATOM      5  N   UNL     1       9.807  -1.302  23.296  0.00  0.00    -0.151 N 
ATOM      6  C   UNL     1       9.670  -2.392  24.130  0.00  0.00    +0.284 A 
ATOM      7  O   UNL     1      10.042  -3.524  23.833  0.00  0.00    -0.265 OA
ATOM      8  C   UNL     1       9.044  -2.118  25.442  0.00  0.00    +0.076 A 
ENDROOT
BRANCH   4   9
ATOM      9  C   UNL     1       9.532   1.113  22.538  0.00  0.00    +0.039 C 
ATOM     10  C   UNL     1      10.114   2.413  23.129  0.00  0.00    +0.010 C 
ATOM     11  C   UNL     1       9.091   3.479  23.498  0.00  0.00    +0.001 C 
ATOM     12  C   UNL     1       8.147   3.763  22.340  0.00  0.00    +0.000 C 
ATOM     13  C   UNL     1       7.403   2.510  21.901  0.00  0.00    +0.001 C 
ATOM     14  C   UNL     1       8.331   1.334  21.590  0.00  0.00    +0.010 C 
ENDBRANCH   4   9
BRANCH   5  15
ATOM     15  O   UNL     1      10.426  -1.559  22.061  0.00  0.00    -0.423 OA
ATOM     16  H   UNL     1      10.325  -0.695  21.606  0.00  0.00    +0.326 HD
ENDBRANCH   5  15
TORSDOF 2
ENDMDL
MODEL 7
REMARK VINA RESULT:      -5.3      4.805      6.860
REMARK  Name = 
REMARK  3 active torsions:
REMARK  status: ('A' for Active; 'I' for Inactive)
REMARK    1  A    between atoms: C_1  and  C_2
REMARK    2  A    between atoms: N_6  and  O_7
REMARK    3  A    between atoms: C_8  and  C_10
REMARK                            x       y       z     vdW  Elec       q    Type
REMARK                         _______ _______ _______ _____ _____    ______ ____
ROOT
ATOM      1  C   UNL     1       8.104  -0.760  26.982  0.00  0.00    +0.044 C 
ATOM      2  C   UNL     1       8.583  -1.003  25.581  0.00  0.00    -0.043 A 
ATOM      3  C   UNL     1       7.981  -2.087  24.817  0.00  0.00    +0.028 A 
ATOM      4  C   UNL     1       8.358  -2.354  23.544  0.00  0.00    +0.065 A 
ATOM      5  N   UNL     1       9.333  -1.548  23.000  0.00  0.00    -0.151 N 
ATOM      6  C   UNL     1       9.982  -0.512  23.640  0.00  0.00    +0.284 A 
ATOM      7  O   UNL     1      10.856   0.170  23.112  0.00  0.00    -0.265 OA
ATOM      8  C   UNL     1       9.550  -0.251  25.030  0.00  0.00    +0.076 A 
ENDROOT
BRANCH   4   9
ATOM      9  C   UNL     1       7.750  -3.528  22.767  0.00  0.00    +0.039 C 
ATOM     10  C   UNL     1       6.436  -3.168  22.044  0.00  0.00    +0.010 C 
ATOM     11  C   UNL     1       5.159  -3.571  22.769  0.00  0.00    +0.001 C 
ATOM     12  C   UNL     1       5.192  -5.036  23.175  0.00  0.00    +0.000 C 
ATOM     13  C   UNL     1       6.379  -5.342  24.077  0.00  0.00    +0.001 C 
ATOM     14  C   UNL     1       7.719  -4.895  23.488  0.00  0.00    +0.010 C 
ENDBRANCH   4   9
BRANCH   5  15
ATOM     15  O   UNL     1       9.725  -1.778  21.671  0.00  0.00    -0.423 OA
ATOM     16  H   UNL     1       9.499  -0.922  21.247  0.00  0.00    +0.326 HD
ENDBRANCH   5  15
TORSDOF 2
ENDMDL
MODEL 8
REMARK VINA RESULT:      -5.2      7.147      9.716
REMARK  Name = 
REMARK  3 active torsions:
REMARK  status: ('A' for Active; 'I' for Inactive)
REMARK    1  A    between atoms: C_1  and  C_2
REMARK    2  A    between atoms: N_6  and  O_7
REMARK    3  A    between atoms: C_8  and  C_10
REMARK                            x       y       z     vdW  Elec       q    Type
REMARK                         _______ _______ _______ _____ _____    ______ ____
ROOT
ATOM      1  C   UNL     1       3.867  -4.132  23.989  0.00  0.00    +0.044 C 
ATOM      2  C   UNL     1       4.883  -4.642  24.968  0.00  0.00    -0.043 A 
ATOM      3  C   UNL     1       6.164  -3.956  25.064  0.00  0.00    +0.028 A 
ATOM      4  C   UNL     1       7.121  -4.357  25.935  0.00  0.00    +0.065 A 
ATOM      5  N   UNL     1       6.824  -5.438  26.734  0.00  0.00    -0.151 N 
ATOM      6  C   UNL     1       5.655  -6.169  26.711  0.00  0.00    +0.284 A 
ATOM      7  O   UNL     1       5.444  -7.136  27.438  0.00  0.00    -0.265 OA
ATOM      8  C   UNL     1       4.633  -5.709  25.745  0.00  0.00    +0.076 A 
ENDROOT
BRANCH   4   9
ATOM      9  C   UNL     1       8.484  -3.657  25.992  0.00  0.00    +0.039 C 
ATOM     10  C   UNL     1       8.401  -2.193  26.469  0.00  0.00    +0.010 C 
ATOM     11  C   UNL     1       8.410  -1.143  25.365  0.00  0.00    +0.001 C 
ATOM     12  C   UNL     1       9.575  -1.356  24.410  0.00  0.00    +0.000 C 
ATOM     13  C   UNL     1       9.530  -2.735  23.768  0.00  0.00    +0.001 C 
ATOM     14  C   UNL     1       9.426  -3.873  24.784  0.00  0.00    +0.010 C 
ENDBRANCH   4   9
BRANCH   5  15
ATOM     15  O   UNL     1       7.783  -5.860  27.670  0.00  0.00    -0.423 OA
ATOM     16  H   UNL     1       7.397  -6.707  27.979  0.00  0.00    +0.326 HD
ENDBRANCH   5  15
TORSDOF 2
ENDMDL
MODEL 9
REMARK VINA RESULT:      -5.2      4.541      6.432
REMARK  Name = 
REMARK  3 active torsions:
REMARK  status: ('A' for Active; 'I' for Inactive)
REMARK    1  A    between atoms: C_1  and  C_2
REMARK    2  A    between atoms: N_6  and  O_7
REMARK    3  A    between atoms: C_8  and  C_10
REMARK                            x       y       z     vdW  Elec       q    Type
REMARK                         _______ _______ _______ _____ _____    ______ ____
ROOT
ATOM      1  C   UNL     1       5.877   1.409  24.012  0.00  0.00    +0.044 C 
ATOM      2  C   UNL     1       6.983   0.650  23.340  0.00  0.00    -0.043 A 
ATOM      3  C   UNL     1       6.842  -0.791  23.181  0.00  0.00    +0.028 A 
ATOM      4  C   UNL     1       7.797  -1.535  22.574  0.00  0.00    +0.065 A 
ATOM      5  N   UNL     1       8.905  -0.866  22.105  0.00  0.00    -0.151 N 
ATOM      6  C   UNL     1       9.147   0.487  22.221  0.00  0.00    +0.284 A 
ATOM      7  O   UNL     1      10.160   1.034  21.795  0.00  0.00    -0.265 OA
ATOM      8  C   UNL     1       8.087   1.270  22.894  0.00  0.00    +0.076 A 
ENDROOT
BRANCH   4   9
ATOM      9  C   UNL     1       7.660  -3.058  22.456  0.00  0.00    +0.039 C 
ATOM     10  C   UNL     1       6.318  -3.505  21.841  0.00  0.00    +0.010 C 
ATOM     11  C   UNL     1       5.252  -3.936  22.840  0.00  0.00    +0.001 C 
ATOM     12  C   UNL     1       5.794  -4.970  23.815  0.00  0.00    +0.000 C 
ATOM     13  C   UNL     1       6.995  -4.440  24.586  0.00  0.00    +0.001 C 
ATOM     14  C   UNL     1       8.100  -3.891  23.682  0.00  0.00    +0.010 C 
ENDBRANCH   4   9
BRANCH   5  15
ATOM     15  O   UNL     1       9.900  -1.603  21.442  0.00  0.00    -0.423 OA
ATOM     16  H   UNL     1       9.516  -2.506  21.451  0.00  0.00    +0.326 HD
ENDBRANCH   5  15
TORSDOF 2
ENDMDL
