MODEL 1
REMARK VINA RESULT:      -5.3      0.000      0.000
REMARK  Name = 
REMARK  2 active torsions:
REMARK  status: ('A' for Active; 'I' for Inactive)
REMARK    1  A    between atoms: C_2  and  O_3
REMARK    2  A    between atoms: C_12  and  O_14
REMARK                            x       y       z     vdW  Elec       q    Type
REMARK                         _______ _______ _______ _____ _____    ______ ____
ROOT
ATOM      1  C   UNL     1       9.159  -2.378  23.888  0.00  0.00    +0.170 C 
ATOM      2  C   UNL     1       9.541  -1.471  22.675  0.00  0.00    +0.177 C 
ATOM      3  C   UNL     1       9.651   0.010  22.963  0.00  0.00    -0.009 A 
ATOM      4  C   UNL     1       9.900   0.908  21.908  0.00  0.00    +0.007 A 
ATOM      5  C   UNL     1      10.055   2.274  22.153  0.00  0.00    +0.000 A 
ATOM      6  C   UNL     1       9.963   2.757  23.455  0.00  0.00    +0.001 A 
ATOM      7  C   UNL     1       9.704   1.879  24.509  0.00  0.00    +0.008 A 
ATOM      8  C   UNL     1       9.543   0.508  24.274  0.00  0.00    -0.020 A 
ATOM      9  C   UNL     1       9.262  -0.382  25.395  0.00  0.00    +0.006 C 
ATOM     10  C   UNL     1       9.080  -1.696  25.215  0.00  0.00    +0.007 C 
ENDROOT
BRANCH   1  11
ATOM     11  O   UNL     1      10.110  -3.436  24.067  0.00  0.00    -0.385 OA
ATOM     12  H   UNL     1      10.463  -3.607  23.170  0.00  0.00    +0.210 HD
ENDBRANCH   1  11
BRANCH   2  13
ATOM     13  O   UNL     1      10.804  -1.937  22.143  0.00  0.00    -0.384 OA
ATOM     14  H   UNL     1      11.033  -1.367  21.391  0.00  0.00    +0.210 HD
ENDBRANCH   2  13
TORSDOF 2
ENDMDL
MODEL 2
REMARK VINA RESULT:      -5.2      5.957      6.934
REMARK  Name = 
REMARK  2 active torsions:
REMARK  status: ('A' for Active; 'I' for Inactive)
REMARK    1  A    between atoms: C_2  and  O_3
REMARK    2  A    between atoms: C_12  and  O_14
REMARK                            x       y       z     vdW  Elec       q    Type
REMARK                         _______ _______ _______ _____ _____    ______ ____
ROOT
ATOM      1  C   UNL     1       7.350  -5.063  26.902  0.00  0.00    +0.170 C 
ATOM      2  C   UNL     1       6.040  -5.408  26.126  0.00  0.00    +0.177 C 
ATOM      3  C   UNL     1       6.146  -5.419  24.616  0.00  0.00    -0.009 A 
ATOM      4  C   UNL     1       4.992  -5.629  23.838  0.00  0.00    +0.007 A 
ATOM      5  C   UNL     1       5.070  -5.692  22.445  0.00  0.00    +0.000 A 
ATOM      6  C   UNL     1       6.302  -5.547  21.816  0.00  0.00    +0.001 A 
ATOM      7  C   UNL     1       7.453  -5.325  22.574  0.00  0.00    +0.008 A 
ATOM      8  C   UNL     1       7.385  -5.256  23.971  0.00  0.00    -0.020 A 
ATOM      9  C   UNL     1       8.604  -5.013  24.736  0.00  0.00    +0.006 C 
ATOM     10  C   UNL     1       8.583  -4.917  26.070  0.00  0.00    +0.007 C 
ENDROOT
BRANCH   1  11
ATOM     11  O   UNL     1       7.666  -6.076  27.866  0.00  0.00    -0.385 OA
ATOM     12  H   UNL     1       7.067  -6.820  27.650  0.00  0.00    +0.210 HD
ENDBRANCH   1  11
BRANCH   2  13
ATOM     13  O   UNL     1       5.581  -6.707  26.568  0.00  0.00    -0.384 OA
ATOM     14  H   UNL     1       6.166  -7.375  26.174  0.00  0.00    +0.210 HD
ENDBRANCH   2  13
TORSDOF 2
ENDMDL
MODEL 3
REMARK VINA RESULT:      -5.1      2.272      3.513
REMARK  Name = 
REMARK  2 active torsions:
REMARK  status: ('A' for Active; 'I' for Inactive)
REMARK    1  A    between atoms: C_2  and  O_3
REMARK    2  A    between atoms: C_12  and  O_14
REMARK                            x       y       z     vdW  Elec       q    Type
REMARK                         _______ _______ _______ _____ _____    ______ ____
ROOT
ATOM      1  C   UNL     1       7.884  -4.999  25.744  0.00  0.00    +0.170 C 
ATOM      2  C   UNL     1       8.926  -4.484  24.702  0.00  0.00    +0.177 C 
ATOM      3  C   UNL     1       9.127  -2.985  24.649  0.00  0.00    -0.009 A 
ATOM      4  C   UNL     1       9.979  -2.431  23.676  0.00  0.00    +0.007 A 
ATOM      5  C   UNL     1      10.220  -1.056  23.635  0.00  0.00    +0.000 A 
ATOM      6  C   UNL     1       9.613  -0.221  24.569  0.00  0.00    +0.001 A 
ATOM      7  C   UNL     1       8.756  -0.756  25.532  0.00  0.00    +0.008 A 
ATOM      8  C   UNL     1       8.504  -2.133  25.579  0.00  0.00    -0.020 A 
ATOM      9  C   UNL     1       7.595  -2.661  26.590  0.00  0.00    +0.006 C 
ATOM     10  C   UNL     1       7.309  -3.966  26.658  0.00  0.00    +0.007 C 
ENDROOT
BRANCH   1  11
ATOM     11  O   UNL     1       8.459  -5.987  26.611  0.00  0.00    -0.385 OA
ATOM     12  H   UNL     1       8.474  -5.564  27.494  0.00  0.00    +0.210 HD
ENDBRANCH   1  11
BRANCH   2  13
ATOM     13  O   UNL     1      10.198  -5.114  24.986  0.00  0.00    -0.384 OA
ATOM     14  H   UNL     1      10.698  -5.152  24.154  0.00  0.00    +0.210 HD
ENDBRANCH   2  13
TORSDOF 2
ENDMDL
MODEL 4
REMARK VINA RESULT:      -5.1      1.630      3.831
REMARK  Name = 
REMARK  2 active torsions:
REMARK  status: ('A' for Active; 'I' for Inactive)
REMARK    1  A    between atoms: C_2  and  O_3
REMARK    2  A    between atoms: C_12  and  O_14
REMARK                            x       y       z     vdW  Elec       q    Type
REMARK                         _______ _______ _______ _____ _____    ______ ____
ROOT
ATOM      1  C   UNL     1      10.193   1.520  22.523  0.00  0.00    +0.170 C 
ATOM      2  C   UNL     1      10.246  -0.030  22.342  0.00  0.00    +0.177 C 
ATOM      3  C   UNL     1       9.730  -0.852  23.504  0.00  0.00    -0.009 A 
ATOM      4  C   UNL     1       9.828  -2.254  23.461  0.00  0.00    +0.007 A 
ATOM      5  C   UNL     1       9.316  -3.039  24.497  0.00  0.00    +0.000 A 
ATOM      6  C   UNL     1       8.700  -2.428  25.585  0.00  0.00    +0.001 A 
ATOM      7  C   UNL     1       8.608  -1.037  25.646  0.00  0.00    +0.008 A 
ATOM      8  C   UNL     1       9.122  -0.241  24.615  0.00  0.00    -0.020 A 
ATOM      9  C   UNL     1       9.020   1.211  24.713  0.00  0.00    +0.006 C 
ATOM     10  C   UNL     1       9.516   2.011  23.762  0.00  0.00    +0.007 C 
ENDROOT
BRANCH   1  11
ATOM     11  O   UNL     1       9.492   2.147  21.440  0.00  0.00    -0.385 OA
ATOM     12  H   UNL     1       9.423   1.452  20.754  0.00  0.00    +0.210 HD
ENDBRANCH   1  11
BRANCH   2  13
ATOM     13  O   UNL     1       9.489  -0.372  21.158  0.00  0.00    -0.384 OA
ATOM     14  H   UNL     1      10.068  -0.235  20.390  0.00  0.00    +0.210 HD
ENDBRANCH   2  13
TORSDOF 2
ENDMDL
MODEL 5
REMARK VINA RESULT:      -5.0      5.000      7.205
REMARK  Name = 
REMARK  2 active torsions:
REMARK  status: ('A' for Active; 'I' for Inactive)
REMARK    1  A    between atoms: C_2  and  O_3
REMARK    2  A    between atoms: C_12  and  O_14
REMARK                            x       y       z     vdW  Elec       q    Type
REMARK                         _______ _______ _______ _____ _____    ______ ____
ROOT
ATOM      1  C   UNL     1       8.684  -4.238  26.316  0.00  0.00    +0.170 C 
ATOM      2  C   UNL     1       7.404  -4.962  26.842  0.00  0.00    +0.177 C 
ATOM      3  C   UNL     1       6.421  -5.421  25.787  0.00  0.00    -0.009 A 
ATOM      4  C   UNL     1       5.199  -5.998  26.178  0.00  0.00    +0.007 A 
ATOM      5  C   UNL     1       4.295  -6.474  25.226  0.00  0.00    +0.000 A 
ATOM      6  C   UNL     1       4.604  -6.379  23.872  0.00  0.00    +0.001 A 
ATOM      7  C   UNL     1       5.807  -5.797  23.470  0.00  0.00    +0.008 A 
ATOM      8  C   UNL     1       6.719  -5.313  24.417  0.00  0.00    -0.020 A 
ATOM      9  C   UNL     1       7.963  -4.700  23.964  0.00  0.00    +0.006 C 
ATOM     10  C   UNL     1       8.853  -4.204  24.832  0.00  0.00    +0.007 C 
ENDROOT
BRANCH   1  11
ATOM     11  O   UNL     1       9.876  -4.861  26.814  0.00  0.00    -0.385 OA
ATOM     12  H   UNL     1       9.631  -5.802  26.938  0.00  0.00    +0.210 HD
ENDBRANCH   1  11
BRANCH   2  13
ATOM     13  O   UNL     1       7.820  -6.109  27.619  0.00  0.00    -0.384 OA
ATOM     14  H   UNL     1       7.171  -6.816  27.469  0.00  0.00    +0.210 HD
ENDBRANCH   2  13
TORSDOF 2
ENDMDL
MODEL 6
REMARK VINA RESULT:      -4.9      2.024      4.399
REMARK  Name = 
REMARK  2 active torsions:
REMARK  status: ('A' for Active; 'I' for Inactive)
REMARK    1  A    between atoms: C_2  and  O_3
REMARK    2  A    between atoms: C_12  and  O_14
REMARK                            x       y       z     vdW  Elec       q    Type
REMARK                         _______ _______ _______ _____ _____    ______ ____
ROOT
ATOM      1  C   UNL     1       9.747   2.062  23.364  0.00  0.00    +0.170 C 
ATOM      2  C   UNL     1       9.410   0.936  24.391  0.00  0.00    +0.177 C 
ATOM      3  C   UNL     1       8.997  -0.396  23.803  0.00  0.00    -0.009 A 
ATOM      4  C   UNL     1       8.588  -1.437  24.657  0.00  0.00    +0.007 A 
ATOM      5  C   UNL     1       8.249  -2.692  24.145  0.00  0.00    +0.000 A 
ATOM      6  C   UNL     1       8.317  -2.918  22.774  0.00  0.00    +0.001 A 
ATOM      7  C   UNL     1       8.709  -1.891  21.914  0.00  0.00    +0.008 A 
ATOM      8  C   UNL     1       9.047  -0.628  22.417  0.00  0.00    -0.020 A 
ATOM      9  C   UNL     1       9.443   0.428  21.492  0.00  0.00    +0.006 C 
ATOM     10  C   UNL     1       9.754   1.656  21.926  0.00  0.00    +0.007 C 
ENDROOT
BRANCH   1  11
ATOM     11  O   UNL     1      11.049   2.613  23.603  0.00  0.00    -0.385 OA
ATOM     12  H   UNL     1      11.427   2.753  22.711  0.00  0.00    +0.210 HD
ENDBRANCH   1  11
BRANCH   2  13
ATOM     13  O   UNL     1      10.567   0.733  25.235  0.00  0.00    -0.384 OA
ATOM     14  H   UNL     1      11.349   1.020  24.735  0.00  0.00    +0.210 HD
ENDBRANCH   2  13
TORSDOF 2
ENDMDL
MODEL 7
REMARK VINA RESULT:      -4.8      1.465      2.431
REMARK  Name = 
REMARK  2 active torsions:
REMARK  status: ('A' for Active; 'I' for Inactive)
REMARK    1  A    between atoms: C_2  and  O_3
REMARK    2  A    between atoms: C_12  and  O_14
REMARK                            x       y       z     vdW  Elec       q    Type
REMARK                         _______ _______ _______ _____ _____    ______ ____
ROOT
ATOM      1  C   UNL     1       9.263  -2.608  23.915  0.00  0.00    +0.170 C 
ATOM      2  C   UNL     1       9.768  -1.349  24.689  0.00  0.00    +0.177 C 
ATOM      3  C   UNL     1       9.953  -0.093  23.864  0.00  0.00    -0.009 A 
ATOM      4  C   UNL     1      10.492   1.060  24.464  0.00  0.00    +0.007 A 
ATOM      5  C   UNL     1      10.628   2.246  23.739  0.00  0.00    +0.000 A 
ATOM      6  C   UNL     1      10.225   2.291  22.408  0.00  0.00    +0.001 A 
ATOM      7  C   UNL     1       9.700   1.151  21.798  0.00  0.00    +0.008 A 
ATOM      8  C   UNL     1       9.563  -0.044  22.514  0.00  0.00    -0.020 A 
ATOM      9  C   UNL     1       9.021  -1.222  21.844  0.00  0.00    +0.006 C 
ATOM     10  C   UNL     1       8.893  -2.391  22.484  0.00  0.00    +0.007 C 
ENDROOT
BRANCH   1  11
ATOM     11  O   UNL     1       8.088  -3.158  24.526  0.00  0.00    -0.385 OA
ATOM     12  H   UNL     1       7.469  -2.403  24.597  0.00  0.00    +0.210 HD
ENDBRANCH   1  11
BRANCH   2  13
ATOM     13  O   UNL     1       8.833  -1.070  25.757  0.00  0.00    -0.384 OA
ATOM     14  H   UNL     1       7.965  -1.408  25.483  0.00  0.00    +0.210 HD
ENDBRANCH   2  13
TORSDOF 2
ENDMDL
MODEL 8
REMARK VINA RESULT:      -4.8      4.840      5.493
REMARK  Name = 
REMARK  2 active torsions:
REMARK  status: ('A' for Active; 'I' for Inactive)
REMARK    1  A    between atoms: C_2  and  O_3
REMARK    2  A    between atoms: C_12  and  O_14
REMARK                            x       y       z     vdW  Elec       q    Type
REMARK                         _______ _______ _______ _____ _____    ______ ____
ROOT
ATOM      1  C   UNL     1       8.174  -4.961  26.545  0.00  0.00    +0.170 C 
ATOM      2  C   UNL     1       8.270  -5.609  25.128  0.00  0.00    +0.177 C 
ATOM      3  C   UNL     1       7.450  -4.949  24.040  0.00  0.00    -0.009 A 
ATOM      4  C   UNL     1       7.407  -5.523  22.756  0.00  0.00    +0.007 A 
ATOM      5  C   UNL     1       6.698  -4.909  21.721  0.00  0.00    +0.000 A 
ATOM      6  C   UNL     1       6.027  -3.714  21.959  0.00  0.00    +0.001 A 
ATOM      7  C   UNL     1       6.052  -3.140  23.231  0.00  0.00    +0.008 A 
ATOM      8  C   UNL     1       6.756  -3.749  24.277  0.00  0.00    -0.020 A 
ATOM      9  C   UNL     1       6.753  -3.130  25.598  0.00  0.00    +0.006 C 
ATOM     10  C   UNL     1       7.394  -3.689  26.631  0.00  0.00    +0.007 C 
ENDROOT
BRANCH   1  11
ATOM     11  O   UNL     1       9.474  -4.638  27.059  0.00  0.00    -0.385 OA
ATOM     12  H   UNL     1       9.819  -5.485  27.409  0.00  0.00    +0.210 HD
ENDBRANCH   1  11
BRANCH   2  13
ATOM     13  O   UNL     1       9.660  -5.612  24.725  0.00  0.00    -0.384 OA
ATOM     14  H   UNL     1      10.082  -6.385  25.135  0.00  0.00    +0.210 HD
ENDBRANCH   2  13
TORSDOF 2
ENDMDL
MODEL 9
REMARK VINA RESULT:      -4.8      3.528      5.369
REMARK  Name = 
REMARK  2 active torsions:
REMARK  status: ('A' for Active; 'I' for Inactive)
REMARK    1  A    between atoms: C_2  and  O_3
REMARK    2  A    between atoms: C_12  and  O_14
REMARK                            x       y       z     vdW  Elec       q    Type
REMARK                         _______ _______ _______ _____ _____    ______ ____
ROOT
ATOM      1  C   UNL     1       8.608   4.987  23.519  0.00  0.00    +0.170 C 
ATOM      2  C   UNL     1       9.722   3.907  23.696  0.00  0.00    +0.177 C 
ATOM      3  C   UNL     1       9.472   2.577  23.017  0.00  0.00    -0.009 A 
ATOM      4  C   UNL     1      10.380   1.519  23.203  0.00  0.00    +0.007 A 
ATOM      5  C   UNL     1      10.200   0.298  22.549  0.00  0.00    +0.000 A 
ATOM      6  C   UNL     1       9.109   0.123  21.703  0.00  0.00    +0.001 A 
ATOM      7  C   UNL     1       8.193   1.161  21.520  0.00  0.00    +0.008 A 
ATOM      8  C   UNL     1       8.363   2.388  22.174  0.00  0.00    -0.020 A 
ATOM      9  C   UNL     1       7.382   3.449  21.970  0.00  0.00    +0.006 C 
ATOM     10  C   UNL     1       7.493   4.629  22.591  0.00  0.00    +0.007 C 
ENDROOT
BRANCH   1  11
ATOM     11  O   UNL     1       9.147   6.211  23.002  0.00  0.00    -0.385 OA
ATOM     12  H   UNL     1       8.757   6.296  22.108  0.00  0.00    +0.210 HD
ENDBRANCH   1  11
BRANCH   2  13
ATOM     13  O   UNL     1      10.966   4.455  23.200  0.00  0.00    -0.384 OA
ATOM     14  H   UNL     1      10.780   4.875  22.344  0.00  0.00    +0.210 HD
ENDBRANCH   2  13
TORSDOF 2
ENDMDL
