MODEL 1
REMARK VINA RESULT:      -5.9      0.000      0.000
REMARK  Name = 
REMARK  4 active torsions:
REMARK  status: ('A' for Active; 'I' for Inactive)
REMARK    1  A    between atoms: O5*_1  and  C5*_2
REMARK    2  A    between atoms: C5*_2  and  C4*_3
REMARK    3  A    between atoms: C1*_6  and  N1_12
REMARK    4  A    between atoms: C3*_9  and  O3*_11
REMARK                            x       y       z     vdW  Elec       q    Type
REMARK                         _______ _______ _______ _____ _____    ______ ____
ROOT
ATOM      1  C4*   U A   1       9.028  -3.488  25.192  0.00  0.00    +0.175 C 
ATOM      2  C3*   U A   1       7.632  -3.366  24.597  0.00  0.00    +0.150 C 
ATOM      3  C2*   U A   1       7.845  -2.782  23.217  0.00  0.00    +0.088 C 
ATOM      4  C1*   U A   1       9.342  -2.496  23.123  0.00  0.00    +0.226 C 
ATOM      5  O4*   U A   1       9.965  -3.335  24.108  0.00  0.00    -0.348 OA
ENDROOT
BRANCH   4   6
ATOM      6  N1    U A   1       9.706  -1.085  23.321  0.00  0.00    -0.274 N 
ATOM      7  C2    U A   1       9.695  -0.262  22.195  0.00  0.00    +0.331 A 
ATOM      8  O2    U A   1       9.409  -0.643  21.062  0.00  0.00    -0.246 OA
ATOM      9  N3    U A   1      10.024   1.050  22.413  0.00  0.00    -0.275 N 
ATOM     10  H3    U A   1       9.981   1.666  21.618  0.00  0.00    +0.173 HD
ATOM     11  C4    U A   1      10.384   1.603  23.606  0.00  0.00    +0.254 A 
ATOM     12  O4    U A   1      10.622   2.796  23.749  0.00  0.00    -0.268 OA
ATOM     13  C5    U A   1      10.488   0.668  24.732  0.00  0.00    +0.088 A 
ATOM     14  C6    U A   1      10.155  -0.610  24.540  0.00  0.00    +0.098 A 
ENDBRANCH   4   6
BRANCH   2  15
ATOM     15  O3*   U A   1       6.832  -2.495  25.396  0.00  0.00    -0.389 OA
ATOM     16  H3*   U A   1       7.327  -2.318  26.216  0.00  0.00    +0.210 HD
ENDBRANCH   2  15
BRANCH   1  17
ATOM     17  C5*   U A   1       9.277  -4.800  25.933  0.00  0.00    +0.190 C 
BRANCH  17  18
ATOM     18  O5*   U A   1      10.221  -5.618  25.245  0.00  0.00    -0.392 OA
ATOM     19  H5*   U A   1      10.788  -6.022  25.925  0.00  0.00    +0.210 HD
ENDBRANCH  17  18
ENDBRANCH   1  17
TORSDOF 4
ENDMDL
MODEL 2
REMARK VINA RESULT:      -5.7      2.718      5.744
REMARK  Name = 
REMARK  4 active torsions:
REMARK  status: ('A' for Active; 'I' for Inactive)
REMARK    1  A    between atoms: O5*_1  and  C5*_2
REMARK    2  A    between atoms: C5*_2  and  C4*_3
REMARK    3  A    between atoms: C1*_6  and  N1_12
REMARK    4  A    between atoms: C3*_9  and  O3*_11
REMARK                            x       y       z     vdW  Elec       q    Type
REMARK                         _______ _______ _______ _____ _____    ______ ____
ROOT
ATOM      1  C4*   U A   1       8.689   0.059  22.340  0.00  0.00    +0.175 C 
ATOM      2  C3*   U A   1       7.650   0.753  23.210  0.00  0.00    +0.150 C 
ATOM      3  C2*   U A   1       7.365  -0.221  24.332  0.00  0.00    +0.088 C 
ATOM      4  C1*   U A   1       8.173  -1.474  23.998  0.00  0.00    +0.226 C 
ATOM      5  O4*   U A   1       9.212  -1.044  23.105  0.00  0.00    -0.348 OA
ENDROOT
BRANCH   4   6
ATOM      6  N1    U A   1       7.385  -2.567  23.408  0.00  0.00    -0.274 N 
ATOM      7  C2    U A   1       7.936  -3.847  23.460  0.00  0.00    +0.331 A 
ATOM      8  O2    U A   1       9.029  -4.111  23.958  0.00  0.00    -0.246 OA
ATOM      9  N3    U A   1       7.173  -4.847  22.916  0.00  0.00    -0.275 N 
ATOM     10  H3    U A   1       7.538  -5.782  22.982  0.00  0.00    +0.173 HD
ATOM     11  C4    U A   1       5.961  -4.696  22.312  0.00  0.00    +0.254 A 
ATOM     12  O4    U A   1       5.302  -5.636  21.884  0.00  0.00    -0.268 OA
ATOM     13  C5    U A   1       5.483  -3.314  22.185  0.00  0.00    +0.088 A 
ATOM     14  C6    U A   1       6.206  -2.331  22.725  0.00  0.00    +0.098 A 
ENDBRANCH   4   6
BRANCH   2  15
ATOM     15  O3*   U A   1       6.468   1.011  22.453  0.00  0.00    -0.389 OA
ATOM     16  H3*   U A   1       6.375   0.288  21.807  0.00  0.00    +0.210 HD
ENDBRANCH   2  15
BRANCH   1  17
ATOM     17  C5*   U A   1       9.821   0.972  21.873  0.00  0.00    +0.190 C 
BRANCH  17  18
ATOM     18  O5*   U A   1       9.323   2.227  21.413  0.00  0.00    -0.392 OA
ATOM     19  H5*   U A   1       8.845   2.050  20.583  0.00  0.00    +0.210 HD
ENDBRANCH  17  18
ENDBRANCH   1  17
TORSDOF 4
ENDMDL
MODEL 3
REMARK VINA RESULT:      -5.7      2.995      3.996
REMARK  Name = 
REMARK  4 active torsions:
REMARK  status: ('A' for Active; 'I' for Inactive)
REMARK    1  A    between atoms: O5*_1  and  C5*_2
REMARK    2  A    between atoms: C5*_2  and  C4*_3
REMARK    3  A    between atoms: C1*_6  and  N1_12
REMARK    4  A    between atoms: C3*_9  and  O3*_11
REMARK                            x       y       z     vdW  Elec       q    Type
REMARK                         _______ _______ _______ _____ _____    ______ ____
ROOT
ATOM      1  C4*   U A   1       5.700  -5.495  24.146  0.00  0.00    +0.175 C 
ATOM      2  C3*   U A   1       5.457  -5.575  22.645  0.00  0.00    +0.150 C 
ATOM      3  C2*   U A   1       6.822  -5.390  22.017  0.00  0.00    +0.088 C 
ATOM      4  C1*   U A   1       7.770  -5.105  23.181  0.00  0.00    +0.226 C 
ATOM      5  O4*   U A   1       7.120  -5.625  24.352  0.00  0.00    -0.348 OA
ENDROOT
BRANCH   4   6
ATOM      6  N1    U A   1       8.115  -3.686  23.351  0.00  0.00    -0.274 N 
ATOM      7  C2    U A   1       9.215  -3.392  24.157  0.00  0.00    +0.331 A 
ATOM      8  O2    U A   1       9.900  -4.238  24.728  0.00  0.00    -0.246 OA
ATOM      9  N3    U A   1       9.522  -2.063  24.285  0.00  0.00    -0.275 N 
ATOM     10  H3    U A   1      10.337  -1.836  24.829  0.00  0.00    +0.173 HD
ATOM     11  C4    U A   1       8.839  -1.022  23.730  0.00  0.00    +0.254 A 
ATOM     12  O4    U A   1       9.188   0.147  23.842  0.00  0.00    -0.268 OA
ATOM     13  C5    U A   1       7.626  -1.383  22.987  0.00  0.00    +0.088 A 
ATOM     14  C6    U A   1       7.323  -2.675  22.839  0.00  0.00    +0.098 A 
ENDBRANCH   4   6
BRANCH   2  15
ATOM     15  O3*   U A   1       4.568  -4.537  22.235  0.00  0.00    -0.389 OA
ATOM     16  H3*   U A   1       4.815  -4.285  21.327  0.00  0.00    +0.210 HD
ENDBRANCH   2  15
BRANCH   1  17
ATOM     17  C5*   U A   1       4.943  -6.545  24.956  0.00  0.00    +0.190 C 
BRANCH  17  18
ATOM     18  O5*   U A   1       4.332  -7.517  24.110  0.00  0.00    -0.392 OA
ATOM     19  H5*   U A   1       3.406  -7.596  24.398  0.00  0.00    +0.210 HD
ENDBRANCH  17  18
ENDBRANCH   1  17
TORSDOF 4
ENDMDL
MODEL 4
REMARK VINA RESULT:      -5.7      1.962      3.245
REMARK  Name = 
REMARK  4 active torsions:
REMARK  status: ('A' for Active; 'I' for Inactive)
REMARK    1  A    between atoms: O5*_1  and  C5*_2
REMARK    2  A    between atoms: C5*_2  and  C4*_3
REMARK    3  A    between atoms: C1*_6  and  N1_12
REMARK    4  A    between atoms: C3*_9  and  O3*_11
REMARK                            x       y       z     vdW  Elec       q    Type
REMARK                         _______ _______ _______ _____ _____    ______ ____
ROOT
ATOM      1  C4*   U A   1       8.171  -4.517  23.909  0.00  0.00    +0.175 C 
ATOM      2  C3*   U A   1       8.871  -5.084  25.136  0.00  0.00    +0.150 C 
ATOM      3  C2*   U A   1       8.688  -4.035  26.211  0.00  0.00    +0.088 C 
ATOM      4  C1*   U A   1       7.984  -2.866  25.524  0.00  0.00    +0.226 C 
ATOM      5  O4*   U A   1       7.352  -3.420  24.359  0.00  0.00    -0.348 OA
ENDROOT
BRANCH   4   6
ATOM      6  N1    U A   1       8.870  -1.748  25.167  0.00  0.00    -0.274 N 
ATOM      7  C2    U A   1       9.005  -0.722  26.101  0.00  0.00    +0.331 A 
ATOM      8  O2    U A   1       8.433  -0.696  27.189  0.00  0.00    -0.246 OA
ATOM      9  N3    U A   1       9.848   0.299  25.747  0.00  0.00    -0.275 N 
ATOM     10  H3    U A   1       9.989   1.027  26.428  0.00  0.00    +0.173 HD
ATOM     11  C4    U A   1      10.526   0.413  24.571  0.00  0.00    +0.254 A 
ATOM     12  O4    U A   1      11.303   1.328  24.328  0.00  0.00    -0.268 OA
ATOM     13  C5    U A   1      10.257  -0.637  23.581  0.00  0.00    +0.088 A 
ATOM     14  C6    U A   1       9.452  -1.647  23.916  0.00  0.00    +0.098 A 
ENDBRANCH   4   6
BRANCH   2  15
ATOM     15  O3*   U A   1      10.257  -5.289  24.860  0.00  0.00    -0.389 OA
ATOM     16  H3*   U A   1      10.348  -6.181  24.482  0.00  0.00    +0.210 HD
ENDBRANCH   2  15
BRANCH   1  17
ATOM     17  C5*   U A   1       7.328  -5.536  23.145  0.00  0.00    +0.190 C 
BRANCH  17  18
ATOM     18  O5*   U A   1       7.204  -5.185  21.769  0.00  0.00    -0.392 OA
ATOM     19  H5*   U A   1       6.791  -5.945  21.323  0.00  0.00    +0.210 HD
ENDBRANCH  17  18
ENDBRANCH   1  17
TORSDOF 4
ENDMDL
MODEL 5
REMARK VINA RESULT:      -5.7      2.123      5.746
REMARK  Name = 
REMARK  4 active torsions:
REMARK  status: ('A' for Active; 'I' for Inactive)
REMARK    1  A    between atoms: O5*_1  and  C5*_2
REMARK    2  A    between atoms: C5*_2  and  C4*_3
REMARK    3  A    between atoms: C1*_6  and  N1_12
REMARK    4  A    between atoms: C3*_9  and  O3*_11
REMARK                            x       y       z     vdW  Elec       q    Type
REMARK                         _______ _______ _______ _____ _____    ______ ____
ROOT
ATOM      1  C4*   U A   1       7.971   2.915  22.833  0.00  0.00    +0.175 C 
ATOM      2  C3*   U A   1       9.014   3.551  23.742  0.00  0.00    +0.150 C 
ATOM      3  C2*   U A   1      10.324   2.905  23.347  0.00  0.00    +0.088 C 
ATOM      4  C1*   U A   1       9.959   1.851  22.303  0.00  0.00    +0.226 C 
ATOM      5  O4*   U A   1       8.685   2.248  21.774  0.00  0.00    -0.348 OA
ENDROOT
BRANCH   4   6
ATOM      6  N1    U A   1       9.915   0.474  22.818  0.00  0.00    -0.274 N 
ATOM      7  C2    U A   1       9.580  -0.532  21.913  0.00  0.00    +0.331 A 
ATOM      8  O2    U A   1       9.319  -0.338  20.727  0.00  0.00    -0.246 OA
ATOM      9  N3    U A   1       9.562  -1.806  22.418  0.00  0.00    -0.275 N 
ATOM     10  H3    U A   1       9.362  -2.548  21.768  0.00  0.00    +0.173 HD
ATOM     11  C4    U A   1       9.806  -2.163  23.710  0.00  0.00    +0.254 A 
ATOM     12  O4    U A   1       9.821  -3.326  24.094  0.00  0.00    -0.268 OA
ATOM     13  C5    U A   1      10.041  -1.053  24.641  0.00  0.00    +0.088 A 
ATOM     14  C6    U A   1      10.079   0.192  24.162  0.00  0.00    +0.098 A 
ENDBRANCH   4   6
BRANCH   2  15
ATOM     15  O3*   U A   1       8.707   3.276  25.109  0.00  0.00    -0.389 OA
ATOM     16  H3*   U A   1       9.392   2.669  25.443  0.00  0.00    +0.210 HD
ENDBRANCH   2  15
BRANCH   1  17
ATOM     17  C5*   U A   1       6.960   3.905  22.258  0.00  0.00    +0.190 C 
BRANCH  17  18
ATOM     18  O5*   U A   1       7.592   5.113  21.840  0.00  0.00    -0.392 OA
ATOM     19  H5*   U A   1       6.891   5.686  21.483  0.00  0.00    +0.210 HD
ENDBRANCH  17  18
ENDBRANCH   1  17
TORSDOF 4
ENDMDL
MODEL 6
REMARK VINA RESULT:      -5.6      1.913      5.381
REMARK  Name = 
REMARK  4 active torsions:
REMARK  status: ('A' for Active; 'I' for Inactive)
REMARK    1  A    between atoms: O5*_1  and  C5*_2
REMARK    2  A    between atoms: C5*_2  and  C4*_3
REMARK    3  A    between atoms: C1*_6  and  N1_12
REMARK    4  A    between atoms: C3*_9  and  O3*_11
REMARK                            x       y       z     vdW  Elec       q    Type
REMARK                         _______ _______ _______ _____ _____    ______ ____
ROOT
ATOM      1  C4*   U A   1       8.704   1.450  23.051  0.00  0.00    +0.175 C 
ATOM      2  C3*   U A   1       9.541   2.196  24.081  0.00  0.00    +0.150 C 
ATOM      3  C2*   U A   1      10.646   1.234  24.459  0.00  0.00    +0.088 C 
ATOM      4  C1*   U A   1      10.334  -0.059  23.709  0.00  0.00    +0.226 C 
ATOM      5  O4*   U A   1       9.481   0.317  22.616  0.00  0.00    -0.348 OA
ENDROOT
BRANCH   4   6
ATOM      6  N1    U A   1       9.711  -1.106  24.533  0.00  0.00    -0.274 N 
ATOM      7  C2    U A   1       9.762  -2.412  24.047  0.00  0.00    +0.331 A 
ATOM      8  O2    U A   1      10.286  -2.735  22.983  0.00  0.00    -0.246 OA
ATOM      9  N3    U A   1       9.186  -3.366  24.844  0.00  0.00    -0.275 N 
ATOM     10  H3    U A   1       9.250  -4.319  24.527  0.00  0.00    +0.173 HD
ATOM     11  C4    U A   1       8.552  -3.150  26.031  0.00  0.00    +0.254 A 
ATOM     12  O4    U A   1       8.096  -4.051  26.723  0.00  0.00    -0.268 OA
ATOM     13  C5    U A   1       8.429  -1.745  26.436  0.00  0.00    +0.088 A 
ATOM     14  C6    U A   1       9.000  -0.804  25.680  0.00  0.00    +0.098 A 
ENDBRANCH   4   6
BRANCH   2  15
ATOM     15  O3*   U A   1       8.743   2.521  25.220  0.00  0.00    -0.389 OA
ATOM     16  H3*   U A   1       9.194   2.156  26.003  0.00  0.00    +0.210 HD
ENDBRANCH   2  15
BRANCH   1  17
ATOM     17  C5*   U A   1       8.283   2.301  21.855  0.00  0.00    +0.190 C 
BRANCH  17  18
ATOM     18  O5*   U A   1       8.188   3.681  22.205  0.00  0.00    -0.392 OA
ATOM     19  H5*   U A   1       8.808   3.825  22.941  0.00  0.00    +0.210 HD
ENDBRANCH  17  18
ENDBRANCH   1  17
TORSDOF 4
ENDMDL
MODEL 7
REMARK VINA RESULT:      -5.6      2.770      5.784
REMARK  Name = 
REMARK  4 active torsions:
REMARK  status: ('A' for Active; 'I' for Inactive)
REMARK    1  A    between atoms: O5*_1  and  C5*_2
REMARK    2  A    between atoms: C5*_2  and  C4*_3
REMARK    3  A    between atoms: C1*_6  and  N1_12
REMARK    4  A    between atoms: C3*_9  and  O3*_11
REMARK                            x       y       z     vdW  Elec       q    Type
REMARK                         _______ _______ _______ _____ _____    ______ ____
ROOT
ATOM      1  C4*   U A   1       7.690  -1.081  23.862  0.00  0.00    +0.175 C 
ATOM      2  C3*   U A   1       9.180  -0.912  24.126  0.00  0.00    +0.150 C 
ATOM      3  C2*   U A   1       9.762  -2.302  23.991  0.00  0.00    +0.088 C 
ATOM      4  C1*   U A   1       8.565  -3.223  23.761  0.00  0.00    +0.226 C 
ATOM      5  O4*   U A   1       7.511  -2.381  23.268  0.00  0.00    -0.348 OA
ENDROOT
BRANCH   4   6
ATOM      6  N1    U A   1       8.135  -3.971  24.952  0.00  0.00    -0.274 N 
ATOM      7  C2    U A   1       8.958  -5.012  25.379  0.00  0.00    +0.331 A 
ATOM      8  O2    U A   1      10.004  -5.341  24.824  0.00  0.00    -0.246 OA
ATOM      9  N3    U A   1       8.539  -5.681  26.500  0.00  0.00    -0.275 N 
ATOM     10  H3    U A   1       9.143  -6.408  26.845  0.00  0.00    +0.173 HD
ATOM     11  C4    U A   1       7.395  -5.441  27.200  0.00  0.00    +0.254 A 
ATOM     12  O4    U A   1       7.095  -6.043  28.224  0.00  0.00    -0.268 OA
ATOM     13  C5    U A   1       6.513  -4.411  26.639  0.00  0.00    +0.088 A 
ATOM     14  C6    U A   1       6.914  -3.739  25.558  0.00  0.00    +0.098 A 
ENDBRANCH   4   6
BRANCH   2  15
ATOM     15  O3*   U A   1       9.391  -0.402  25.443  0.00  0.00    -0.389 OA
ATOM     16  H3*   U A   1      10.303  -0.061  25.478  0.00  0.00    +0.210 HD
ENDBRANCH   2  15
BRANCH   1  17
ATOM     17  C5*   U A   1       7.088   0.003  22.970  0.00  0.00    +0.190 C 
BRANCH  17  18
ATOM     18  O5*   U A   1       5.964   0.624  23.589  0.00  0.00    -0.392 OA
ATOM     19  H5*   U A   1       5.174   0.155  23.266  0.00  0.00    +0.210 HD
ENDBRANCH  17  18
ENDBRANCH   1  17
TORSDOF 4
ENDMDL
MODEL 8
REMARK VINA RESULT:      -5.5      2.219      5.352
REMARK  Name = 
REMARK  4 active torsions:
REMARK  status: ('A' for Active; 'I' for Inactive)
REMARK    1  A    between atoms: O5*_1  and  C5*_2
REMARK    2  A    between atoms: C5*_2  and  C4*_3
REMARK    3  A    between atoms: C1*_6  and  N1_12
REMARK    4  A    between atoms: C3*_9  and  O3*_11
REMARK                            x       y       z     vdW  Elec       q    Type
REMARK                         _______ _______ _______ _____ _____    ______ ____
ROOT
ATOM      1  C4*   U A   1       8.769   0.259  22.908  0.00  0.00    +0.175 C 
ATOM      2  C3*   U A   1      10.274   0.039  22.981  0.00  0.00    +0.150 C 
ATOM      3  C2*   U A   1      10.494  -1.352  22.428  0.00  0.00    +0.088 C 
ATOM      4  C1*   U A   1       9.097  -1.910  22.162  0.00  0.00    +0.226 C 
ATOM      5  O4*   U A   1       8.234  -0.768  22.050  0.00  0.00    -0.348 OA
ENDROOT
BRANCH   4   6
ATOM      6  N1    U A   1       8.610  -2.846  23.187  0.00  0.00    -0.274 N 
ATOM      7  C2    U A   1       7.390  -3.475  22.943  0.00  0.00    +0.331 A 
ATOM      8  O2    U A   1       6.705  -3.293  21.939  0.00  0.00    -0.246 OA
ATOM      9  N3    U A   1       6.969  -4.352  23.909  0.00  0.00    -0.275 N 
ATOM     10  H3    U A   1       6.110  -4.845  23.729  0.00  0.00    +0.173 HD
ATOM     11  C4    U A   1       7.611  -4.632  25.078  0.00  0.00    +0.254 A 
ATOM     12  O4    U A   1       7.209  -5.462  25.883  0.00  0.00    -0.268 OA
ATOM     13  C5    U A   1       8.831  -3.857  25.332  0.00  0.00    +0.088 A 
ATOM     14  C6    U A   1       9.263  -3.011  24.394  0.00  0.00    +0.098 A 
ENDBRANCH   4   6
BRANCH   2  15
ATOM     15  O3*   U A   1      10.717   0.120  24.336  0.00  0.00    -0.389 OA
ATOM     16  H3*   U A   1      10.044   0.621  24.831  0.00  0.00    +0.210 HD
ENDBRANCH   2  15
BRANCH   1  17
ATOM     17  C5*   U A   1       8.365   1.643  22.404  0.00  0.00    +0.190 C 
BRANCH  17  18
ATOM     18  O5*   U A   1       9.317   2.159  21.477  0.00  0.00    -0.392 OA
ATOM     19  H5*   U A   1       8.976   3.020  21.177  0.00  0.00    +0.210 HD
ENDBRANCH  17  18
ENDBRANCH   1  17
TORSDOF 4
ENDMDL
MODEL 9
REMARK VINA RESULT:      -5.5      1.896      5.397
REMARK  Name = 
REMARK  4 active torsions:
REMARK  status: ('A' for Active; 'I' for Inactive)
REMARK    1  A    between atoms: O5*_1  and  C5*_2
REMARK    2  A    between atoms: C5*_2  and  C4*_3
REMARK    3  A    between atoms: C1*_6  and  N1_12
REMARK    4  A    between atoms: C3*_9  and  O3*_11
REMARK                            x       y       z     vdW  Elec       q    Type
REMARK                         _______ _______ _______ _____ _____    ______ ____
ROOT
ATOM      1  C4*   U A   1       8.995   1.145  23.336  0.00  0.00    +0.175 C 
ATOM      2  C3*   U A   1       9.561   1.042  24.746  0.00  0.00    +0.150 C 
ATOM      3  C2*   U A   1      10.138  -0.354  24.836  0.00  0.00    +0.088 C 
ATOM      4  C1*   U A   1       9.785  -1.026  23.510  0.00  0.00    +0.226 C 
ATOM      5  O4*   U A   1       9.536   0.042  22.583  0.00  0.00    -0.348 OA
ENDROOT
BRANCH   4   6
ATOM      6  N1    U A   1       8.640  -1.946  23.580  0.00  0.00    -0.274 N 
ATOM      7  C2    U A   1       8.899  -3.253  23.989  0.00  0.00    +0.331 A 
ATOM      8  O2    U A   1      10.014  -3.677  24.286  0.00  0.00    -0.246 OA
ATOM      9  N3    U A   1       7.811  -4.083  24.060  0.00  0.00    -0.275 N 
ATOM     10  H3    U A   1       7.975  -5.018  24.393  0.00  0.00    +0.173 HD
ATOM     11  C4    U A   1       6.527  -3.755  23.740  0.00  0.00    +0.254 A 
ATOM     12  O4    U A   1       5.585  -4.528  23.867  0.00  0.00    -0.268 OA
ATOM     13  C5    U A   1       6.332  -2.402  23.207  0.00  0.00    +0.088 A 
ATOM     14  C6    U A   1       7.379  -1.576  23.149  0.00  0.00    +0.098 A 
ENDBRANCH   4   6
BRANCH   2  15
ATOM     15  O3*   U A   1       8.519   1.220  25.707  0.00  0.00    -0.389 OA
ATOM     16  H3*   U A   1       8.490   0.415  26.255  0.00  0.00    +0.210 HD
ENDBRANCH   2  15
BRANCH   1  17
ATOM     17  C5*   U A   1       9.298   2.470  22.639  0.00  0.00    +0.190 C 
BRANCH  17  18
ATOM     18  O5*   U A   1      10.171   2.287  21.527  0.00  0.00    -0.392 OA
ATOM     19  H5*   U A   1       9.622   1.967  20.790  0.00  0.00    +0.210 HD
ENDBRANCH  17  18
ENDBRANCH   1  17
TORSDOF 4
ENDMDL
