MODEL 1
REMARK VINA RESULT:      -4.5      0.000      0.000
REMARK  Name = 
REMARK  3 active torsions:
REMARK  status: ('A' for Active; 'I' for Inactive)
REMARK    1  A    between atoms: C_1  and  C_2
REMARK    2  A    between atoms: C_2  and  C_3
REMARK    3  A    between atoms: C_3  and  C_4
REMARK                            x       y       z     vdW  Elec       q    Type
REMARK                         _______ _______ _______ _____ _____    ______ ____
ROOT
ATOM      1  C   UNL     1       7.733  -4.675  24.730  0.00  0.00    +0.053 C 
ATOM      2  C   UNL     1       9.077  -4.940  25.385  0.00  0.00    +0.226 C 
ATOM      3  O   UNL     1      10.172  -4.866  24.851  0.00  0.00    -0.275 OA
ATOM      4  N   UNL     1       8.866  -5.196  26.701  0.00  0.00    -0.256 N 
ATOM      5  H   UNL     1       9.609  -5.326  27.369  0.00  0.00    +0.157 HD
ATOM      6  C   UNL     1       7.555  -5.368  27.009  0.00  0.00    +0.220 C 
ATOM      7  O   UNL     1       7.112  -5.610  28.119  0.00  0.00    -0.275 OA
ATOM      8  C   UNL     1       6.747  -5.280  25.744  0.00  0.00    +0.112 C 
ATOM      9  C   UNL     1       7.543  -3.147  24.677  0.00  0.00    +0.021 C 
ENDROOT
BRANCH   1  11
ATOM     10  C   UNL     1       7.185  -4.272  22.225  0.00  0.00    +0.005 C 
ATOM     11  C   UNL     1       7.635  -5.248  23.306  0.00  0.00    +0.013 C 
ENDBRANCH   1  11
TORSDOF 1
ENDMDL
MODEL 2
REMARK VINA RESULT:      -4.4      4.500      5.773
REMARK  Name = 
REMARK  3 active torsions:
REMARK  status: ('A' for Active; 'I' for Inactive)
REMARK    1  A    between atoms: C_1  and  C_2
REMARK    2  A    between atoms: C_2  and  C_3
REMARK    3  A    between atoms: C_3  and  C_4
REMARK                            x       y       z     vdW  Elec       q    Type
REMARK                         _______ _______ _______ _____ _____    ______ ____
ROOT
ATOM      1  C   UNL     1       9.659   0.139  24.013  0.00  0.00    +0.053 C 
ATOM      2  C   UNL     1       9.878  -0.317  22.581  0.00  0.00    +0.226 C 
ATOM      3  O   UNL     1       9.892   0.392  21.588  0.00  0.00    -0.275 OA
ATOM      4  N   UNL     1      10.141  -1.648  22.595  0.00  0.00    -0.256 N 
ATOM      5  H   UNL     1      10.400  -2.172  21.774  0.00  0.00    +0.157 HD
ATOM      6  C   UNL     1       9.917  -2.226  23.802  0.00  0.00    +0.220 C 
ATOM      7  O   UNL     1      10.077  -3.405  24.065  0.00  0.00    -0.275 OA
ATOM      8  C   UNL     1       9.372  -1.185  24.741  0.00  0.00    +0.112 C 
ATOM      9  C   UNL     1      10.992   0.725  24.516  0.00  0.00    +0.021 C 
ENDROOT
BRANCH   1  11
ATOM     10  C   UNL     1       9.017   2.591  24.578  0.00  0.00    +0.005 C 
ATOM     11  C   UNL     1       8.556   1.204  24.143  0.00  0.00    +0.013 C 
ENDBRANCH   1  11
TORSDOF 1
ENDMDL
MODEL 3
REMARK VINA RESULT:      -4.4      6.004      7.345
REMARK  Name = 
REMARK  3 active torsions:
REMARK  status: ('A' for Active; 'I' for Inactive)
REMARK    1  A    between atoms: C_1  and  C_2
REMARK    2  A    between atoms: C_2  and  C_3
REMARK    3  A    between atoms: C_3  and  C_4
REMARK                            x       y       z     vdW  Elec       q    Type
REMARK                         _______ _______ _______ _____ _____    ______ ____
ROOT
ATOM      1  C   UNL     1       9.725   0.531  23.460  0.00  0.00    +0.053 C 
ATOM      2  C   UNL     1       9.712   0.970  22.006  0.00  0.00    +0.226 C 
ATOM      3  O   UNL     1       9.298   0.325  21.057  0.00  0.00    -0.275 OA
ATOM      4  N   UNL     1      10.166   2.247  21.944  0.00  0.00    -0.256 N 
ATOM      5  H   UNL     1      10.178   2.793  21.097  0.00  0.00    +0.157 HD
ATOM      6  C   UNL     1      10.702   2.682  23.112  0.00  0.00    +0.220 C 
ATOM      7  O   UNL     1      11.178   3.788  23.307  0.00  0.00    -0.275 OA
ATOM      8  C   UNL     1      10.676   1.553  24.104  0.00  0.00    +0.112 C 
ATOM      9  C   UNL     1       8.301   0.734  24.012  0.00  0.00    +0.021 C 
ENDROOT
BRANCH   1  11
ATOM     10  C   UNL     1       9.141  -1.821  24.391  0.00  0.00    +0.005 C 
ATOM     11  C   UNL     1      10.133  -0.941  23.639  0.00  0.00    +0.013 C 
ENDBRANCH   1  11
TORSDOF 1
ENDMDL
MODEL 4
REMARK VINA RESULT:      -4.2      3.904      4.776
REMARK  Name = 
REMARK  3 active torsions:
REMARK  status: ('A' for Active; 'I' for Inactive)
REMARK    1  A    between atoms: C_1  and  C_2
REMARK    2  A    between atoms: C_2  and  C_3
REMARK    3  A    between atoms: C_3  and  C_4
REMARK                            x       y       z     vdW  Elec       q    Type
REMARK                         _______ _______ _______ _____ _____    ______ ____
ROOT
ATOM      1  C   UNL     1       9.529  -0.268  23.750  0.00  0.00    +0.053 C 
ATOM      2  C   UNL     1      10.028  -1.618  23.265  0.00  0.00    +0.226 C 
ATOM      3  O   UNL     1      10.684  -1.830  22.258  0.00  0.00    -0.275 OA
ATOM      4  N   UNL     1       9.691  -2.552  24.189  0.00  0.00    -0.256 N 
ATOM      5  H   UNL     1       9.980  -3.517  24.136  0.00  0.00    +0.157 HD
ATOM      6  C   UNL     1       8.838  -2.086  25.136  0.00  0.00    +0.220 C 
ATOM      7  O   UNL     1       8.389  -2.732  26.067  0.00  0.00    -0.275 OA
ATOM      8  C   UNL     1       8.482  -0.663  24.805  0.00  0.00    +0.112 C 
ATOM      9  C   UNL     1      10.713   0.437  24.439  0.00  0.00    +0.021 C 
ENDROOT
BRANCH   1  11
ATOM     10  C   UNL     1       9.986   1.642  22.052  0.00  0.00    +0.005 C 
ATOM     11  C   UNL     1       9.001   0.622  22.612  0.00  0.00    +0.013 C 
ENDBRANCH   1  11
TORSDOF 1
ENDMDL
MODEL 5
REMARK VINA RESULT:      -4.1      5.580      6.868
REMARK  Name = 
REMARK  3 active torsions:
REMARK  status: ('A' for Active; 'I' for Inactive)
REMARK    1  A    between atoms: C_1  and  C_2
REMARK    2  A    between atoms: C_2  and  C_3
REMARK    3  A    between atoms: C_3  and  C_4
REMARK                            x       y       z     vdW  Elec       q    Type
REMARK                         _______ _______ _______ _____ _____    ______ ____
ROOT
ATOM      1  C   UNL     1       9.742   1.304  23.120  0.00  0.00    +0.053 C 
ATOM      2  C   UNL     1      10.437   0.295  24.017  0.00  0.00    +0.226 C 
ATOM      3  O   UNL     1      10.985   0.526  25.082  0.00  0.00    -0.275 OA
ATOM      4  N   UNL     1      10.278  -0.938  23.472  0.00  0.00    -0.256 N 
ATOM      5  H   UNL     1      10.581  -1.788  23.921  0.00  0.00    +0.157 HD
ATOM      6  C   UNL     1       9.767  -0.906  22.215  0.00  0.00    +0.220 C 
ATOM      7  O   UNL     1       9.536  -1.879  21.518  0.00  0.00    -0.275 OA
ATOM      8  C   UNL     1       9.600   0.529  21.799  0.00  0.00    +0.112 C 
ATOM      9  C   UNL     1       8.346   1.562  23.718  0.00  0.00    +0.021 C 
ENDROOT
BRANCH   1  11
ATOM     10  C   UNL     1       9.871   3.824  23.732  0.00  0.00    +0.005 C 
ATOM     11  C   UNL     1      10.502   2.637  23.013  0.00  0.00    +0.013 C 
ENDBRANCH   1  11
TORSDOF 1
ENDMDL
MODEL 6
REMARK VINA RESULT:      -4.1      5.641      6.272
REMARK  Name = 
REMARK  3 active torsions:
REMARK  status: ('A' for Active; 'I' for Inactive)
REMARK    1  A    between atoms: C_1  and  C_2
REMARK    2  A    between atoms: C_2  and  C_3
REMARK    3  A    between atoms: C_3  and  C_4
REMARK                            x       y       z     vdW  Elec       q    Type
REMARK                         _______ _______ _______ _____ _____    ______ ____
ROOT
ATOM      1  C   UNL     1       9.471   1.647  23.545  0.00  0.00    +0.053 C 
ATOM      2  C   UNL     1      10.310   0.880  24.552  0.00  0.00    +0.226 C 
ATOM      3  O   UNL     1      11.520   0.728  24.523  0.00  0.00    -0.275 OA
ATOM      4  N   UNL     1       9.493   0.453  25.548  0.00  0.00    -0.256 N 
ATOM      5  H   UNL     1       9.824  -0.012  26.378  0.00  0.00    +0.157 HD
ATOM      6  C   UNL     1       8.176   0.620  25.268  0.00  0.00    +0.220 C 
ATOM      7  O   UNL     1       7.250   0.313  26.001  0.00  0.00    -0.275 OA
ATOM      8  C   UNL     1       8.045   1.178  23.879  0.00  0.00    +0.112 C 
ATOM      9  C   UNL     1       9.612   3.144  23.878  0.00  0.00    +0.021 C 
ENDROOT
BRANCH   1  11
ATOM     10  C   UNL     1       9.406   0.122  21.445  0.00  0.00    +0.005 C 
ATOM     11  C   UNL     1       9.910   1.407  22.090  0.00  0.00    +0.013 C 
ENDBRANCH   1  11
TORSDOF 1
ENDMDL
MODEL 7
REMARK VINA RESULT:      -4.1      2.878      4.082
REMARK  Name = 
REMARK  3 active torsions:
REMARK  status: ('A' for Active; 'I' for Inactive)
REMARK    1  A    between atoms: C_1  and  C_2
REMARK    2  A    between atoms: C_2  and  C_3
REMARK    3  A    between atoms: C_3  and  C_4
REMARK                            x       y       z     vdW  Elec       q    Type
REMARK                         _______ _______ _______ _____ _____    ______ ____
ROOT
ATOM      1  C   UNL     1       6.957  -3.840  23.182  0.00  0.00    +0.053 C 
ATOM      2  C   UNL     1       7.776  -5.119  23.188  0.00  0.00    +0.226 C 
ATOM      3  O   UNL     1       8.655  -5.414  23.981  0.00  0.00    -0.275 OA
ATOM      4  N   UNL     1       7.309  -5.927  22.203  0.00  0.00    -0.256 N 
ATOM      5  H   UNL     1       7.636  -6.869  22.054  0.00  0.00    +0.157 HD
ATOM      6  C   UNL     1       6.435  -5.306  21.371  0.00  0.00    +0.220 C 
ATOM      7  O   UNL     1       5.882  -5.818  20.412  0.00  0.00    -0.275 OA
ATOM      8  C   UNL     1       6.315  -3.866  21.785  0.00  0.00    +0.112 C 
ATOM      9  C   UNL     1       5.862  -3.992  24.254  0.00  0.00    +0.021 C 
ENDROOT
BRANCH   1  11
ATOM     10  C   UNL     1       8.554  -1.987  22.309  0.00  0.00    +0.005 C 
ATOM     11  C   UNL     1       7.797  -2.587  23.488  0.00  0.00    +0.013 C 
ENDBRANCH   1  11
TORSDOF 1
ENDMDL
MODEL 8
REMARK VINA RESULT:      -4.1      4.871      6.261
REMARK  Name = 
REMARK  3 active torsions:
REMARK  status: ('A' for Active; 'I' for Inactive)
REMARK    1  A    between atoms: C_1  and  C_2
REMARK    2  A    between atoms: C_2  and  C_3
REMARK    3  A    between atoms: C_3  and  C_4
REMARK                            x       y       z     vdW  Elec       q    Type
REMARK                         _______ _______ _______ _____ _____    ______ ____
ROOT
ATOM      1  C   UNL     1       9.403   0.706  23.397  0.00  0.00    +0.053 C 
ATOM      2  C   UNL     1       8.139  -0.091  23.127  0.00  0.00    +0.226 C 
ATOM      3  O   UNL     1       7.032   0.363  22.890  0.00  0.00    -0.275 OA
ATOM      4  N   UNL     1       8.463  -1.408  23.111  0.00  0.00    -0.256 N 
ATOM      5  H   UNL     1       7.811  -2.139  22.873  0.00  0.00    +0.157 HD
ATOM      6  C   UNL     1       9.723  -1.655  23.552  0.00  0.00    +0.220 C 
ATOM      7  O   UNL     1      10.244  -2.754  23.634  0.00  0.00    -0.275 OA
ATOM      8  C   UNL     1      10.344  -0.357  23.987  0.00  0.00    +0.112 C 
ATOM      9  C   UNL     1       9.948   1.177  22.035  0.00  0.00    +0.021 C 
ENDROOT
BRANCH   1  11
ATOM     10  C   UNL     1       9.725   3.253  23.789  0.00  0.00    +0.005 C 
ATOM     11  C   UNL     1       9.161   1.931  24.297  0.00  0.00    +0.013 C 
ENDBRANCH   1  11
TORSDOF 1
ENDMDL
MODEL 9
REMARK VINA RESULT:      -4.1      3.783      4.784
REMARK  Name = 
REMARK  3 active torsions:
REMARK  status: ('A' for Active; 'I' for Inactive)
REMARK    1  A    between atoms: C_1  and  C_2
REMARK    2  A    between atoms: C_2  and  C_3
REMARK    3  A    between atoms: C_3  and  C_4
REMARK                            x       y       z     vdW  Elec       q    Type
REMARK                         _______ _______ _______ _____ _____    ______ ____
ROOT
ATOM      1  C   UNL     1       8.851  -0.781  22.677  0.00  0.00    +0.053 C 
ATOM      2  C   UNL     1       9.820  -0.943  23.835  0.00  0.00    +0.226 C 
ATOM      3  O   UNL     1      10.545  -0.078  24.300  0.00  0.00    -0.275 OA
ATOM      4  N   UNL     1       9.688  -2.200  24.327  0.00  0.00    -0.256 N 
ATOM      5  H   UNL     1      10.167  -2.528  25.151  0.00  0.00    +0.157 HD
ATOM      6  C   UNL     1       8.930  -3.006  23.541  0.00  0.00    +0.220 C 
ATOM      7  O   UNL     1       8.668  -4.175  23.767  0.00  0.00    -0.275 OA
ATOM      8  C   UNL     1       8.527  -2.240  22.312  0.00  0.00    +0.112 C 
ATOM      9  C   UNL     1       7.587  -0.096  23.230  0.00  0.00    +0.021 C 
ENDROOT
BRANCH   1  11
ATOM     10  C   UNL     1       9.018   1.534  21.513  0.00  0.00    +0.005 C 
ATOM     11  C   UNL     1       9.424   0.065  21.526  0.00  0.00    +0.013 C 
ENDBRANCH   1  11
TORSDOF 1
ENDMDL
