MODEL 1
REMARK VINA RESULT:      -7.4      0.000      0.000
REMARK  Name = 
REMARK  4 active torsions:
REMARK  status: ('A' for Active; 'I' for Inactive)
REMARK    1  A    between atoms: N_1  and  S_2
REMARK    2  A    between atoms: S_2  and  C_5
REMARK    3  A    between atoms: C_8  and  N_9
REMARK    4  A    between atoms: C_10  and  C_12
REMARK                            x       y       z     vdW  Elec       q    Type
REMARK                         _______ _______ _______ _____ _____    ______ ____
ROOT
ATOM      1  N   UNL     1       7.555  -2.832  24.220  0.00  0.00    -0.280 N 
ATOM      2  H   UNL     1       6.945  -2.223  23.684  0.00  0.00    +0.155 HD
ATOM      3  C   UNL     1       8.900  -2.777  23.880  0.00  0.00    +0.269 C 
ATOM      4  O   UNL     1       9.749  -3.561  24.291  0.00  0.00    -0.268 OA
ENDROOT
BRANCH   3   5
ATOM      5  C   UNL     1       9.278  -1.703  22.944  0.00  0.00    +0.155 A 
ATOM      6  C   UNL     1       9.490  -0.346  23.332  0.00  0.00    +0.032 A 
ATOM      7  C   UNL     1       9.443   0.369  24.546  0.00  0.00    +0.012 A 
ATOM      8  C   UNL     1       9.719   1.737  24.547  0.00  0.00    +0.001 A 
ATOM      9  C   UNL     1      10.034   2.393  23.360  0.00  0.00    +0.002 A 
ATOM     10  C   UNL     1      10.083   1.703  22.138  0.00  0.00    +0.028 A 
ATOM     11  C   UNL     1       9.806   0.330  22.163  0.00  0.00    +0.066 A 
ATOM     12  N   UNL     1       9.766  -0.626  21.182  0.00  0.00    -0.276 N 
ATOM     13  H   UNL     1       9.940  -0.489  20.193  0.00  0.00    +0.189 HD
ATOM     14  N   UNL     1       9.453  -1.871  21.617  0.00  0.00    -0.168 NA
ENDBRANCH   3   5
BRANCH   1  18
ATOM     15  C   UNL     1       5.842  -5.471  27.036  0.00  0.00    +0.105 A 
ATOM     16  C   UNL     1       5.881  -5.808  25.679  0.00  0.00    +0.030 A 
ATOM     17  C   UNL     1       6.450  -4.921  24.754  0.00  0.00    +0.025 A 
ATOM     18  C   UNL     1       7.006  -3.708  25.183  0.00  0.00    +0.034 A 
ATOM     19  C   UNL     1       6.971  -3.405  26.549  0.00  0.00    +0.025 A 
ATOM     20  C   UNL     1       6.398  -4.276  27.479  0.00  0.00    +0.030 A 
BRANCH  15  21
ATOM     21  S   UNL     1       5.027  -6.524  28.195  0.00  0.00    +0.056 S 
ATOM     22  O   UNL     1       5.930  -7.572  28.610  0.00  0.00    -0.153 OA
ATOM     23  O   UNL     1       4.289  -5.710  29.134  0.00  0.00    -0.153 OA
BRANCH  21  24
ATOM     24  N   UNL     1       3.885  -7.285  27.224  0.00  0.00    -0.204 NA
ATOM     25  H   UNL     1       3.942  -6.930  26.270  0.00  0.00    +0.144 HD
ATOM     26  H   UNL     1       3.991  -8.298  27.296  0.00  0.00    +0.144 HD
ENDBRANCH  21  24
ENDBRANCH  15  21
ENDBRANCH   1  18
TORSDOF 4
ENDMDL
MODEL 2
REMARK VINA RESULT:      -7.3      3.493      4.942
REMARK  Name = 
REMARK  4 active torsions:
REMARK  status: ('A' for Active; 'I' for Inactive)
REMARK    1  A    between atoms: N_1  and  S_2
REMARK    2  A    between atoms: S_2  and  C_5
REMARK    3  A    between atoms: C_8  and  N_9
REMARK    4  A    between atoms: C_10  and  C_12
REMARK                            x       y       z     vdW  Elec       q    Type
REMARK                         _______ _______ _______ _____ _____    ______ ____
ROOT
ATOM      1  N   UNL     1       9.017   0.917  25.388  0.00  0.00    -0.280 N 
ATOM      2  H   UNL     1       9.570   1.405  26.085  0.00  0.00    +0.155 HD
ATOM      3  C   UNL     1       8.271   1.729  24.544  0.00  0.00    +0.269 C 
ATOM      4  O   UNL     1       7.416   1.318  23.768  0.00  0.00    -0.268 OA
ENDROOT
BRANCH   3   5
ATOM      5  C   UNL     1       8.546   3.174  24.642  0.00  0.00    +0.155 A 
ATOM      6  C   UNL     1       9.738   3.792  24.157  0.00  0.00    +0.032 A 
ATOM      7  C   UNL     1      10.904   3.347  23.501  0.00  0.00    +0.012 A 
ATOM      8  C   UNL     1      11.897   4.268  23.167  0.00  0.00    +0.001 A 
ATOM      9  C   UNL     1      11.742   5.616  23.482  0.00  0.00    +0.002 A 
ATOM     10  C   UNL     1      10.593   6.082  24.139  0.00  0.00    +0.028 A 
ATOM     11  C   UNL     1       9.608   5.139  24.460  0.00  0.00    +0.066 A 
ATOM     12  N   UNL     1       8.392   5.243  25.084  0.00  0.00    -0.276 N 
ATOM     13  H   UNL     1       7.968   6.088  25.451  0.00  0.00    +0.189 HD
ATOM     14  N   UNL     1       7.718   4.074  25.210  0.00  0.00    -0.168 NA
ENDBRANCH   3   5
BRANCH   1  18
ATOM     15  C   UNL     1       8.919  -3.302  25.251  0.00  0.00    +0.105 A 
ATOM     16  C   UNL     1       9.577  -2.575  24.253  0.00  0.00    +0.030 A 
ATOM     17  C   UNL     1       9.599  -1.173  24.310  0.00  0.00    +0.025 A 
ATOM     18  C   UNL     1       8.989  -0.496  25.373  0.00  0.00    +0.034 A 
ATOM     19  C   UNL     1       8.354  -1.250  26.368  0.00  0.00    +0.025 A 
ATOM     20  C   UNL     1       8.317  -2.646  26.318  0.00  0.00    +0.030 A 
BRANCH  15  21
ATOM     21  S   UNL     1       8.784  -5.058  25.133  0.00  0.00    +0.056 S 
ATOM     22  O   UNL     1       7.997  -5.555  26.238  0.00  0.00    -0.153 OA
ATOM     23  O   UNL     1       8.519  -5.420  23.759  0.00  0.00    -0.153 OA
BRANCH  21  24
ATOM     24  N   UNL     1      10.359  -5.547  25.459  0.00  0.00    -0.204 NA
ATOM     25  H   UNL     1      10.559  -6.428  24.989  0.00  0.00    +0.144 HD
ATOM     26  H   UNL     1      11.008  -4.795  25.225  0.00  0.00    +0.144 HD
ENDBRANCH  21  24
ENDBRANCH  15  21
ENDBRANCH   1  18
TORSDOF 4
ENDMDL
MODEL 3
REMARK VINA RESULT:      -7.2      3.480      4.953
REMARK  Name = 
REMARK  4 active torsions:
REMARK  status: ('A' for Active; 'I' for Inactive)
REMARK    1  A    between atoms: N_1  and  S_2
REMARK    2  A    between atoms: S_2  and  C_5
REMARK    3  A    between atoms: C_8  and  N_9
REMARK    4  A    between atoms: C_10  and  C_12
REMARK                            x       y       z     vdW  Elec       q    Type
REMARK                         _______ _______ _______ _____ _____    ______ ____
ROOT
ATOM      1  N   UNL     1       9.870   0.912  24.834  0.00  0.00    -0.280 N 
ATOM      2  H   UNL     1      10.603   1.316  25.409  0.00  0.00    +0.155 HD
ATOM      3  C   UNL     1       9.237   1.795  23.969  0.00  0.00    +0.269 C 
ATOM      4  O   UNL     1       8.221   1.531  23.335  0.00  0.00    -0.268 OA
ENDROOT
BRANCH   3   5
ATOM      5  C   UNL     1       9.852   3.130  23.857  0.00  0.00    +0.155 A 
ATOM      6  C   UNL     1       9.244   4.330  24.336  0.00  0.00    +0.032 A 
ATOM      7  C   UNL     1       8.040   4.650  24.997  0.00  0.00    +0.012 A 
ATOM      8  C   UNL     1       7.770   5.979  25.322  0.00  0.00    +0.001 A 
ATOM      9  C   UNL     1       8.677   6.983  24.995  0.00  0.00    +0.002 A 
ATOM     10  C   UNL     1       9.881   6.689  24.334  0.00  0.00    +0.028 A 
ATOM     11  C   UNL     1      10.131   5.347  24.021  0.00  0.00    +0.066 A 
ATOM     12  N   UNL     1      11.178   4.720  23.396  0.00  0.00    -0.276 N 
ATOM     13  H   UNL     1      12.012   5.158  23.022  0.00  0.00    +0.189 HD
ATOM     14  N   UNL     1      11.046   3.376  23.281  0.00  0.00    -0.168 NA
ENDBRANCH   3   5
BRANCH   1  18
ATOM     15  C   UNL     1       8.819  -3.134  25.425  0.00  0.00    +0.105 A 
ATOM     16  C   UNL     1       8.442  -2.160  26.356  0.00  0.00    +0.030 A 
ATOM     17  C   UNL     1       8.801  -0.820  26.148  0.00  0.00    +0.025 A 
ATOM     18  C   UNL     1       9.511  -0.445  25.000  0.00  0.00    +0.034 A 
ATOM     19  C   UNL     1       9.858  -1.437  24.076  0.00  0.00    +0.025 A 
ATOM     20  C   UNL     1       9.515  -2.777  24.276  0.00  0.00    +0.030 A 
BRANCH  15  21
ATOM     21  S   UNL     1       8.476  -4.839  25.729  0.00  0.00    +0.056 S 
ATOM     22  O   UNL     1       8.314  -5.051  27.149  0.00  0.00    -0.153 OA
ATOM     23  O   UNL     1       7.518  -5.309  24.754  0.00  0.00    -0.153 OA
BRANCH  21  24
ATOM     24  N   UNL     1       9.944  -5.560  25.341  0.00  0.00    -0.204 NA
ATOM     25  H   UNL     1      10.432  -5.844  26.189  0.00  0.00    +0.144 HD
ATOM     26  H   UNL     1       9.790  -6.319  24.676  0.00  0.00    +0.144 HD
ENDBRANCH  21  24
ENDBRANCH  15  21
ENDBRANCH   1  18
TORSDOF 4
ENDMDL
MODEL 4
REMARK VINA RESULT:      -6.7      3.623      8.191
REMARK  Name = 
REMARK  4 active torsions:
REMARK  status: ('A' for Active; 'I' for Inactive)
REMARK    1  A    between atoms: N_1  and  S_2
REMARK    2  A    between atoms: S_2  and  C_5
REMARK    3  A    between atoms: C_8  and  N_9
REMARK    4  A    between atoms: C_10  and  C_12
REMARK                            x       y       z     vdW  Elec       q    Type
REMARK                         _______ _______ _______ _____ _____    ______ ____
ROOT
ATOM      1  N   UNL     1       7.130  -2.768  25.242  0.00  0.00    -0.280 N 
ATOM      2  H   UNL     1       6.414  -2.685  25.957  0.00  0.00    +0.155 HD
ATOM      3  C   UNL     1       7.473  -4.067  24.891  0.00  0.00    +0.269 C 
ATOM      4  O   UNL     1       8.431  -4.360  24.185  0.00  0.00    -0.268 OA
ENDROOT
BRANCH   3   5
ATOM      5  C   UNL     1       6.612  -5.126  25.446  0.00  0.00    +0.155 A 
ATOM      6  C   UNL     1       5.442  -5.624  24.797  0.00  0.00    +0.032 A 
ATOM      7  C   UNL     1       4.777  -5.356  23.582  0.00  0.00    +0.012 A 
ATOM      8  C   UNL     1       3.618  -6.063  23.265  0.00  0.00    +0.001 A 
ATOM      9  C   UNL     1       3.116  -7.022  24.140  0.00  0.00    +0.002 A 
ATOM     10  C   UNL     1       3.757  -7.304  25.357  0.00  0.00    +0.028 A 
ATOM     11  C   UNL     1       4.922  -6.584  25.652  0.00  0.00    +0.066 A 
ATOM     12  N   UNL     1       5.779  -6.603  26.721  0.00  0.00    -0.276 N 
ATOM     13  H   UNL     1       5.706  -7.187  27.547  0.00  0.00    +0.189 HD
ATOM     14  N   UNL     1       6.817  -5.736  26.632  0.00  0.00    -0.168 NA
ENDBRANCH   3   5
BRANCH   1  18
ATOM     15  C   UNL     1       9.005   0.731  23.804  0.00  0.00    +0.105 A 
ATOM     16  C   UNL     1       9.527   0.049  24.909  0.00  0.00    +0.030 A 
ATOM     17  C   UNL     1       8.892  -1.110  25.377  0.00  0.00    +0.025 A 
ATOM     18  C   UNL     1       7.752  -1.607  24.731  0.00  0.00    +0.034 A 
ATOM     19  C   UNL     1       7.264  -0.915  23.616  0.00  0.00    +0.025 A 
ATOM     20  C   UNL     1       7.881   0.246  23.145  0.00  0.00    +0.030 A 
BRANCH  15  21
ATOM     21  S   UNL     1       9.725   2.254  23.274  0.00  0.00    +0.056 S 
ATOM     22  O   UNL     1       8.754   3.316  23.403  0.00  0.00    -0.153 OA
ATOM     23  O   UNL     1      11.066   2.351  23.802  0.00  0.00    -0.153 OA
BRANCH  21  24
ATOM     24  N   UNL     1       9.882   2.000  21.619  0.00  0.00    -0.204 NA
ATOM     25  H   UNL     1      10.378   2.780  21.189  0.00  0.00    +0.144 HD
ATOM     26  H   UNL     1      10.312   1.090  21.449  0.00  0.00    +0.144 HD
ENDBRANCH  21  24
ENDBRANCH  15  21
ENDBRANCH   1  18
TORSDOF 4
ENDMDL
MODEL 5
REMARK VINA RESULT:      -6.7      3.701      8.149
REMARK  Name = 
REMARK  4 active torsions:
REMARK  status: ('A' for Active; 'I' for Inactive)
REMARK    1  A    between atoms: N_1  and  S_2
REMARK    2  A    between atoms: S_2  and  C_5
REMARK    3  A    between atoms: C_8  and  N_9
REMARK    4  A    between atoms: C_10  and  C_12
REMARK                            x       y       z     vdW  Elec       q    Type
REMARK                         _______ _______ _______ _____ _____    ______ ____
ROOT
ATOM      1  N   UNL     1       7.311  -2.560  25.350  0.00  0.00    -0.280 N 
ATOM      2  H   UNL     1       6.738  -2.560  26.188  0.00  0.00    +0.155 HD
ATOM      3  C   UNL     1       7.529  -3.807  24.779  0.00  0.00    +0.269 C 
ATOM      4  O   UNL     1       8.333  -4.022  23.878  0.00  0.00    -0.268 OA
ENDROOT
BRANCH   3   5
ATOM      5  C   UNL     1       6.735  -4.913  25.341  0.00  0.00    +0.155 A 
ATOM      6  C   UNL     1       5.567  -5.452  24.720  0.00  0.00    +0.032 A 
ATOM      7  C   UNL     1       4.850  -5.191  23.534  0.00  0.00    +0.012 A 
ATOM      8  C   UNL     1       3.713  -5.943  23.242  0.00  0.00    +0.001 A 
ATOM      9  C   UNL     1       3.284  -6.941  24.113  0.00  0.00    +0.002 A 
ATOM     10  C   UNL     1       3.978  -7.216  25.302  0.00  0.00    +0.028 A 
ATOM     11  C   UNL     1       5.120  -6.449  25.573  0.00  0.00    +0.066 A 
ATOM     12  N   UNL     1       6.013  -6.450  26.612  0.00  0.00    -0.276 N 
ATOM     13  H   UNL     1       5.993  -7.052  27.429  0.00  0.00    +0.189 HD
ATOM     14  N   UNL     1       7.007  -5.536  26.506  0.00  0.00    -0.168 NA
ENDBRANCH   3   5
BRANCH   1  18
ATOM     15  C   UNL     1       8.991   1.023  23.879  0.00  0.00    +0.105 A 
ATOM     16  C   UNL     1       7.753   0.574  23.407  0.00  0.00    +0.030 A 
ATOM     17  C   UNL     1       7.209  -0.620  23.903  0.00  0.00    +0.025 A 
ATOM     18  C   UNL     1       7.883  -1.353  24.887  0.00  0.00    +0.034 A 
ATOM     19  C   UNL     1       9.110  -0.869  25.356  0.00  0.00    +0.025 A 
ATOM     20  C   UNL     1       9.668   0.313  24.864  0.00  0.00    +0.030 A 
BRANCH  15  21
ATOM     21  S   UNL     1       9.743   2.461  23.183  0.00  0.00    +0.056 S 
ATOM     22  O   UNL     1       8.781   3.538  23.149  0.00  0.00    -0.153 OA
ATOM     23  O   UNL     1      11.069   2.614  23.736  0.00  0.00    -0.153 OA
BRANCH  21  24
ATOM     24  N   UNL     1       9.945   2.001  21.579  0.00  0.00    -0.204 NA
ATOM     25  H   UNL     1       9.056   1.695  21.185  0.00  0.00    +0.144 HD
ATOM     26  H   UNL     1      10.392   2.755  21.057  0.00  0.00    +0.144 HD
ENDBRANCH  21  24
ENDBRANCH  15  21
ENDBRANCH   1  18
TORSDOF 4
ENDMDL
MODEL 6
REMARK VINA RESULT:      -6.6      3.130      3.938
REMARK  Name = 
REMARK  4 active torsions:
REMARK  status: ('A' for Active; 'I' for Inactive)
REMARK    1  A    between atoms: N_1  and  S_2
REMARK    2  A    between atoms: S_2  and  C_5
REMARK    3  A    between atoms: C_8  and  N_9
REMARK    4  A    between atoms: C_10  and  C_12
REMARK                            x       y       z     vdW  Elec       q    Type
REMARK                         _______ _______ _______ _____ _____    ______ ____
ROOT
ATOM      1  N   UNL     1       8.018  -0.282  22.929  0.00  0.00    -0.280 N 
ATOM      2  H   UNL     1       7.772   0.351  22.175  0.00  0.00    +0.155 HD
ATOM      3  C   UNL     1       9.070   0.133  23.735  0.00  0.00    +0.269 C 
ATOM      4  O   UNL     1       9.617  -0.574  24.574  0.00  0.00    -0.268 OA
ENDROOT
BRANCH   3   5
ATOM      5  C   UNL     1       9.537   1.513  23.514  0.00  0.00    +0.155 A 
ATOM      6  C   UNL     1       9.065   2.642  24.250  0.00  0.00    +0.032 A 
ATOM      7  C   UNL     1       8.142   2.843  25.298  0.00  0.00    +0.012 A 
ATOM      8  C   UNL     1       7.927   4.132  25.784  0.00  0.00    +0.001 A 
ATOM      9  C   UNL     1       8.613   5.214  25.239  0.00  0.00    +0.002 A 
ATOM     10  C   UNL     1       9.533   5.040  24.193  0.00  0.00    +0.028 A 
ATOM     11  C   UNL     1       9.735   3.736  23.724  0.00  0.00    +0.066 A 
ATOM     12  N   UNL     1      10.538   3.217  22.742  0.00  0.00    -0.276 N 
ATOM     13  H   UNL     1      11.170   3.733  22.139  0.00  0.00    +0.189 HD
ATOM     14  N   UNL     1      10.448   1.874  22.587  0.00  0.00    -0.168 NA
ENDBRANCH   3   5
BRANCH   1  18
ATOM     15  C   UNL     1       6.032  -3.997  23.211  0.00  0.00    +0.105 A 
ATOM     16  C   UNL     1       7.139  -3.846  22.369  0.00  0.00    +0.030 A 
ATOM     17  C   UNL     1       7.787  -2.605  22.283  0.00  0.00    +0.025 A 
ATOM     18  C   UNL     1       7.350  -1.521  23.055  0.00  0.00    +0.034 A 
ATOM     19  C   UNL     1       6.253  -1.706  23.904  0.00  0.00    +0.025 A 
ATOM     20  C   UNL     1       5.592  -2.934  23.991  0.00  0.00    +0.030 A 
BRANCH  15  21
ATOM     21  S   UNL     1       5.135  -5.518  23.243  0.00  0.00    +0.056 S 
ATOM     22  O   UNL     1       5.331  -6.164  24.520  0.00  0.00    -0.153 OA
ATOM     23  O   UNL     1       3.828  -5.307  22.666  0.00  0.00    -0.153 OA
BRANCH  21  24
ATOM     24  N   UNL     1       5.999  -6.448  22.142  0.00  0.00    -0.204 NA
ATOM     25  H   UNL     1       5.918  -7.437  22.375  0.00  0.00    +0.144 HD
ATOM     26  H   UNL     1       5.703  -6.222  21.191  0.00  0.00    +0.144 HD
ENDBRANCH  21  24
ENDBRANCH  15  21
ENDBRANCH   1  18
TORSDOF 4
ENDMDL
MODEL 7
REMARK VINA RESULT:      -6.6      2.849      3.294
REMARK  Name = 
REMARK  4 active torsions:
REMARK  status: ('A' for Active; 'I' for Inactive)
REMARK    1  A    between atoms: N_1  and  S_2
REMARK    2  A    between atoms: S_2  and  C_5
REMARK    3  A    between atoms: C_8  and  N_9
REMARK    4  A    between atoms: C_10  and  C_12
REMARK                            x       y       z     vdW  Elec       q    Type
REMARK                         _______ _______ _______ _____ _____    ______ ____
ROOT
ATOM      1  N   UNL     1       7.133  -0.957  22.765  0.00  0.00    -0.280 N 
ATOM      2  H   UNL     1       6.742  -0.199  22.214  0.00  0.00    +0.155 HD
ATOM      3  C   UNL     1       8.465  -0.806  23.126  0.00  0.00    +0.269 C 
ATOM      4  O   UNL     1       9.147  -1.690  23.632  0.00  0.00    -0.268 OA
ENDROOT
BRANCH   3   5
ATOM      5  C   UNL     1       9.057   0.513  22.843  0.00  0.00    +0.155 A 
ATOM      6  C   UNL     1       8.852   1.670  23.655  0.00  0.00    +0.032 A 
ATOM      7  C   UNL     1       8.142   1.951  24.840  0.00  0.00    +0.012 A 
ATOM      8  C   UNL     1       8.169   3.243  25.365  0.00  0.00    +0.001 A 
ATOM      9  C   UNL     1       8.886   4.249  24.724  0.00  0.00    +0.002 A 
ATOM     10  C   UNL     1       9.598   3.995  23.541  0.00  0.00    +0.028 A 
ATOM     11  C   UNL     1       9.559   2.689  23.035  0.00  0.00    +0.066 A 
ATOM     12  N   UNL     1      10.124   2.105  21.931  0.00  0.00    -0.276 N 
ATOM     13  H   UNL     1      10.709   2.557  21.237  0.00  0.00    +0.189 HD
ATOM     14  N   UNL     1       9.845   0.787  21.783  0.00  0.00    -0.168 NA
ENDBRANCH   3   5
BRANCH   1  18
ATOM     15  C   UNL     1       4.761  -4.367  23.522  0.00  0.00    +0.105 A 
ATOM     16  C   UNL     1       5.532  -4.283  22.357  0.00  0.00    +0.030 A 
ATOM     17  C   UNL     1       6.312  -3.143  22.117  0.00  0.00    +0.025 A 
ATOM     18  C   UNL     1       6.348  -2.097  23.049  0.00  0.00    +0.034 A 
ATOM     19  C   UNL     1       5.582  -2.217  24.215  0.00  0.00    +0.025 A 
ATOM     20  C   UNL     1       4.793  -3.343  24.461  0.00  0.00    +0.030 A 
BRANCH  15  21
ATOM     21  S   UNL     1       3.686  -5.743  23.783  0.00  0.00    +0.056 S 
ATOM     22  O   UNL     1       3.320  -5.809  25.179  0.00  0.00    -0.153 OA
ATOM     23  O   UNL     1       2.712  -5.790  22.717  0.00  0.00    -0.153 OA
BRANCH  21  24
ATOM     24  N   UNL     1       4.724  -7.042  23.538  0.00  0.00    -0.204 NA
ATOM     25  H   UNL     1       5.334  -7.163  24.345  0.00  0.00    +0.144 HD
ATOM     26  H   UNL     1       4.185  -7.874  23.298  0.00  0.00    +0.144 HD
ENDBRANCH  21  24
ENDBRANCH  15  21
ENDBRANCH   1  18
TORSDOF 4
ENDMDL
MODEL 8
REMARK VINA RESULT:      -6.6      5.027      8.573
REMARK  Name = 
REMARK  4 active torsions:
REMARK  status: ('A' for Active; 'I' for Inactive)
REMARK    1  A    between atoms: N_1  and  S_2
REMARK    2  A    between atoms: S_2  and  C_5
REMARK    3  A    between atoms: C_8  and  N_9
REMARK    4  A    between atoms: C_10  and  C_12
REMARK                            x       y       z     vdW  Elec       q    Type
REMARK                         _______ _______ _______ _____ _____    ______ ____
ROOT
ATOM      1  N   UNL     1       8.365  -0.171  23.127  0.00  0.00    -0.280 N 
ATOM      2  H   UNL     1       9.089  -0.658  22.609  0.00  0.00    +0.155 HD
ATOM      3  C   UNL     1       7.474  -0.986  23.813  0.00  0.00    +0.269 C 
ATOM      4  O   UNL     1       6.441  -0.589  24.341  0.00  0.00    -0.268 OA
ENDROOT
BRANCH   3   5
ATOM      5  C   UNL     1       7.827  -2.416  23.863  0.00  0.00    +0.155 A 
ATOM      6  C   UNL     1       7.281  -3.403  22.987  0.00  0.00    +0.032 A 
ATOM      7  C   UNL     1       6.364  -3.397  21.916  0.00  0.00    +0.012 A 
ATOM      8  C   UNL     1       6.057  -4.594  21.270  0.00  0.00    +0.001 A 
ATOM      9  C   UNL     1       6.646  -5.787  21.679  0.00  0.00    +0.002 A 
ATOM     10  C   UNL     1       7.558  -5.819  22.746  0.00  0.00    +0.028 A 
ATOM     11  C   UNL     1       7.854  -4.604  23.377  0.00  0.00    +0.066 A 
ATOM     12  N   UNL     1       8.678  -4.277  24.422  0.00  0.00    -0.276 N 
ATOM     13  H   UNL     1       9.256  -4.913  24.960  0.00  0.00    +0.189 HD
ATOM     14  N   UNL     1       8.691  -2.961  24.744  0.00  0.00    -0.168 NA
ENDBRANCH   3   5
BRANCH   1  18
ATOM     15  C   UNL     1       8.106   4.041  23.012  0.00  0.00    +0.105 A 
ATOM     16  C   UNL     1       9.062   3.411  23.815  0.00  0.00    +0.030 A 
ATOM     17  C   UNL     1       9.134   2.011  23.846  0.00  0.00    +0.025 A 
ATOM     18  C   UNL     1       8.273   1.237  23.057  0.00  0.00    +0.034 A 
ATOM     19  C   UNL     1       7.339   1.895  22.248  0.00  0.00    +0.025 A 
ATOM     20  C   UNL     1       7.250   3.289  22.215  0.00  0.00    +0.030 A 
BRANCH  15  21
ATOM     21  S   UNL     1       7.925   5.797  23.050  0.00  0.00    +0.056 S 
ATOM     22  O   UNL     1       6.752   6.144  23.817  0.00  0.00    -0.153 OA
ATOM     23  O   UNL     1       9.218   6.400  23.283  0.00  0.00    -0.153 OA
BRANCH  21  24
ATOM     24  N   UNL     1       7.523   6.135  21.453  0.00  0.00    -0.204 NA
ATOM     25  H   UNL     1       6.680   5.629  21.187  0.00  0.00    +0.144 HD
ATOM     26  H   UNL     1       7.459   7.146  21.319  0.00  0.00    +0.144 HD
ENDBRANCH  21  24
ENDBRANCH  15  21
ENDBRANCH   1  18
TORSDOF 4
ENDMDL
MODEL 9
REMARK VINA RESULT:      -6.6      3.371      5.014
REMARK  Name = 
REMARK  4 active torsions:
REMARK  status: ('A' for Active; 'I' for Inactive)
REMARK    1  A    between atoms: N_1  and  S_2
REMARK    2  A    between atoms: S_2  and  C_5
REMARK    3  A    between atoms: C_8  and  N_9
REMARK    4  A    between atoms: C_10  and  C_12
REMARK                            x       y       z     vdW  Elec       q    Type
REMARK                         _______ _______ _______ _____ _____    ______ ____
ROOT
ATOM      1  N   UNL     1       9.429   0.983  24.323  0.00  0.00    -0.280 N 
ATOM      2  H   UNL     1       9.327   1.557  25.154  0.00  0.00    +0.155 HD
ATOM      3  C   UNL     1       9.781   1.665  23.166  0.00  0.00    +0.269 C 
ATOM      4  O   UNL     1       9.774   1.171  22.044  0.00  0.00    -0.268 OA
ENDROOT
BRANCH   3   5
ATOM      5  C   UNL     1      10.158   3.078  23.349  0.00  0.00    +0.155 A 
ATOM      6  C   UNL     1       9.227   4.120  23.641  0.00  0.00    +0.032 A 
ATOM      7  C   UNL     1       7.833   4.193  23.845  0.00  0.00    +0.012 A 
ATOM      8  C   UNL     1       7.244   5.427  24.120  0.00  0.00    +0.001 A 
ATOM      9  C   UNL     1       8.022   6.579  24.189  0.00  0.00    +0.002 A 
ATOM     10  C   UNL     1       9.411   6.533  23.986  0.00  0.00    +0.028 A 
ATOM     11  C   UNL     1       9.980   5.282  23.715  0.00  0.00    +0.066 A 
ATOM     12  N   UNL     1      11.268   4.882  23.472  0.00  0.00    -0.276 N 
ATOM     13  H   UNL     1      12.092   5.473  23.442  0.00  0.00    +0.189 HD
ATOM     14  N   UNL     1      11.416   3.553  23.249  0.00  0.00    -0.168 NA
ENDBRANCH   3   5
BRANCH   1  18
ATOM     15  C   UNL     1       8.627  -3.161  24.424  0.00  0.00    +0.105 A 
ATOM     16  C   UNL     1       9.878  -2.690  24.012  0.00  0.00    +0.030 A 
ATOM     17  C   UNL     1      10.129  -1.311  23.980  0.00  0.00    +0.025 A 
ATOM     18  C   UNL     1       9.145  -0.400  24.385  0.00  0.00    +0.034 A 
ATOM     19  C   UNL     1       7.909  -0.900  24.812  0.00  0.00    +0.025 A 
ATOM     20  C   UNL     1       7.643  -2.271  24.838  0.00  0.00    +0.030 A 
BRANCH  15  21
ATOM     21  S   UNL     1       8.256  -4.886  24.360  0.00  0.00    +0.056 S 
ATOM     22  O   UNL     1       7.346  -5.223  25.430  0.00  0.00    -0.153 OA
ATOM     23  O   UNL     1       8.023  -5.268  22.986  0.00  0.00    -0.153 OA
BRANCH  21  24
ATOM     24  N   UNL     1       9.727  -5.570  24.802  0.00  0.00    -0.204 NA
ATOM     25  H   UNL     1       9.962  -6.338  24.174  0.00  0.00    +0.144 HD
ATOM     26  H   UNL     1      10.443  -4.844  24.854  0.00  0.00    +0.144 HD
ENDBRANCH  21  24
ENDBRANCH  15  21
ENDBRANCH   1  18
TORSDOF 4
ENDMDL
