MODEL 1
REMARK VINA RESULT:      -5.7      0.000      0.000
REMARK  Name = 
REMARK  3 active torsions:
REMARK  status: ('A' for Active; 'I' for Inactive)
REMARK    1  A    between atoms: N_6  and  C_9
REMARK    2  A    between atoms: C_13  and  C_15
REMARK    3  A    between atoms: C_15  and  O_16
REMARK                            x       y       z     vdW  Elec       q    Type
REMARK                         _______ _______ _______ _____ _____    ______ ____
ROOT
ATOM      1  N   UNL     1       9.749   2.014  21.460  0.00  0.00    -0.343 N 
ATOM      2  H   UNL     1      10.759   2.064  21.391  0.00  0.00    +0.144 HD
ATOM      3  H   UNL     1       9.333   2.847  21.864  0.00  0.00    +0.144 HD
ATOM      4  C   UNL     1       9.212   0.866  21.972  0.00  0.00    +0.123 A 
ATOM      5  C   UNL     1       9.914  -0.415  21.775  0.00  0.00    +0.061 A 
ATOM      6  C   UNL     1       9.339  -1.483  22.322  0.00  0.00    +0.096 A 
ATOM      7  N   UNL     1       8.150  -1.379  23.010  0.00  0.00    -0.273 N 
ATOM      8  C   UNL     1       7.513  -0.143  23.171  0.00  0.00    +0.352 A 
ATOM      9  O   UNL     1       6.453  -0.056  23.789  0.00  0.00    -0.244 OA
ATOM     10  N   UNL     1       8.099   0.974  22.625  0.00  0.00    -0.178 NA
ENDROOT
BRANCH   7  11
ATOM     11  C   UNL     1       7.497  -2.535  23.606  0.00  0.00    +0.224 C 
ATOM     12  O   UNL     1       8.071  -2.857  24.891  0.00  0.00    -0.351 OA
ATOM     13  C   UNL     1       8.026  -4.288  25.075  0.00  0.00    +0.146 C 
ATOM     14  C   UNL     1       7.428  -4.884  23.808  0.00  0.00    +0.038 C 
ATOM     15  C   UNL     1       7.626  -3.802  22.776  0.00  0.00    +0.057 C 
BRANCH  13  16
ATOM     16  C   UNL     1       9.441  -4.785  25.388  0.00  0.00    +0.187 C 
BRANCH  16  17
ATOM     17  O   UNL     1       9.764  -5.953  24.636  0.00  0.00    -0.392 OA
ATOM     18  H   UNL     1      10.161  -6.582  25.265  0.00  0.00    +0.210 HD
ENDBRANCH  16  17
ENDBRANCH  13  16
ENDBRANCH   7  11
TORSDOF 3
ENDMDL
MODEL 2
REMARK VINA RESULT:      -5.6      1.794      2.221
REMARK  Name = 
REMARK  3 active torsions:
REMARK  status: ('A' for Active; 'I' for Inactive)
REMARK    1  A    between atoms: N_6  and  C_9
REMARK    2  A    between atoms: C_13  and  C_15
REMARK    3  A    between atoms: C_15  and  O_16
REMARK                            x       y       z     vdW  Elec       q    Type
REMARK                         _______ _______ _______ _____ _____    ______ ____
ROOT
ATOM      1  N   UNL     1      10.090   2.170  21.514  0.00  0.00    -0.343 N 
ATOM      2  H   UNL     1      10.377   2.057  20.549  0.00  0.00    +0.144 HD
ATOM      3  H   UNL     1      10.653   2.842  22.025  0.00  0.00    +0.144 HD
ATOM      4  C   UNL     1       9.859   1.031  22.236  0.00  0.00    +0.123 A 
ATOM      5  C   UNL     1       9.371  -0.177  21.549  0.00  0.00    +0.061 A 
ATOM      6  C   UNL     1       9.193  -1.250  22.316  0.00  0.00    +0.096 A 
ATOM      7  N   UNL     1       9.437  -1.206  23.671  0.00  0.00    -0.273 N 
ATOM      8  C   UNL     1       9.896  -0.036  24.286  0.00  0.00    +0.352 A 
ATOM      9  O   UNL     1      10.115  -0.003  25.496  0.00  0.00    -0.244 OA
ATOM     10  N   UNL     1      10.100   1.079  23.507  0.00  0.00    -0.178 NA
ENDROOT
BRANCH   7  11
ATOM     11  C   UNL     1       9.237  -2.363  24.531  0.00  0.00    +0.224 C 
ATOM     12  O   UNL     1       9.348  -3.595  23.787  0.00  0.00    -0.351 OA
ATOM     13  C   UNL     1       8.444  -4.565  24.356  0.00  0.00    +0.146 C 
ATOM     14  C   UNL     1       7.701  -3.873  25.492  0.00  0.00    +0.038 C 
ATOM     15  C   UNL     1       7.864  -2.406  25.184  0.00  0.00    +0.057 C 
BRANCH  13  16
ATOM     16  C   UNL     1       7.529  -5.093  23.246  0.00  0.00    +0.187 C 
BRANCH  16  17
ATOM     17  O   UNL     1       7.491  -4.203  22.132  0.00  0.00    -0.392 OA
ATOM     18  H   UNL     1       6.610  -4.307  21.730  0.00  0.00    +0.210 HD
ENDBRANCH  16  17
ENDBRANCH  13  16
ENDBRANCH   7  11
TORSDOF 3
ENDMDL
MODEL 3
REMARK VINA RESULT:      -5.6      1.913      2.871
REMARK  Name = 
REMARK  3 active torsions:
REMARK  status: ('A' for Active; 'I' for Inactive)
REMARK    1  A    between atoms: N_6  and  C_9
REMARK    2  A    between atoms: C_13  and  C_15
REMARK    3  A    between atoms: C_15  and  O_16
REMARK                            x       y       z     vdW  Elec       q    Type
REMARK                         _______ _______ _______ _____ _____    ______ ____
ROOT
ATOM      1  N   UNL     1       9.027   2.342  21.514  0.00  0.00    -0.343 N 
ATOM      2  H   UNL     1       8.219   2.820  21.135  0.00  0.00    +0.144 HD
ATOM      3  H   UNL     1       9.853   2.424  20.928  0.00  0.00    +0.144 HD
ATOM      4  C   UNL     1       8.843   1.067  21.973  0.00  0.00    +0.123 A 
ATOM      5  C   UNL     1       7.537   0.679  22.535  0.00  0.00    +0.061 A 
ATOM      6  C   UNL     1       7.431  -0.584  22.939  0.00  0.00    +0.096 A 
ATOM      7  N   UNL     1       8.493  -1.455  22.847  0.00  0.00    -0.273 N 
ATOM      8  C   UNL     1       9.720  -1.045  22.311  0.00  0.00    +0.352 A 
ATOM      9  O   UNL     1      10.665  -1.827  22.229  0.00  0.00    -0.244 OA
ATOM     10  N   UNL     1       9.845   0.253  21.874  0.00  0.00    -0.178 NA
ENDROOT
BRANCH   7  11
ATOM     11  C   UNL     1       8.403  -2.836  23.295  0.00  0.00    +0.224 C 
ATOM     12  O   UNL     1       7.735  -3.662  22.317  0.00  0.00    -0.351 OA
ATOM     13  C   UNL     1       6.989  -4.688  23.005  0.00  0.00    +0.146 C 
ATOM     14  C   UNL     1       7.176  -4.451  24.498  0.00  0.00    +0.038 C 
ATOM     15  C   UNL     1       7.610  -3.010  24.581  0.00  0.00    +0.057 C 
BRANCH  13  16
ATOM     16  C   UNL     1       5.529  -4.624  22.544  0.00  0.00    +0.187 C 
BRANCH  16  17
ATOM     17  O   UNL     1       5.250  -3.407  21.856  0.00  0.00    -0.392 OA
ATOM     18  H   UNL     1       4.485  -3.008  22.307  0.00  0.00    +0.210 HD
ENDBRANCH  16  17
ENDBRANCH  13  16
ENDBRANCH   7  11
TORSDOF 3
ENDMDL
MODEL 4
REMARK VINA RESULT:      -5.5      2.440      5.479
REMARK  Name = 
REMARK  3 active torsions:
REMARK  status: ('A' for Active; 'I' for Inactive)
REMARK    1  A    between atoms: N_6  and  C_9
REMARK    2  A    between atoms: C_13  and  C_15
REMARK    3  A    between atoms: C_15  and  O_16
REMARK                            x       y       z     vdW  Elec       q    Type
REMARK                         _______ _______ _______ _____ _____    ______ ____
ROOT
ATOM      1  N   UNL     1       5.815  -6.283  22.057  0.00  0.00    -0.343 N 
ATOM      2  H   UNL     1       4.836  -6.147  21.832  0.00  0.00    +0.144 HD
ATOM      3  H   UNL     1       5.977  -7.057  22.694  0.00  0.00    +0.144 HD
ATOM      4  C   UNL     1       6.540  -5.174  22.393  0.00  0.00    +0.123 A 
ATOM      5  C   UNL     1       6.182  -3.868  21.812  0.00  0.00    +0.061 A 
ATOM      6  C   UNL     1       6.921  -2.834  22.205  0.00  0.00    +0.096 A 
ATOM      7  N   UNL     1       7.965  -2.999  23.089  0.00  0.00    -0.273 N 
ATOM      8  C   UNL     1       8.275  -4.258  23.616  0.00  0.00    +0.352 A 
ATOM      9  O   UNL     1       9.206  -4.399  24.407  0.00  0.00    -0.244 OA
ATOM     10  N   UNL     1       7.514  -5.337  23.231  0.00  0.00    -0.178 NA
ENDROOT
BRANCH   7  11
ATOM     11  C   UNL     1       8.794  -1.885  23.524  0.00  0.00    +0.224 C 
ATOM     12  O   UNL     1       8.066  -0.639  23.476  0.00  0.00    -0.351 OA
ATOM     13  C   UNL     1       8.981   0.423  23.133  0.00  0.00    +0.146 C 
ATOM     14  C   UNL     1      10.346  -0.217  22.916  0.00  0.00    +0.038 C 
ATOM     15  C   UNL     1      10.025  -1.668  22.659  0.00  0.00    +0.057 C 
BRANCH  13  16
ATOM     16  C   UNL     1       8.438   1.161  21.905  0.00  0.00    +0.187 C 
BRANCH  16  17
ATOM     17  O   UNL     1       9.418   2.028  21.339  0.00  0.00    -0.392 OA
ATOM     18  H   UNL     1       9.191   2.927  21.637  0.00  0.00    +0.210 HD
ENDBRANCH  16  17
ENDBRANCH  13  16
ENDBRANCH   7  11
TORSDOF 3
ENDMDL
MODEL 5
REMARK VINA RESULT:      -5.5      2.823      5.283
REMARK  Name = 
REMARK  3 active torsions:
REMARK  status: ('A' for Active; 'I' for Inactive)
REMARK    1  A    between atoms: N_6  and  C_9
REMARK    2  A    between atoms: C_13  and  C_15
REMARK    3  A    between atoms: C_15  and  O_16
REMARK                            x       y       z     vdW  Elec       q    Type
REMARK                         _______ _______ _______ _____ _____    ______ ____
ROOT
ATOM      1  N   UNL     1       8.257  -5.852  26.742  0.00  0.00    -0.343 N 
ATOM      2  H   UNL     1       8.317  -6.632  26.098  0.00  0.00    +0.144 HD
ATOM      3  H   UNL     1       7.457  -5.906  27.364  0.00  0.00    +0.144 HD
ATOM      4  C   UNL     1       8.428  -4.598  26.224  0.00  0.00    +0.123 A 
ATOM      5  C   UNL     1       9.303  -4.408  25.054  0.00  0.00    +0.061 A 
ATOM      6  C   UNL     1       9.399  -3.162  24.597  0.00  0.00    +0.096 A 
ATOM      7  N   UNL     1       8.729  -2.125  25.206  0.00  0.00    -0.273 N 
ATOM      8  C   UNL     1       7.911  -2.347  26.320  0.00  0.00    +0.352 A 
ATOM      9  O   UNL     1       7.312  -1.417  26.859  0.00  0.00    -0.244 OA
ATOM     10  N   UNL     1       7.787  -3.630  26.799  0.00  0.00    -0.178 NA
ENDROOT
BRANCH   7  11
ATOM     11  C   UNL     1       8.830  -0.753  24.731  0.00  0.00    +0.224 C 
ATOM     12  O   UNL     1       8.277  -0.616  23.405  0.00  0.00    -0.351 OA
ATOM     13  C   UNL     1       9.027   0.388  22.689  0.00  0.00    +0.146 C 
ATOM     14  C   UNL     1      10.135   0.866  23.618  0.00  0.00    +0.038 C 
ATOM     15  C   UNL     1      10.260  -0.248  24.627  0.00  0.00    +0.057 C 
BRANCH  13  16
ATOM     16  C   UNL     1       9.534  -0.221  21.378  0.00  0.00    +0.187 C 
BRANCH  16  17
ATOM     17  O   UNL     1      10.127  -1.500  21.591  0.00  0.00    -0.392 OA
ATOM     18  H   UNL     1      10.615  -1.438  22.432  0.00  0.00    +0.210 HD
ENDBRANCH  16  17
ENDBRANCH  13  16
ENDBRANCH   7  11
TORSDOF 3
ENDMDL
MODEL 6
REMARK VINA RESULT:      -5.4      2.698      5.635
REMARK  Name = 
REMARK  3 active torsions:
REMARK  status: ('A' for Active; 'I' for Inactive)
REMARK    1  A    between atoms: N_6  and  C_9
REMARK    2  A    between atoms: C_13  and  C_15
REMARK    3  A    between atoms: C_15  and  O_16
REMARK                            x       y       z     vdW  Elec       q    Type
REMARK                         _______ _______ _______ _____ _____    ______ ____
ROOT
ATOM      1  N   UNL     1       6.384  -6.000  26.655  0.00  0.00    -0.343 N 
ATOM      2  H   UNL     1       5.597  -5.605  27.155  0.00  0.00    +0.144 HD
ATOM      3  H   UNL     1       6.970  -6.594  27.233  0.00  0.00    +0.144 HD
ATOM      4  C   UNL     1       7.118  -5.151  25.873  0.00  0.00    +0.123 A 
ATOM      5  C   UNL     1       6.460  -3.995  25.240  0.00  0.00    +0.061 A 
ATOM      6  C   UNL     1       7.246  -3.205  24.512  0.00  0.00    +0.096 A 
ATOM      7  N   UNL     1       8.586  -3.480  24.358  0.00  0.00    -0.273 N 
ATOM      8  C   UNL     1       9.173  -4.593  24.973  0.00  0.00    +0.352 A 
ATOM      9  O   UNL     1      10.371  -4.832  24.834  0.00  0.00    -0.244 OA
ATOM     10  N   UNL     1       8.379  -5.413  25.740  0.00  0.00    -0.178 NA
ENDROOT
BRANCH   7  11
ATOM     11  C   UNL     1       9.462  -2.637  23.557  0.00  0.00    +0.224 C 
ATOM     12  O   UNL     1       9.902  -1.482  24.302  0.00  0.00    -0.351 OA
ATOM     13  C   UNL     1      10.049  -0.370  23.393  0.00  0.00    +0.146 C 
ATOM     14  C   UNL     1       9.633  -0.863  22.013  0.00  0.00    +0.038 C 
ATOM     15  C   UNL     1       8.799  -2.084  22.306  0.00  0.00    +0.057 C 
BRANCH  13  16
ATOM     16  C   UNL     1       9.211   0.802  23.913  0.00  0.00    +0.187 C 
BRANCH  16  17
ATOM     17  O   UNL     1       9.733   1.317  25.137  0.00  0.00    -0.392 OA
ATOM     18  H   UNL     1       9.996   0.543  25.667  0.00  0.00    +0.210 HD
ENDBRANCH  16  17
ENDBRANCH  13  16
ENDBRANCH   7  11
TORSDOF 3
ENDMDL
MODEL 7
REMARK VINA RESULT:      -5.3      2.275      2.896
REMARK  Name = 
REMARK  3 active torsions:
REMARK  status: ('A' for Active; 'I' for Inactive)
REMARK    1  A    between atoms: N_6  and  C_9
REMARK    2  A    between atoms: C_13  and  C_15
REMARK    3  A    between atoms: C_15  and  O_16
REMARK                            x       y       z     vdW  Elec       q    Type
REMARK                         _______ _______ _______ _____ _____    ______ ____
ROOT
ATOM      1  N   UNL     1       9.840   1.928  24.707  0.00  0.00    -0.343 N 
ATOM      2  H   UNL     1       9.105   2.516  25.081  0.00  0.00    +0.144 HD
ATOM      3  H   UNL     1      10.249   2.291  23.852  0.00  0.00    +0.144 HD
ATOM      4  C   UNL     1       9.592   0.585  24.633  0.00  0.00    +0.123 A 
ATOM      5  C   UNL     1       8.697  -0.043  25.620  0.00  0.00    +0.061 A 
ATOM      6  C   UNL     1       8.489  -1.349  25.468  0.00  0.00    +0.096 A 
ATOM      7  N   UNL     1       9.098  -2.055  24.455  0.00  0.00    -0.273 N 
ATOM      8  C   UNL     1       9.946  -1.420  23.539  0.00  0.00    +0.352 A 
ATOM      9  O   UNL     1      10.485  -2.055  22.634  0.00  0.00    -0.244 OA
ATOM     10  N   UNL     1      10.162  -0.069  23.672  0.00  0.00    -0.178 NA
ENDROOT
BRANCH   7  11
ATOM     11  C   UNL     1       8.894  -3.485  24.277  0.00  0.00    +0.224 C 
ATOM     12  O   UNL     1       7.565  -3.879  24.680  0.00  0.00    -0.351 OA
ATOM     13  C   UNL     1       7.623  -5.211  25.234  0.00  0.00    +0.146 C 
ATOM     14  C   UNL     1       9.084  -5.642  25.210  0.00  0.00    +0.038 C 
ATOM     15  C   UNL     1       9.839  -4.342  25.103  0.00  0.00    +0.057 C 
BRANCH  13  16
ATOM     16  C   UNL     1       7.006  -5.184  26.637  0.00  0.00    +0.187 C 
BRANCH  16  17
ATOM     17  O   UNL     1       7.791  -5.926  27.568  0.00  0.00    -0.392 OA
ATOM     18  H   UNL     1       7.391  -6.813  27.615  0.00  0.00    +0.210 HD
ENDBRANCH  16  17
ENDBRANCH  13  16
ENDBRANCH   7  11
TORSDOF 3
ENDMDL
MODEL 8
REMARK VINA RESULT:      -5.2      2.707      5.376
REMARK  Name = 
REMARK  3 active torsions:
REMARK  status: ('A' for Active; 'I' for Inactive)
REMARK    1  A    between atoms: N_6  and  C_9
REMARK    2  A    between atoms: C_13  and  C_15
REMARK    3  A    between atoms: C_15  and  O_16
REMARK                            x       y       z     vdW  Elec       q    Type
REMARK                         _______ _______ _______ _____ _____    ______ ____
ROOT
ATOM      1  N   UNL     1       7.633  -5.953  26.934  0.00  0.00    -0.343 N 
ATOM      2  H   UNL     1       8.231  -6.060  27.745  0.00  0.00    +0.144 HD
ATOM      3  H   UNL     1       7.438  -6.829  26.461  0.00  0.00    +0.144 HD
ATOM      4  C   UNL     1       7.938  -4.948  26.059  0.00  0.00    +0.123 A 
ATOM      5  C   UNL     1       8.581  -3.720  26.558  0.00  0.00    +0.061 A 
ATOM      6  C   UNL     1       8.866  -2.798  25.642  0.00  0.00    +0.096 A 
ATOM      7  N   UNL     1       8.554  -2.992  24.314  0.00  0.00    -0.273 N 
ATOM      8  C   UNL     1       7.938  -4.173  23.881  0.00  0.00    +0.352 A 
ATOM      9  O   UNL     1       7.664  -4.342  22.694  0.00  0.00    -0.244 OA
ATOM     10  N   UNL     1       7.648  -5.143  24.812  0.00  0.00    -0.178 NA
ENDROOT
BRANCH   7  11
ATOM     11  C   UNL     1       8.844  -1.994  23.297  0.00  0.00    +0.224 C 
ATOM     12  O   UNL     1      10.175  -1.456  23.455  0.00  0.00    -0.351 OA
ATOM     13  C   UNL     1      10.168  -0.071  23.051  0.00  0.00    +0.146 C 
ATOM     14  C   UNL     1       8.737   0.275  22.662  0.00  0.00    +0.038 C 
ATOM     15  C   UNL     1       7.914  -0.792  23.339  0.00  0.00    +0.057 C 
BRANCH  13  16
ATOM     16  C   UNL     1      10.722   0.777  24.201  0.00  0.00    +0.187 C 
BRANCH  16  17
ATOM     17  O   UNL     1      10.304   0.277  25.469  0.00  0.00    -0.392 OA
ATOM     18  H   UNL     1       9.970   1.044  25.968  0.00  0.00    +0.210 HD
ENDBRANCH  16  17
ENDBRANCH  13  16
ENDBRANCH   7  11
TORSDOF 3
ENDMDL
MODEL 9
REMARK VINA RESULT:      -5.2      3.930      6.561
REMARK  Name = 
REMARK  3 active torsions:
REMARK  status: ('A' for Active; 'I' for Inactive)
REMARK    1  A    between atoms: N_6  and  C_9
REMARK    2  A    between atoms: C_13  and  C_15
REMARK    3  A    between atoms: C_15  and  O_16
REMARK                            x       y       z     vdW  Elec       q    Type
REMARK                         _______ _______ _______ _____ _____    ______ ____
ROOT
ATOM      1  N   UNL     1       5.232  -7.498  28.574  0.00  0.00    -0.343 N 
ATOM      2  H   UNL     1       4.224  -7.561  28.654  0.00  0.00    +0.144 HD
ATOM      3  H   UNL     1       5.700  -7.397  29.469  0.00  0.00    +0.144 HD
ATOM      4  C   UNL     1       5.734  -6.648  27.628  0.00  0.00    +0.123 A 
ATOM      5  C   UNL     1       4.968  -6.402  26.394  0.00  0.00    +0.061 A 
ATOM      6  C   UNL     1       5.512  -5.546  25.532  0.00  0.00    +0.096 A 
ATOM      7  N   UNL     1       6.727  -4.951  25.790  0.00  0.00    -0.273 N 
ATOM      8  C   UNL     1       7.426  -5.215  26.974  0.00  0.00    +0.352 A 
ATOM      9  O   UNL     1       8.509  -4.679  27.200  0.00  0.00    -0.244 OA
ATOM     10  N   UNL     1       6.873  -6.087  27.882  0.00  0.00    -0.178 NA
ENDROOT
BRANCH   7  11
ATOM     11  C   UNL     1       7.347  -4.022  24.857  0.00  0.00    +0.224 C 
ATOM     12  O   UNL     1       6.386  -3.075  24.344  0.00  0.00    -0.351 OA
ATOM     13  C   UNL     1       6.737  -2.745  22.984  0.00  0.00    +0.146 C 
ATOM     14  C   UNL     1       7.964  -3.573  22.626  0.00  0.00    +0.038 C 
ATOM     15  C   UNL     1       7.945  -4.695  23.632  0.00  0.00    +0.057 C 
BRANCH  13  16
ATOM     16  C   UNL     1       5.524  -3.011  22.086  0.00  0.00    +0.187 C 
BRANCH  16  17
ATOM     17  O   UNL     1       5.803  -4.015  21.113  0.00  0.00    -0.392 OA
ATOM     18  H   UNL     1       6.733  -4.272  21.245  0.00  0.00    +0.210 HD
ENDBRANCH  16  17
ENDBRANCH  13  16
ENDBRANCH   7  11
TORSDOF 3
ENDMDL
