MODEL 1
REMARK VINA RESULT:      -7.1      0.000      0.000
REMARK  Name = 
REMARK  22 active torsions:
REMARK  status: ('A' for Active; 'I' for Inactive)
REMARK    1  A    between atoms: C_1  and  C_2
REMARK    2  A    between atoms: C_2  and  C_3
REMARK    3  A    between atoms: C_2  and  C_4
REMARK    4  A    between atoms: C_4  and  C_5
REMARK    5  A    between atoms: C_5  and  N_7
REMARK    6  A    between atoms: C_5  and  C_34
REMARK    7  A    between atoms: C_8  and  C_10
REMARK    8  A    between atoms: C_26  and  C_28
REMARK    9  A    between atoms: C_28  and  C_29
REMARK   10  A    between atoms: C_28  and  C_30
REMARK   11  A    between atoms: C_34  and  O_36
REMARK   12  A    between atoms: C_34  and  C_37
REMARK   13  A    between atoms: C_37  and  C_38
REMARK   14  A    between atoms: C_38  and  C_40
REMARK   15  A    between atoms: C_38  and  C_41
REMARK   16  A    between atoms: N_43  and  C_44
REMARK   17  A    between atoms: C_44  and  C_46
REMARK   18  A    between atoms: C_44  and  C_49
REMARK   19  A    between atoms: C_46  and  C_47
REMARK   20  A    between atoms: C_46  and  C_48
REMARK   21  A    between atoms: N_51  and  C_52
REMARK   22  A    between atoms: C_52  and  C_53
REMARK                            x       y       z     vdW  Elec       q    Type
REMARK                         _______ _______ _______ _____ _____    ______ ____
ROOT
ATOM      1  C   UNL     1       8.689  -1.824  26.132  0.00  0.00    +0.102 C 
ENDROOT
BRANCH   1   2
ATOM      2  N   UNL     1       7.668  -2.853  26.394  0.00  0.00    -0.308 N 
ATOM      3  H   UNL     1       6.695  -2.627  26.213  0.00  0.00    +0.149 HD
ATOM      4  C   UNL     1       7.997  -4.148  26.736  0.00  0.00    +0.234 C 
ATOM      5  O   UNL     1       9.157  -4.541  26.874  0.00  0.00    -0.274 OA
BRANCH   4   6
ATOM      6  C   UNL     1       6.805  -5.112  26.880  0.00  0.00    +0.168 C 
ATOM      7  N   UNL     1       6.223  -5.293  25.540  0.00  0.00    -0.302 N 
ATOM      8  H   UNL     1       6.564  -4.650  24.827  0.00  0.00    +0.150 HD
ATOM      9  C   UNL     1       5.315  -6.266  25.265  0.00  0.00    +0.234 C 
ATOM     10  O   UNL     1       5.113  -7.179  26.067  0.00  0.00    -0.274 OA
ATOM     11  C   UNL     1       4.592  -6.232  23.881  0.00  0.00    +0.165 C 
ATOM     12  N   UNL     1       3.794  -7.489  23.913  0.00  0.00    -0.270 N 
ATOM     13  H   UNL     1       4.209  -8.134  24.584  0.00  0.00    +0.153 HD
ATOM     14  C   UNL     1       2.450  -7.449  24.173  0.00  0.00    +0.401 C 
ATOM     15  O   UNL     1       1.604  -6.979  23.429  0.00  0.00    -0.226 OA
ATOM     16  O   UNL     1       2.172  -7.992  25.384  0.00  0.00    -0.450 OA
ATOM     17  C   UNL     1       0.787  -7.834  25.715  0.00  0.00    +0.234 C 
ATOM     18  C   UNL     1       0.506  -8.256  27.153  0.00  0.00    +0.041 C 
ATOM     19  C   UNL     1       0.610  -7.107  28.163  0.00  0.00    +0.003 C 
ATOM     20  C   UNL     1       2.012  -6.930  28.746  0.00  0.00    +0.002 C 
ATOM     21  C   UNL     1       2.005  -5.850  29.835  0.00  0.00    +0.019 C 
ATOM     22  C   UNL     1       3.375  -5.653  30.485  0.00  0.00    +0.104 C 
ATOM     23  N   UNL     1       4.237  -4.877  29.619  0.00  0.00    -0.315 N 
ATOM     24  H   UNL     1       3.989  -3.909  29.461  0.00  0.00    +0.149 HD
ATOM     25  C   UNL     1       5.248  -5.444  28.870  0.00  0.00    +0.215 C 
ATOM     26  O   UNL     1       5.675  -6.576  29.049  0.00  0.00    -0.276 OA
ATOM     27  C   UNL     1       5.798  -4.476  27.847  0.00  0.00    +0.127 C 
BRANCH  11  28
ATOM     28  C   UNL     1       3.773  -4.936  23.593  0.00  0.00    +0.012 C 
ATOM     29  C   UNL     1       3.170  -4.253  24.826  0.00  0.00    +0.009 C 
ATOM     30  C   UNL     1       4.618  -3.856  22.894  0.00  0.00    +0.009 C 
ENDBRANCH  11  28
ENDBRANCH   4   6
ENDBRANCH   1   2
BRANCH   1  31
ATOM     31  C   UNL     1       8.977  -1.782  24.599  0.00  0.00    +0.028 C 
BRANCH  31  33
ATOM     32  C   UNL     1       6.893  -0.764  23.495  0.00  0.00    +0.007 C 
ATOM     33  C   UNL     1       7.781  -2.003  23.643  0.00  0.00    -0.015 C 
ATOM     34  C   UNL     1       8.237  -2.479  22.262  0.00  0.00    +0.007 C 
ENDBRANCH  31  33
ENDBRANCH   1  31
BRANCH   1  35
ATOM     35  C   UNL     1       8.266  -0.443  26.727  0.00  0.00    +0.135 C 
BRANCH  35  36
ATOM     36  O   UNL     1       9.057  -0.170  27.875  0.00  0.00    -0.390 OA
ATOM     37  H   UNL     1       9.906  -0.652  27.796  0.00  0.00    +0.210 HD
ENDBRANCH  35  36
BRANCH  35  38
ATOM     38  C   UNL     1       6.787  -0.403  27.173  0.00  0.00    +0.045 C 
BRANCH  38  39
ATOM     39  C   UNL     1       6.187   1.011  27.362  0.00  0.00    +0.074 C 
ATOM     40  C   UNL     1       5.568   1.205  28.748  0.00  0.00    +0.017 C 
BRANCH  39  41
ATOM     41  C   UNL     1       5.156   1.366  26.293  0.00  0.00    +0.217 C 
ATOM     42  N   UNL     1       5.073   2.696  25.977  0.00  0.00    -0.304 N 
ATOM     43  H   UNL     1       5.761   3.353  26.335  0.00  0.00    +0.149 HD
ATOM     44  O   UNL     1       4.483   0.500  25.732  0.00  0.00    -0.276 OA
BRANCH  42  45
ATOM     45  C   UNL     1       4.173   3.206  24.941  0.00  0.00    +0.161 C 
BRANCH  45  46
ATOM     46  C   UNL     1       4.977   3.260  23.620  0.00  0.00    +0.234 C 
ATOM     47  N   UNL     1       6.319   3.525  23.761  0.00  0.00    -0.310 N 
ATOM     48  H   UNL     1       6.684   3.796  24.665  0.00  0.00    +0.149 HD
ATOM     49  O   UNL     1       4.445   3.037  22.532  0.00  0.00    -0.274 OA
BRANCH  47  50
ATOM     50  C   UNL     1       7.209   3.634  22.624  0.00  0.00    +0.139 C 
BRANCH  50  51
ATOM     51  C   UNL     1       8.390   2.713  22.782  0.00  0.00    -0.030 A 
ATOM     52  C   UNL     1       9.099   2.649  23.991  0.00  0.00    +0.005 A 
ATOM     53  C   UNL     1      10.172   1.767  24.136  0.00  0.00    +0.000 A 
ATOM     54  C   UNL     1      10.546   0.941  23.077  0.00  0.00    +0.000 A 
ATOM     55  C   UNL     1       9.848   0.996  21.873  0.00  0.00    +0.000 A 
ATOM     56  C   UNL     1       8.774   1.874  21.727  0.00  0.00    +0.005 A 
ENDBRANCH  50  51
ENDBRANCH  47  50
ENDBRANCH  45  46
BRANCH  45  57
ATOM     57  C   UNL     1       3.567   4.590  25.297  0.00  0.00    +0.012 C 
ATOM     58  C   UNL     1       4.239   5.242  26.512  0.00  0.00    +0.009 C 
ATOM     59  C   UNL     1       2.051   4.526  25.528  0.00  0.00    +0.009 C 
ENDBRANCH  45  57
ENDBRANCH  42  45
ENDBRANCH  39  41
ENDBRANCH  38  39
ENDBRANCH  35  38
ENDBRANCH   1  35
TORSDOF 15
ENDMDL
MODEL 2
REMARK VINA RESULT:      -7.0      1.491      2.095
REMARK  Name = 
REMARK  22 active torsions:
REMARK  status: ('A' for Active; 'I' for Inactive)
REMARK    1  A    between atoms: C_1  and  C_2
REMARK    2  A    between atoms: C_2  and  C_3
REMARK    3  A    between atoms: C_2  and  C_4
REMARK    4  A    between atoms: C_4  and  C_5
REMARK    5  A    between atoms: C_5  and  N_7
REMARK    6  A    between atoms: C_5  and  C_34
REMARK    7  A    between atoms: C_8  and  C_10
REMARK    8  A    between atoms: C_26  and  C_28
REMARK    9  A    between atoms: C_28  and  C_29
REMARK   10  A    between atoms: C_28  and  C_30
REMARK   11  A    between atoms: C_34  and  O_36
REMARK   12  A    between atoms: C_34  and  C_37
REMARK   13  A    between atoms: C_37  and  C_38
REMARK   14  A    between atoms: C_38  and  C_40
REMARK   15  A    between atoms: C_38  and  C_41
REMARK   16  A    between atoms: N_43  and  C_44
REMARK   17  A    between atoms: C_44  and  C_46
REMARK   18  A    between atoms: C_44  and  C_49
REMARK   19  A    between atoms: C_46  and  C_47
REMARK   20  A    between atoms: C_46  and  C_48
REMARK   21  A    between atoms: N_51  and  C_52
REMARK   22  A    between atoms: C_52  and  C_53
REMARK                            x       y       z     vdW  Elec       q    Type
REMARK                         _______ _______ _______ _____ _____    ______ ____
ROOT
ATOM      1  C   UNL     1       8.562  -1.617  25.899  0.00  0.00    +0.102 C 
ENDROOT
BRANCH   1   2
ATOM      2  N   UNL     1       7.570  -2.657  26.221  0.00  0.00    -0.308 N 
ATOM      3  H   UNL     1       6.594  -2.479  26.003  0.00  0.00    +0.149 HD
ATOM      4  C   UNL     1       7.933  -3.908  26.672  0.00  0.00    +0.234 C 
ATOM      5  O   UNL     1       9.101  -4.249  26.866  0.00  0.00    -0.274 OA
BRANCH   4   6
ATOM      6  C   UNL     1       6.770  -4.898  26.870  0.00  0.00    +0.168 C 
ATOM      7  N   UNL     1       6.202  -5.177  25.540  0.00  0.00    -0.302 N 
ATOM      8  H   UNL     1       6.527  -4.568  24.791  0.00  0.00    +0.150 HD
ATOM      9  C   UNL     1       5.325  -6.193  25.319  0.00  0.00    +0.234 C 
ATOM     10  O   UNL     1       5.146  -7.062  26.174  0.00  0.00    -0.274 OA
ATOM     11  C   UNL     1       4.611  -6.264  23.932  0.00  0.00    +0.165 C 
ATOM     12  N   UNL     1       3.852  -7.541  24.036  0.00  0.00    -0.270 N 
ATOM     13  H   UNL     1       4.281  -8.131  24.747  0.00  0.00    +0.153 HD
ATOM     14  C   UNL     1       2.505  -7.527  24.287  0.00  0.00    +0.401 C 
ATOM     15  O   UNL     1       1.650  -7.128  23.513  0.00  0.00    -0.226 OA
ATOM     16  O   UNL     1       2.236  -8.004  25.527  0.00  0.00    -0.450 OA
ATOM     17  C   UNL     1       0.845  -7.869  25.842  0.00  0.00    +0.234 C 
ATOM     18  C   UNL     1       0.567  -8.213  27.301  0.00  0.00    +0.041 C 
ATOM     19  C   UNL     1       0.629  -7.002  28.240  0.00  0.00    +0.003 C 
ATOM     20  C   UNL     1       2.021  -6.747  28.818  0.00  0.00    +0.002 C 
ATOM     21  C   UNL     1       1.975  -5.605  29.840  0.00  0.00    +0.019 C 
ATOM     22  C   UNL     1       3.334  -5.327  30.484  0.00  0.00    +0.104 C 
ATOM     23  N   UNL     1       4.178  -4.578  29.577  0.00  0.00    -0.315 N 
ATOM     24  H   UNL     1       3.901  -3.630  29.359  0.00  0.00    +0.149 HD
ATOM     25  C   UNL     1       5.210  -5.158  28.868  0.00  0.00    +0.215 C 
ATOM     26  O   UNL     1       5.670  -6.263  29.118  0.00  0.00    -0.276 OA
ATOM     27  C   UNL     1       5.737  -4.237  27.791  0.00  0.00    +0.127 C 
BRANCH  11  28
ATOM     28  C   UNL     1       3.755  -5.013  23.563  0.00  0.00    +0.012 C 
ATOM     29  C   UNL     1       3.037  -4.339  24.739  0.00  0.00    +0.009 C 
ATOM     30  C   UNL     1       4.596  -3.906  22.902  0.00  0.00    +0.009 C 
ENDBRANCH  11  28
ENDBRANCH   4   6
ENDBRANCH   1   2
BRANCH   1  31
ATOM     31  C   UNL     1       8.529  -1.352  24.361  0.00  0.00    +0.028 C 
BRANCH  31  33
ATOM     32  C   UNL     1       9.717  -1.273  22.085  0.00  0.00    +0.007 C 
ATOM     33  C   UNL     1       9.877  -1.387  23.604  0.00  0.00    -0.015 C 
ATOM     34  C   UNL     1      10.838  -0.307  24.103  0.00  0.00    +0.007 C 
ENDBRANCH  31  33
ENDBRANCH   1  31
BRANCH   1  35
ATOM     35  C   UNL     1       8.338  -0.334  26.760  0.00  0.00    +0.135 C 
BRANCH  35  36
ATOM     36  O   UNL     1       9.227  -0.358  27.869  0.00  0.00    -0.390 OA
ATOM     37  H   UNL     1       9.637   0.526  27.965  0.00  0.00    +0.210 HD
ENDBRANCH  35  36
BRANCH  35  38
ATOM     38  C   UNL     1       6.904  -0.228  27.327  0.00  0.00    +0.045 C 
BRANCH  38  39
ATOM     39  C   UNL     1       6.085   0.991  26.840  0.00  0.00    +0.074 C 
ATOM     40  C   UNL     1       4.764   1.150  27.597  0.00  0.00    +0.017 C 
BRANCH  39  41
ATOM     41  C   UNL     1       5.806   0.955  25.339  0.00  0.00    +0.217 C 
ATOM     42  N   UNL     1       6.180   2.077  24.646  0.00  0.00    -0.304 N 
ATOM     43  H   UNL     1       6.733   2.799  25.099  0.00  0.00    +0.149 HD
ATOM     44  O   UNL     1       5.319  -0.037  24.795  0.00  0.00    -0.276 OA
BRANCH  42  45
ATOM     45  C   UNL     1       6.030   2.194  23.195  0.00  0.00    +0.161 C 
BRANCH  45  46
ATOM     46  C   UNL     1       7.453   2.195  22.585  0.00  0.00    +0.234 C 
ATOM     47  N   UNL     1       8.471   2.446  23.475  0.00  0.00    -0.310 N 
ATOM     48  H   UNL     1       8.251   2.741  24.417  0.00  0.00    +0.149 HD
ATOM     49  O   UNL     1       7.644   1.946  21.395  0.00  0.00    -0.274 OA
BRANCH  47  50
ATOM     50  C   UNL     1       9.858   2.508  23.064  0.00  0.00    +0.139 C 
BRANCH  50  51
ATOM     51  C   UNL     1      10.475   3.821  23.468  0.00  0.00    -0.030 A 
ATOM     52  C   UNL     1      11.839   4.073  23.261  0.00  0.00    +0.005 A 
ATOM     53  C   UNL     1      12.392   5.306  23.609  0.00  0.00    +0.000 A 
ATOM     54  C   UNL     1      11.589   6.300  24.166  0.00  0.00    +0.000 A 
ATOM     55  C   UNL     1      10.233   6.062  24.377  0.00  0.00    +0.000 A 
ATOM     56  C   UNL     1       9.677   4.831  24.026  0.00  0.00    +0.005 A 
ENDBRANCH  50  51
ENDBRANCH  47  50
ENDBRANCH  45  46
BRANCH  45  57
ATOM     57  C   UNL     1       5.227   3.453  22.771  0.00  0.00    +0.012 C 
ATOM     58  C   UNL     1       5.701   4.729  23.478  0.00  0.00    +0.009 C 
ATOM     59  C   UNL     1       3.716   3.285  22.984  0.00  0.00    +0.009 C 
ENDBRANCH  45  57
ENDBRANCH  42  45
ENDBRANCH  39  41
ENDBRANCH  38  39
ENDBRANCH  35  38
ENDBRANCH   1  35
TORSDOF 15
ENDMDL
MODEL 3
REMARK VINA RESULT:      -6.7      2.580      8.718
REMARK  Name = 
REMARK  22 active torsions:
REMARK  status: ('A' for Active; 'I' for Inactive)
REMARK    1  A    between atoms: C_1  and  C_2
REMARK    2  A    between atoms: C_2  and  C_3
REMARK    3  A    between atoms: C_2  and  C_4
REMARK    4  A    between atoms: C_4  and  C_5
REMARK    5  A    between atoms: C_5  and  N_7
REMARK    6  A    between atoms: C_5  and  C_34
REMARK    7  A    between atoms: C_8  and  C_10
REMARK    8  A    between atoms: C_26  and  C_28
REMARK    9  A    between atoms: C_28  and  C_29
REMARK   10  A    between atoms: C_28  and  C_30
REMARK   11  A    between atoms: C_34  and  O_36
REMARK   12  A    between atoms: C_34  and  C_37
REMARK   13  A    between atoms: C_37  and  C_38
REMARK   14  A    between atoms: C_38  and  C_40
REMARK   15  A    between atoms: C_38  and  C_41
REMARK   16  A    between atoms: N_43  and  C_44
REMARK   17  A    between atoms: C_44  and  C_46
REMARK   18  A    between atoms: C_44  and  C_49
REMARK   19  A    between atoms: C_46  and  C_47
REMARK   20  A    between atoms: C_46  and  C_48
REMARK   21  A    between atoms: N_51  and  C_52
REMARK   22  A    between atoms: C_52  and  C_53
REMARK                            x       y       z     vdW  Elec       q    Type
REMARK                         _______ _______ _______ _____ _____    ______ ____
ROOT
ATOM      1  C   UNL     1       6.690  -4.680  25.394  0.00  0.00    +0.102 C 
ENDROOT
BRANCH   1   2
ATOM      2  N   UNL     1       6.721  -3.215  25.248  0.00  0.00    -0.308 N 
ATOM      3  H   UNL     1       7.581  -2.725  25.472  0.00  0.00    +0.149 HD
ATOM      4  C   UNL     1       5.679  -2.507  24.686  0.00  0.00    +0.234 C 
ATOM      5  O   UNL     1       4.638  -3.031  24.288  0.00  0.00    -0.274 OA
BRANCH   4   6
ATOM      6  C   UNL     1       5.923  -0.995  24.529  0.00  0.00    +0.168 C 
ATOM      7  N   UNL     1       7.111  -0.829  23.675  0.00  0.00    -0.302 N 
ATOM      8  H   UNL     1       7.644  -1.679  23.502  0.00  0.00    +0.150 HD
ATOM      9  C   UNL     1       7.460   0.368  23.134  0.00  0.00    +0.234 C 
ATOM     10  O   UNL     1       6.671   1.315  23.148  0.00  0.00    -0.274 OA
ATOM     11  C   UNL     1       8.852   0.487  22.437  0.00  0.00    +0.165 C 
ATOM     12  N   UNL     1       8.809   1.870  21.885  0.00  0.00    -0.270 N 
ATOM     13  H   UNL     1       7.839   2.164  21.791  0.00  0.00    +0.153 HD
ATOM     14  C   UNL     1       9.478   2.887  22.513  0.00  0.00    +0.401 C 
ATOM     15  O   UNL     1      10.692   2.994  22.580  0.00  0.00    -0.226 OA
ATOM     16  O   UNL     1       8.612   3.766  23.075  0.00  0.00    -0.450 OA
ATOM     17  C   UNL     1       9.305   4.756  23.842  0.00  0.00    +0.234 C 
ATOM     18  C   UNL     1       8.337   5.624  24.639  0.00  0.00    +0.041 C 
ATOM     19  C   UNL     1       8.060   5.098  26.052  0.00  0.00    +0.003 C 
ATOM     20  C   UNL     1       6.876   4.134  26.126  0.00  0.00    +0.002 C 
ATOM     21  C   UNL     1       6.586   3.754  27.583  0.00  0.00    +0.019 C 
ATOM     22  C   UNL     1       5.384   2.819  27.725  0.00  0.00    +0.104 C 
ATOM     23  N   UNL     1       5.753   1.465  27.369  0.00  0.00    -0.315 N 
ATOM     24  H   UNL     1       6.408   0.987  27.975  0.00  0.00    +0.149 HD
ATOM     25  C   UNL     1       5.405   0.889  26.165  0.00  0.00    +0.215 C 
ATOM     26  O   UNL     1       4.560   1.349  25.410  0.00  0.00    -0.276 OA
ATOM     27  C   UNL     1       6.150  -0.405  25.926  0.00  0.00    +0.127 C 
BRANCH  11  28
ATOM     28  C   UNL     1      10.079   0.177  23.349  0.00  0.00    +0.012 C 
ATOM     29  C   UNL     1       9.849   0.385  24.851  0.00  0.00    +0.009 C 
ATOM     30  C   UNL     1      10.560  -1.278  23.202  0.00  0.00    +0.009 C 
ENDBRANCH  11  28
ENDBRANCH   4   6
ENDBRANCH   1   2
BRANCH   1  31
ATOM     31  C   UNL     1       7.613  -5.312  24.306  0.00  0.00    +0.028 C 
BRANCH  31  33
ATOM     32  C   UNL     1       5.503  -6.070  23.051  0.00  0.00    +0.007 C 
ATOM     33  C   UNL     1       6.972  -5.653  22.939  0.00  0.00    -0.015 C 
ATOM     34  C   UNL     1       7.105  -4.498  21.945  0.00  0.00    +0.007 C 
ENDBRANCH  31  33
ENDBRANCH   1  31
BRANCH   1  35
ATOM     35  C   UNL     1       7.053  -5.112  26.850  0.00  0.00    +0.135 C 
BRANCH  35  36
ATOM     36  O   UNL     1       8.086  -6.087  26.800  0.00  0.00    -0.390 OA
ATOM     37  H   UNL     1       8.715  -5.845  26.089  0.00  0.00    +0.210 HD
ENDBRANCH  35  36
BRANCH  35  38
ATOM     38  C   UNL     1       5.864  -5.746  27.608  0.00  0.00    +0.045 C 
BRANCH  38  39
ATOM     39  C   UNL     1       5.482  -5.057  28.939  0.00  0.00    +0.074 C 
ATOM     40  C   UNL     1       5.564  -6.007  30.136  0.00  0.00    +0.017 C 
BRANCH  39  41
ATOM     41  C   UNL     1       4.097  -4.414  28.898  0.00  0.00    +0.217 C 
ATOM     42  N   UNL     1       4.083  -3.068  28.647  0.00  0.00    -0.304 N 
ATOM     43  H   UNL     1       4.934  -2.589  28.367  0.00  0.00    +0.149 HD
ATOM     44  O   UNL     1       3.071  -5.081  29.040  0.00  0.00    -0.276 OA
BRANCH  42  45
ATOM     45  C   UNL     1       2.841  -2.301  28.527  0.00  0.00    +0.161 C 
BRANCH  45  46
ATOM     46  C   UNL     1       2.441  -2.310  27.031  0.00  0.00    +0.234 C 
ATOM     47  N   UNL     1       1.794  -3.447  26.604  0.00  0.00    -0.310 N 
ATOM     48  H   UNL     1       1.731  -4.248  27.219  0.00  0.00    +0.149 HD
ATOM     49  O   UNL     1       2.656  -1.343  26.301  0.00  0.00    -0.274 OA
BRANCH  47  50
ATOM     50  C   UNL     1       1.374  -3.626  25.230  0.00  0.00    +0.139 C 
BRANCH  50  51
ATOM     51  C   UNL     1       1.686  -5.022  24.757  0.00  0.00    -0.030 A 
ATOM     52  C   UNL     1       1.424  -5.411  23.436  0.00  0.00    +0.005 A 
ATOM     53  C   UNL     1       1.748  -6.698  23.000  0.00  0.00    +0.000 A 
ATOM     54  C   UNL     1       2.338  -7.606  23.877  0.00  0.00    +0.000 A 
ATOM     55  C   UNL     1       2.603  -7.230  25.192  0.00  0.00    +0.000 A 
ATOM     56  C   UNL     1       2.284  -5.944  25.629  0.00  0.00    +0.005 A 
ENDBRANCH  50  51
ENDBRANCH  47  50
ENDBRANCH  45  46
BRANCH  45  57
ATOM     57  C   UNL     1       2.970  -0.855  29.073  0.00  0.00    +0.012 C 
ATOM     58  C   UNL     1       4.215  -0.655  29.948  0.00  0.00    +0.009 C 
ATOM     59  C   UNL     1       1.725  -0.408  29.852  0.00  0.00    +0.009 C 
ENDBRANCH  45  57
ENDBRANCH  42  45
ENDBRANCH  39  41
ENDBRANCH  38  39
ENDBRANCH  35  38
ENDBRANCH   1  35
TORSDOF 15
ENDMDL
MODEL 4
REMARK VINA RESULT:      -6.6      1.710      2.231
REMARK  Name = 
REMARK  22 active torsions:
REMARK  status: ('A' for Active; 'I' for Inactive)
REMARK    1  A    between atoms: C_1  and  C_2
REMARK    2  A    between atoms: C_2  and  C_3
REMARK    3  A    between atoms: C_2  and  C_4
REMARK    4  A    between atoms: C_4  and  C_5
REMARK    5  A    between atoms: C_5  and  N_7
REMARK    6  A    between atoms: C_5  and  C_34
REMARK    7  A    between atoms: C_8  and  C_10
REMARK    8  A    between atoms: C_26  and  C_28
REMARK    9  A    between atoms: C_28  and  C_29
REMARK   10  A    between atoms: C_28  and  C_30
REMARK   11  A    between atoms: C_34  and  O_36
REMARK   12  A    between atoms: C_34  and  C_37
REMARK   13  A    between atoms: C_37  and  C_38
REMARK   14  A    between atoms: C_38  and  C_40
REMARK   15  A    between atoms: C_38  and  C_41
REMARK   16  A    between atoms: N_43  and  C_44
REMARK   17  A    between atoms: C_44  and  C_46
REMARK   18  A    between atoms: C_44  and  C_49
REMARK   19  A    between atoms: C_46  and  C_47
REMARK   20  A    between atoms: C_46  and  C_48
REMARK   21  A    between atoms: N_51  and  C_52
REMARK   22  A    between atoms: C_52  and  C_53
REMARK                            x       y       z     vdW  Elec       q    Type
REMARK                         _______ _______ _______ _____ _____    ______ ____
ROOT
ATOM      1  C   UNL     1       9.060  -2.049  25.438  0.00  0.00    +0.102 C 
ENDROOT
BRANCH   1   2
ATOM      2  N   UNL     1       8.019  -3.036  25.774  0.00  0.00    -0.308 N 
ATOM      3  H   UNL     1       7.079  -2.888  25.420  0.00  0.00    +0.149 HD
ATOM      4  C   UNL     1       8.305  -4.217  26.426  0.00  0.00    +0.234 C 
ATOM      5  O   UNL     1       9.436  -4.531  26.800  0.00  0.00    -0.274 OA
BRANCH   4   6
ATOM      6  C   UNL     1       7.110  -5.170  26.612  0.00  0.00    +0.168 C 
ATOM      7  N   UNL     1       6.396  -5.234  25.326  0.00  0.00    -0.302 N 
ATOM      8  H   UNL     1       6.681  -4.541  24.636  0.00  0.00    +0.150 HD
ATOM      9  C   UNL     1       5.442  -6.167  25.067  0.00  0.00    +0.234 C 
ATOM     10  O   UNL     1       5.298  -7.138  25.811  0.00  0.00    -0.274 OA
ATOM     11  C   UNL     1       4.589  -6.010  23.768  0.00  0.00    +0.165 C 
ATOM     12  N   UNL     1       3.769  -7.253  23.780  0.00  0.00    -0.270 N 
ATOM     13  H   UNL     1       4.231  -7.956  24.354  0.00  0.00    +0.153 HD
ATOM     14  C   UNL     1       2.457  -7.213  24.174  0.00  0.00    +0.401 C 
ATOM     15  O   UNL     1       1.554  -6.671  23.557  0.00  0.00    -0.226 OA
ATOM     16  O   UNL     1       2.285  -7.846  25.360  0.00  0.00    -0.450 OA
ATOM     17  C   UNL     1       0.944  -7.693  25.839  0.00  0.00    +0.234 C 
ATOM     18  C   UNL     1       0.794  -8.225  27.259  0.00  0.00    +0.041 C 
ATOM     19  C   UNL     1       1.023  -7.162  28.341  0.00  0.00    +0.003 C 
ATOM     20  C   UNL     1       2.478  -7.055  28.795  0.00  0.00    +0.002 C 
ATOM     21  C   UNL     1       2.604  -6.066  29.960  0.00  0.00    +0.019 C 
ATOM     22  C   UNL     1       4.034  -5.944  30.485  0.00  0.00    +0.104 C 
ATOM     23  N   UNL     1       4.827  -5.115  29.601  0.00  0.00    -0.315 N 
ATOM     24  H   UNL     1       4.587  -4.134  29.545  0.00  0.00    +0.149 HD
ATOM     25  C   UNL     1       5.746  -5.636  28.714  0.00  0.00    +0.215 C 
ATOM     26  O   UNL     1       6.161  -6.786  28.761  0.00  0.00    -0.276 OA
ATOM     27  C   UNL     1       6.217  -4.598  27.720  0.00  0.00    +0.127 C 
BRANCH  11  28
ATOM     28  C   UNL     1       3.777  -4.682  23.665  0.00  0.00    +0.012 C 
ATOM     29  C   UNL     1       3.299  -4.100  25.000  0.00  0.00    +0.009 C 
ATOM     30  C   UNL     1       4.582  -3.558  22.988  0.00  0.00    +0.009 C 
ENDBRANCH  11  28
ENDBRANCH   4   6
ENDBRANCH   1   2
BRANCH   1  31
ATOM     31  C   UNL     1       9.635  -2.389  24.027  0.00  0.00    +0.028 C 
BRANCH  31  33
ATOM     32  C   UNL     1       9.800  -1.267  21.722  0.00  0.00    +0.007 C 
ATOM     33  C   UNL     1       8.873  -1.840  22.798  0.00  0.00    -0.015 C 
ATOM     34  C   UNL     1       7.956  -2.897  22.179  0.00  0.00    +0.007 C 
ENDBRANCH  31  33
ENDBRANCH   1  31
BRANCH   1  35
ATOM     35  C   UNL     1       8.517  -0.590  25.559  0.00  0.00    +0.135 C 
BRANCH  35  36
ATOM     36  O   UNL     1       8.949  -0.035  26.794  0.00  0.00    -0.390 OA
ATOM     37  H   UNL     1       8.858  -0.713  27.494  0.00  0.00    +0.210 HD
ENDBRANCH  35  36
BRANCH  35  38
ATOM     38  C   UNL     1       6.974  -0.515  25.539  0.00  0.00    +0.045 C 
BRANCH  38  39
ATOM     39  C   UNL     1       6.368   0.437  24.480  0.00  0.00    +0.074 C 
ATOM     40  C   UNL     1       7.431   1.045  23.562  0.00  0.00    +0.017 C 
BRANCH  39  41
ATOM     41  C   UNL     1       5.533   1.557  25.098  0.00  0.00    +0.217 C 
ATOM     42  N   UNL     1       6.234   2.471  25.839  0.00  0.00    -0.304 N 
ATOM     43  H   UNL     1       7.250   2.463  25.837  0.00  0.00    +0.149 HD
ATOM     44  O   UNL     1       4.321   1.643  24.898  0.00  0.00    -0.276 OA
BRANCH  42  45
ATOM     45  C   UNL     1       5.599   3.633  26.463  0.00  0.00    +0.161 C 
BRANCH  45  46
ATOM     46  C   UNL     1       6.277   4.895  25.875  0.00  0.00    +0.234 C 
ATOM     47  N   UNL     1       7.637   4.801  25.699  0.00  0.00    -0.310 N 
ATOM     48  H   UNL     1       8.136   4.003  26.068  0.00  0.00    +0.149 HD
ATOM     49  O   UNL     1       5.622   5.888  25.556  0.00  0.00    -0.274 OA
BRANCH  47  50
ATOM     50  C   UNL     1       8.427   5.901  25.184  0.00  0.00    +0.139 C 
BRANCH  50  51
ATOM     51  C   UNL     1       9.659   5.389  24.485  0.00  0.00    -0.030 A 
ATOM     52  C   UNL     1      10.786   6.206  24.318  0.00  0.00    +0.005 A 
ATOM     53  C   UNL     1      11.934   5.710  23.698  0.00  0.00    +0.000 A 
ATOM     54  C   UNL     1      11.969   4.393  23.241  0.00  0.00    +0.000 A 
ATOM     55  C   UNL     1      10.855   3.572  23.403  0.00  0.00    +0.000 A 
ATOM     56  C   UNL     1       9.708   4.065  24.025  0.00  0.00    +0.005 A 
ENDBRANCH  50  51
ENDBRANCH  47  50
ENDBRANCH  45  46
BRANCH  45  57
ATOM     57  C   UNL     1       5.685   3.609  28.012  0.00  0.00    +0.012 C 
ATOM     58  C   UNL     1       5.837   5.007  28.625  0.00  0.00    +0.009 C 
ATOM     59  C   UNL     1       6.816   2.705  28.523  0.00  0.00    +0.009 C 
ENDBRANCH  45  57
ENDBRANCH  42  45
ENDBRANCH  39  41
ENDBRANCH  38  39
ENDBRANCH  35  38
ENDBRANCH   1  35
TORSDOF 15
ENDMDL
MODEL 5
REMARK VINA RESULT:      -6.6      2.271      8.510
REMARK  Name = 
REMARK  22 active torsions:
REMARK  status: ('A' for Active; 'I' for Inactive)
REMARK    1  A    between atoms: C_1  and  C_2
REMARK    2  A    between atoms: C_2  and  C_3
REMARK    3  A    between atoms: C_2  and  C_4
REMARK    4  A    between atoms: C_4  and  C_5
REMARK    5  A    between atoms: C_5  and  N_7
REMARK    6  A    between atoms: C_5  and  C_34
REMARK    7  A    between atoms: C_8  and  C_10
REMARK    8  A    between atoms: C_26  and  C_28
REMARK    9  A    between atoms: C_28  and  C_29
REMARK   10  A    between atoms: C_28  and  C_30
REMARK   11  A    between atoms: C_34  and  O_36
REMARK   12  A    between atoms: C_34  and  C_37
REMARK   13  A    between atoms: C_37  and  C_38
REMARK   14  A    between atoms: C_38  and  C_40
REMARK   15  A    between atoms: C_38  and  C_41
REMARK   16  A    between atoms: N_43  and  C_44
REMARK   17  A    between atoms: C_44  and  C_46
REMARK   18  A    between atoms: C_44  and  C_49
REMARK   19  A    between atoms: C_46  and  C_47
REMARK   20  A    between atoms: C_46  and  C_48
REMARK   21  A    between atoms: N_51  and  C_52
REMARK   22  A    between atoms: C_52  and  C_53
REMARK                            x       y       z     vdW  Elec       q    Type
REMARK                         _______ _______ _______ _____ _____    ______ ____
ROOT
ATOM      1  C   UNL     1       7.828  -3.050  25.150  0.00  0.00    +0.102 C 
ENDROOT
BRANCH   1   2
ATOM      2  N   UNL     1       7.280  -1.689  25.275  0.00  0.00    -0.308 N 
ATOM      3  H   UNL     1       7.929  -0.910  25.340  0.00  0.00    +0.149 HD
ATOM      4  C   UNL     1       5.932  -1.423  25.165  0.00  0.00    +0.234 C 
ATOM      5  O   UNL     1       5.080  -2.294  24.979  0.00  0.00    -0.274 OA
BRANCH   4   6
ATOM      6  C   UNL     1       5.548   0.067  25.230  0.00  0.00    +0.168 C 
ATOM      7  N   UNL     1       6.041   0.700  23.995  0.00  0.00    -0.302 N 
ATOM      8  H   UNL     1       6.672   0.129  23.435  0.00  0.00    +0.150 HD
ATOM      9  C   UNL     1       5.662   1.949  23.614  0.00  0.00    +0.234 C 
ATOM     10  O   UNL     1       4.715   2.511  24.166  0.00  0.00    -0.274 OA
ATOM     11  C   UNL     1       6.412   2.616  22.417  0.00  0.00    +0.165 C 
ATOM     12  N   UNL     1       5.649   3.882  22.236  0.00  0.00    -0.270 N 
ATOM     13  H   UNL     1       4.720   3.776  22.640  0.00  0.00    +0.153 HD
ATOM     14  C   UNL     1       6.155   5.067  22.701  0.00  0.00    +0.401 C 
ATOM     15  O   UNL     1       7.133   5.639  22.248  0.00  0.00    -0.226 OA
ATOM     16  O   UNL     1       5.433   5.526  23.752  0.00  0.00    -0.450 OA
ATOM     17  C   UNL     1       6.035   6.694  24.322  0.00  0.00    +0.234 C 
ATOM     18  C   UNL     1       5.348   7.099  25.622  0.00  0.00    +0.041 C 
ATOM     19  C   UNL     1       5.983   6.479  26.872  0.00  0.00    +0.003 C 
ATOM     20  C   UNL     1       5.382   5.128  27.259  0.00  0.00    +0.002 C 
ATOM     21  C   UNL     1       5.979   4.637  28.583  0.00  0.00    +0.019 C 
ATOM     22  C   UNL     1       5.388   3.304  29.043  0.00  0.00    +0.104 C 
ATOM     23  N   UNL     1       5.965   2.209  28.293  0.00  0.00    -0.315 N 
ATOM     24  H   UNL     1       6.947   2.013  28.438  0.00  0.00    +0.149 HD
ATOM     25  C   UNL     1       5.293   1.566  27.274  0.00  0.00    +0.215 C 
ATOM     26  O   UNL     1       4.090   1.674  27.079  0.00  0.00    -0.276 OA
ATOM     27  C   UNL     1       6.211   0.672  26.473  0.00  0.00    +0.127 C 
BRANCH  11  28
ATOM     28  C   UNL     1       7.949   2.792  22.614  0.00  0.00    +0.012 C 
ATOM     29  C   UNL     1       8.435   2.747  24.067  0.00  0.00    +0.009 C 
ATOM     30  C   UNL     1       8.758   1.711  21.874  0.00  0.00    +0.009 C 
ENDBRANCH  11  28
ENDBRANCH   4   6
ENDBRANCH   1   2
BRANCH   1  31
ATOM     31  C   UNL     1       9.242  -2.962  24.494  0.00  0.00    +0.028 C 
BRANCH  31  33
ATOM     32  C   UNL     1      10.196  -0.586  24.698  0.00  0.00    +0.007 C 
ATOM     33  C   UNL     1       9.609  -1.648  23.765  0.00  0.00    -0.015 C 
ATOM     34  C   UNL     1      10.566  -1.894  22.597  0.00  0.00    +0.007 C 
ENDBRANCH  31  33
ENDBRANCH   1  31
BRANCH   1  35
ATOM     35  C   UNL     1       7.820  -3.793  26.523  0.00  0.00    +0.135 C 
BRANCH  35  36
ATOM     36  O   UNL     1       9.107  -4.349  26.757  0.00  0.00    -0.390 OA
ATOM     37  H   UNL     1       9.040  -5.326  26.723  0.00  0.00    +0.210 HD
ENDBRANCH  35  36
BRANCH  35  38
ATOM     38  C   UNL     1       6.804  -4.956  26.576  0.00  0.00    +0.045 C 
BRANCH  38  39
ATOM     39  C   UNL     1       5.977  -5.057  27.880  0.00  0.00    +0.074 C 
ATOM     40  C   UNL     1       6.445  -6.199  28.784  0.00  0.00    +0.017 C 
BRANCH  39  41
ATOM     41  C   UNL     1       4.478  -5.197  27.622  0.00  0.00    +0.217 C 
ATOM     42  N   UNL     1       3.837  -4.045  27.250  0.00  0.00    -0.304 N 
ATOM     43  H   UNL     1       4.370  -3.209  27.028  0.00  0.00    +0.149 HD
ATOM     44  O   UNL     1       3.908  -6.285  27.703  0.00  0.00    -0.276 OA
BRANCH  42  45
ATOM     45  C   UNL     1       2.411  -4.008  26.919  0.00  0.00    +0.161 C 
BRANCH  45  46
ATOM     46  C   UNL     1       2.291  -4.197  25.387  0.00  0.00    +0.234 C 
ATOM     47  N   UNL     1       3.361  -4.821  24.789  0.00  0.00    -0.310 N 
ATOM     48  H   UNL     1       4.201  -5.000  25.324  0.00  0.00    +0.149 HD
ATOM     49  O   UNL     1       1.285  -3.846  24.771  0.00  0.00    -0.274 OA
BRANCH  47  50
ATOM     50  C   UNL     1       3.419  -5.053  23.361  0.00  0.00    +0.139 C 
BRANCH  50  51
ATOM     51  C   UNL     1       4.841  -4.981  22.868  0.00  0.00    -0.030 A 
ATOM     52  C   UNL     1       5.698  -6.086  22.973  0.00  0.00    +0.005 A 
ATOM     53  C   UNL     1       7.004  -6.018  22.483  0.00  0.00    +0.000 A 
ATOM     54  C   UNL     1       7.465  -4.848  21.882  0.00  0.00    +0.000 A 
ATOM     55  C   UNL     1       6.622  -3.744  21.771  0.00  0.00    +0.000 A 
ATOM     56  C   UNL     1       5.316  -3.811  22.257  0.00  0.00    +0.005 A 
ENDBRANCH  50  51
ENDBRANCH  47  50
ENDBRANCH  45  46
BRANCH  45  57
ATOM     57  C   UNL     1       1.717  -2.702  27.388  0.00  0.00    +0.012 C 
ATOM     58  C   UNL     1       2.672  -1.502  27.437  0.00  0.00    +0.009 C 
ATOM     59  C   UNL     1       1.028  -2.859  28.750  0.00  0.00    +0.009 C 
ENDBRANCH  45  57
ENDBRANCH  42  45
ENDBRANCH  39  41
ENDBRANCH  38  39
ENDBRANCH  35  38
ENDBRANCH   1  35
TORSDOF 15
ENDMDL
MODEL 6
REMARK VINA RESULT:      -6.5      2.584      5.200
REMARK  Name = 
REMARK  22 active torsions:
REMARK  status: ('A' for Active; 'I' for Inactive)
REMARK    1  A    between atoms: C_1  and  C_2
REMARK    2  A    between atoms: C_2  and  C_3
REMARK    3  A    between atoms: C_2  and  C_4
REMARK    4  A    between atoms: C_4  and  C_5
REMARK    5  A    between atoms: C_5  and  N_7
REMARK    6  A    between atoms: C_5  and  C_34
REMARK    7  A    between atoms: C_8  and  C_10
REMARK    8  A    between atoms: C_26  and  C_28
REMARK    9  A    between atoms: C_28  and  C_29
REMARK   10  A    between atoms: C_28  and  C_30
REMARK   11  A    between atoms: C_34  and  O_36
REMARK   12  A    between atoms: C_34  and  C_37
REMARK   13  A    between atoms: C_37  and  C_38
REMARK   14  A    between atoms: C_38  and  C_40
REMARK   15  A    between atoms: C_38  and  C_41
REMARK   16  A    between atoms: N_43  and  C_44
REMARK   17  A    between atoms: C_44  and  C_46
REMARK   18  A    between atoms: C_44  and  C_49
REMARK   19  A    between atoms: C_46  and  C_47
REMARK   20  A    between atoms: C_46  and  C_48
REMARK   21  A    between atoms: N_51  and  C_52
REMARK   22  A    between atoms: C_52  and  C_53
REMARK                            x       y       z     vdW  Elec       q    Type
REMARK                         _______ _______ _______ _____ _____    ______ ____
ROOT
ATOM      1  C   UNL     1       3.918   1.296  29.328  0.00  0.00    +0.102 C 
ENDROOT
BRANCH   1   2
ATOM      2  N   UNL     1       4.297   0.158  28.473  0.00  0.00    -0.308 N 
ATOM      3  H   UNL     1       4.993   0.307  27.749  0.00  0.00    +0.149 HD
ATOM      4  C   UNL     1       3.850  -1.125  28.712  0.00  0.00    +0.234 C 
ATOM      5  O   UNL     1       3.087  -1.419  29.633  0.00  0.00    -0.274 OA
BRANCH   4   6
ATOM      6  C   UNL     1       4.421  -2.204  27.774  0.00  0.00    +0.168 C 
ATOM      7  N   UNL     1       5.717  -1.712  27.277  0.00  0.00    -0.302 N 
ATOM      8  H   UNL     1       5.915  -0.732  27.474  0.00  0.00    +0.150 HD
ATOM      9  C   UNL     1       6.600  -2.513  26.625  0.00  0.00    +0.234 C 
ATOM     10  O   UNL     1       6.453  -3.737  26.625  0.00  0.00    -0.274 OA
ATOM     11  C   UNL     1       7.838  -1.848  25.943  0.00  0.00    +0.165 C 
ATOM     12  N   UNL     1       8.602  -3.031  25.458  0.00  0.00    -0.270 N 
ATOM     13  H   UNL     1       8.330  -3.851  25.997  0.00  0.00    +0.153 HD
ATOM     14  C   UNL     1       8.561  -3.387  24.136  0.00  0.00    +0.401 C 
ATOM     15  O   UNL     1       9.049  -2.747  23.220  0.00  0.00    -0.226 OA
ATOM     16  O   UNL     1       7.885  -4.551  23.967  0.00  0.00    -0.450 OA
ATOM     17  C   UNL     1       7.727  -4.859  22.577  0.00  0.00    +0.234 C 
ATOM     18  C   UNL     1       6.800  -6.051  22.372  0.00  0.00    +0.041 C 
ATOM     19  C   UNL     1       5.329  -5.661  22.185  0.00  0.00    +0.003 C 
ATOM     20  C   UNL     1       4.545  -5.587  23.495  0.00  0.00    +0.002 C 
ATOM     21  C   UNL     1       3.061  -5.317  23.216  0.00  0.00    +0.019 C 
ATOM     22  C   UNL     1       2.216  -5.270  24.489  0.00  0.00    +0.104 C 
ATOM     23  N   UNL     1       2.393  -4.002  25.166  0.00  0.00    -0.315 N 
ATOM     24  H   UNL     1       2.041  -3.175  24.702  0.00  0.00    +0.149 HD
ATOM     25  C   UNL     1       3.172  -3.862  26.295  0.00  0.00    +0.215 C 
ATOM     26  O   UNL     1       3.569  -4.803  26.969  0.00  0.00    -0.276 OA
ATOM     27  C   UNL     1       3.424  -2.408  26.627  0.00  0.00    +0.127 C 
BRANCH  11  28
ATOM     28  C   UNL     1       7.500  -0.786  24.851  0.00  0.00    +0.012 C 
ATOM     29  C   UNL     1       6.110  -0.913  24.219  0.00  0.00    +0.009 C 
ATOM     30  C   UNL     1       7.577   0.653  25.395  0.00  0.00    +0.009 C 
ENDBRANCH  11  28
ENDBRANCH   4   6
ENDBRANCH   1   2
BRANCH   1  31
ATOM     31  C   UNL     1       5.128   2.278  29.420  0.00  0.00    +0.028 C 
BRANCH  31  33
ATOM     32  C   UNL     1       6.873   3.189  27.769  0.00  0.00    +0.007 C 
ATOM     33  C   UNL     1       6.364   1.969  28.543  0.00  0.00    -0.015 C 
ATOM     34  C   UNL     1       7.506   1.365  29.362  0.00  0.00    +0.007 C 
ENDBRANCH  31  33
ENDBRANCH   1  31
BRANCH   1  35
ATOM     35  C   UNL     1       2.602   1.970  28.825  0.00  0.00    +0.135 C 
BRANCH  35  36
ATOM     36  O   UNL     1       1.490   1.326  29.431  0.00  0.00    -0.390 OA
ATOM     37  H   UNL     1       1.552   1.435  30.402  0.00  0.00    +0.210 HD
ENDBRANCH  35  36
BRANCH  35  38
ATOM     38  C   UNL     1       2.414   1.862  27.295  0.00  0.00    +0.045 C 
BRANCH  38  39
ATOM     39  C   UNL     1       2.800   3.124  26.487  0.00  0.00    +0.074 C 
ATOM     40  C   UNL     1       1.628   4.093  26.318  0.00  0.00    +0.017 C 
BRANCH  39  41
ATOM     41  C   UNL     1       3.385   2.794  25.115  0.00  0.00    +0.217 C 
ATOM     42  N   UNL     1       2.904   3.546  24.076  0.00  0.00    -0.304 N 
ATOM     43  H   UNL     1       2.315   4.354  24.256  0.00  0.00    +0.149 HD
ATOM     44  O   UNL     1       4.259   1.937  24.975  0.00  0.00    -0.276 OA
BRANCH  42  45
ATOM     45  C   UNL     1       3.389   3.395  22.703  0.00  0.00    +0.161 C 
BRANCH  45  46
ATOM     46  C   UNL     1       4.729   4.164  22.603  0.00  0.00    +0.234 C 
ATOM     47  N   UNL     1       5.845   3.378  22.435  0.00  0.00    -0.310 N 
ATOM     48  H   UNL     1       5.767   2.373  22.517  0.00  0.00    +0.149 HD
ATOM     49  O   UNL     1       4.770   5.394  22.632  0.00  0.00    -0.274 OA
BRANCH  47  50
ATOM     50  C   UNL     1       7.178   3.937  22.349  0.00  0.00    +0.139 C 
BRANCH  50  51
ATOM     51  C   UNL     1       8.214   2.844  22.351  0.00  0.00    -0.030 A 
ATOM     52  C   UNL     1       9.355   2.932  23.162  0.00  0.00    +0.005 A 
ATOM     53  C   UNL     1      10.292   1.897  23.179  0.00  0.00    +0.000 A 
ATOM     54  C   UNL     1      10.099   0.765  22.389  0.00  0.00    +0.000 A 
ATOM     55  C   UNL     1       8.969   0.667  21.580  0.00  0.00    +0.000 A 
ATOM     56  C   UNL     1       8.030   1.698  21.563  0.00  0.00    +0.005 A 
ENDBRANCH  50  51
ENDBRANCH  47  50
ENDBRANCH  45  46
BRANCH  45  57
ATOM     57  C   UNL     1       2.368   3.890  21.645  0.00  0.00    +0.012 C 
ATOM     58  C   UNL     1       1.232   4.723  22.254  0.00  0.00    +0.009 C 
ATOM     59  C   UNL     1       1.770   2.740  20.822  0.00  0.00    +0.009 C 
ENDBRANCH  45  57
ENDBRANCH  42  45
ENDBRANCH  39  41
ENDBRANCH  38  39
ENDBRANCH  35  38
ENDBRANCH   1  35
TORSDOF 15
ENDMDL
MODEL 7
REMARK VINA RESULT:      -6.4      2.597      3.957
REMARK  Name = 
REMARK  22 active torsions:
REMARK  status: ('A' for Active; 'I' for Inactive)
REMARK    1  A    between atoms: C_1  and  C_2
REMARK    2  A    between atoms: C_2  and  C_3
REMARK    3  A    between atoms: C_2  and  C_4
REMARK    4  A    between atoms: C_4  and  C_5
REMARK    5  A    between atoms: C_5  and  N_7
REMARK    6  A    between atoms: C_5  and  C_34
REMARK    7  A    between atoms: C_8  and  C_10
REMARK    8  A    between atoms: C_26  and  C_28
REMARK    9  A    between atoms: C_28  and  C_29
REMARK   10  A    between atoms: C_28  and  C_30
REMARK   11  A    between atoms: C_34  and  O_36
REMARK   12  A    between atoms: C_34  and  C_37
REMARK   13  A    between atoms: C_37  and  C_38
REMARK   14  A    between atoms: C_38  and  C_40
REMARK   15  A    between atoms: C_38  and  C_41
REMARK   16  A    between atoms: N_43  and  C_44
REMARK   17  A    between atoms: C_44  and  C_46
REMARK   18  A    between atoms: C_44  and  C_49
REMARK   19  A    between atoms: C_46  and  C_47
REMARK   20  A    between atoms: C_46  and  C_48
REMARK   21  A    between atoms: N_51  and  C_52
REMARK   22  A    between atoms: C_52  and  C_53
REMARK                            x       y       z     vdW  Elec       q    Type
REMARK                         _______ _______ _______ _____ _____    ______ ____
ROOT
ATOM      1  C   UNL     1       7.506   2.169  27.229  0.00  0.00    +0.102 C 
ENDROOT
BRANCH   1   2
ATOM      2  N   UNL     1       6.905   0.854  26.948  0.00  0.00    -0.308 N 
ATOM      3  H   UNL     1       5.978   0.823  26.535  0.00  0.00    +0.149 HD
ATOM      4  C   UNL     1       7.608  -0.324  27.090  0.00  0.00    +0.234 C 
ATOM      5  O   UNL     1       8.774  -0.376  27.484  0.00  0.00    -0.274 OA
BRANCH   4   6
ATOM      6  C   UNL     1       6.853  -1.595  26.663  0.00  0.00    +0.168 C 
ATOM      7  N   UNL     1       7.570  -2.164  25.510  0.00  0.00    -0.302 N 
ATOM      8  H   UNL     1       8.282  -1.562  25.100  0.00  0.00    +0.150 HD
ATOM      9  C   UNL     1       7.319  -3.415  25.039  0.00  0.00    +0.234 C 
ATOM     10  O   UNL     1       6.644  -4.208  25.698  0.00  0.00    -0.274 OA
ATOM     11  C   UNL     1       7.966  -3.837  23.681  0.00  0.00    +0.165 C 
ATOM     12  N   UNL     1       7.565  -5.267  23.575  0.00  0.00    -0.270 N 
ATOM     13  H   UNL     1       7.346  -5.625  24.503  0.00  0.00    +0.153 HD
ATOM     14  C   UNL     1       6.538  -5.639  22.749  0.00  0.00    +0.401 C 
ATOM     15  O   UNL     1       6.566  -5.598  21.530  0.00  0.00    -0.226 OA
ATOM     16  O   UNL     1       5.462  -6.049  23.464  0.00  0.00    -0.450 OA
ATOM     17  C   UNL     1       4.343  -6.313  22.610  0.00  0.00    +0.234 C 
ATOM     18  C   UNL     1       3.076  -6.579  23.415  0.00  0.00    +0.041 C 
ATOM     19  C   UNL     1       2.242  -5.320  23.683  0.00  0.00    +0.003 C 
ATOM     20  C   UNL     1       2.622  -4.598  24.975  0.00  0.00    +0.002 C 
ATOM     21  C   UNL     1       1.664  -3.428  25.235  0.00  0.00    +0.019 C 
ATOM     22  C   UNL     1       1.970  -2.688  26.538  0.00  0.00    +0.104 C 
ATOM     23  N   UNL     1       3.109  -1.812  26.365  0.00  0.00    -0.315 N 
ATOM     24  H   UNL     1       2.997  -1.019  25.747  0.00  0.00    +0.149 HD
ATOM     25  C   UNL     1       4.365  -2.118  26.848  0.00  0.00    +0.215 C 
ATOM     26  O   UNL     1       4.584  -3.001  27.665  0.00  0.00    -0.276 OA
ATOM     27  C   UNL     1       5.422  -1.192  26.288  0.00  0.00    +0.127 C 
BRANCH  11  28
ATOM     28  C   UNL     1       7.579  -2.949  22.459  0.00  0.00    +0.012 C 
ATOM     29  C   UNL     1       6.384  -2.013  22.679  0.00  0.00    +0.009 C 
ATOM     30  C   UNL     1       8.738  -2.041  22.009  0.00  0.00    +0.009 C 
ENDBRANCH  11  28
ENDBRANCH   4   6
ENDBRANCH   1   2
BRANCH   1  31
ATOM     31  C   UNL     1       7.483   3.020  25.921  0.00  0.00    +0.028 C 
BRANCH  31  33
ATOM     32  C   UNL     1       8.872   4.914  24.880  0.00  0.00    +0.007 C 
ATOM     33  C   UNL     1       7.943   4.494  26.022  0.00  0.00    -0.015 C 
ATOM     34  C   UNL     1       6.756   5.456  26.102  0.00  0.00    +0.007 C 
ENDBRANCH  31  33
ENDBRANCH   1  31
BRANCH   1  35
ATOM     35  C   UNL     1       6.805   2.864  28.439  0.00  0.00    +0.135 C 
BRANCH  35  36
ATOM     36  O   UNL     1       7.518   2.553  29.629  0.00  0.00    -0.390 OA
ATOM     37  H   UNL     1       7.017   2.896  30.397  0.00  0.00    +0.210 HD
ENDBRANCH  35  36
BRANCH  35  38
ATOM     38  C   UNL     1       5.347   2.397  28.646  0.00  0.00    +0.045 C 
BRANCH  38  39
ATOM     39  C   UNL     1       4.273   3.215  27.890  0.00  0.00    +0.074 C 
ATOM     40  C   UNL     1       3.027   3.472  28.739  0.00  0.00    +0.017 C 
BRANCH  39  41
ATOM     41  C   UNL     1       3.861   2.573  26.567  0.00  0.00    +0.217 C 
ATOM     42  N   UNL     1       4.194   3.281  25.442  0.00  0.00    -0.304 N 
ATOM     43  H   UNL     1       4.799   4.095  25.508  0.00  0.00    +0.149 HD
ATOM     44  O   UNL     1       3.308   1.474  26.527  0.00  0.00    -0.276 OA
BRANCH  42  45
ATOM     45  C   UNL     1       3.916   2.791  24.091  0.00  0.00    +0.161 C 
BRANCH  45  46
ATOM     46  C   UNL     1       5.136   3.159  23.211  0.00  0.00    +0.234 C 
ATOM     47  N   UNL     1       5.767   2.095  22.610  0.00  0.00    -0.310 N 
ATOM     48  H   UNL     1       5.507   1.151  22.863  0.00  0.00    +0.149 HD
ATOM     49  O   UNL     1       5.477   4.330  23.039  0.00  0.00    -0.274 OA
BRANCH  47  50
ATOM     50  C   UNL     1       6.938   2.264  21.775  0.00  0.00    +0.139 C 
BRANCH  50  51
ATOM     51  C   UNL     1       8.191   1.932  22.543  0.00  0.00    -0.030 A 
ATOM     52  C   UNL     1       8.185   0.952  23.546  0.00  0.00    +0.005 A 
ATOM     53  C   UNL     1       9.360   0.630  24.228  0.00  0.00    +0.000 A 
ATOM     54  C   UNL     1      10.551   1.282  23.914  0.00  0.00    +0.000 A 
ATOM     55  C   UNL     1      10.569   2.257  22.920  0.00  0.00    +0.000 A 
ATOM     56  C   UNL     1       9.397   2.578  22.234  0.00  0.00    +0.005 A 
ENDBRANCH  50  51
ENDBRANCH  47  50
ENDBRANCH  45  46
BRANCH  45  57
ATOM     57  C   UNL     1       2.597   3.358  23.503  0.00  0.00    +0.012 C 
ATOM     58  C   UNL     1       2.578   3.358  21.969  0.00  0.00    +0.009 C 
ATOM     59  C   UNL     1       2.286   4.771  24.015  0.00  0.00    +0.009 C 
ENDBRANCH  45  57
ENDBRANCH  42  45
ENDBRANCH  39  41
ENDBRANCH  38  39
ENDBRANCH  35  38
ENDBRANCH   1  35
TORSDOF 15
ENDMDL
MODEL 8
REMARK VINA RESULT:      -6.4      1.331      3.322
REMARK  Name = 
REMARK  22 active torsions:
REMARK  status: ('A' for Active; 'I' for Inactive)
REMARK    1  A    between atoms: C_1  and  C_2
REMARK    2  A    between atoms: C_2  and  C_3
REMARK    3  A    between atoms: C_2  and  C_4
REMARK    4  A    between atoms: C_4  and  C_5
REMARK    5  A    between atoms: C_5  and  N_7
REMARK    6  A    between atoms: C_5  and  C_34
REMARK    7  A    between atoms: C_8  and  C_10
REMARK    8  A    between atoms: C_26  and  C_28
REMARK    9  A    between atoms: C_28  and  C_29
REMARK   10  A    between atoms: C_28  and  C_30
REMARK   11  A    between atoms: C_34  and  O_36
REMARK   12  A    between atoms: C_34  and  C_37
REMARK   13  A    between atoms: C_37  and  C_38
REMARK   14  A    between atoms: C_38  and  C_40
REMARK   15  A    between atoms: C_38  and  C_41
REMARK   16  A    between atoms: N_43  and  C_44
REMARK   17  A    between atoms: C_44  and  C_46
REMARK   18  A    between atoms: C_44  and  C_49
REMARK   19  A    between atoms: C_46  and  C_47
REMARK   20  A    between atoms: C_46  and  C_48
REMARK   21  A    between atoms: N_51  and  C_52
REMARK   22  A    between atoms: C_52  and  C_53
REMARK                            x       y       z     vdW  Elec       q    Type
REMARK                         _______ _______ _______ _____ _____    ______ ____
ROOT
ATOM      1  C   UNL     1       9.030  -1.802  25.871  0.00  0.00    +0.102 C 
ENDROOT
BRANCH   1   2
ATOM      2  N   UNL     1       7.950  -2.740  26.221  0.00  0.00    -0.308 N 
ATOM      3  H   UNL     1       6.989  -2.448  26.077  0.00  0.00    +0.149 HD
ATOM      4  C   UNL     1       8.199  -4.044  26.597  0.00  0.00    +0.234 C 
ATOM      5  O   UNL     1       9.331  -4.519  26.696  0.00  0.00    -0.274 OA
BRANCH   4   6
ATOM      6  C   UNL     1       6.947  -4.908  26.835  0.00  0.00    +0.168 C 
ATOM      7  N   UNL     1       6.361  -5.204  25.517  0.00  0.00    -0.302 N 
ATOM      8  H   UNL     1       6.746  -4.668  24.740  0.00  0.00    +0.150 HD
ATOM      9  C   UNL     1       5.394  -6.143  25.342  0.00  0.00    +0.234 C 
ATOM     10  O   UNL     1       5.131  -6.945  26.240  0.00  0.00    -0.274 OA
ATOM     11  C   UNL     1       4.682  -6.221  23.954  0.00  0.00    +0.165 C 
ATOM     12  N   UNL     1       3.806  -7.414  24.118  0.00  0.00    -0.270 N 
ATOM     13  H   UNL     1       4.175  -8.003  24.863  0.00  0.00    +0.153 HD
ATOM     14  C   UNL     1       2.465  -7.261  24.356  0.00  0.00    +0.401 C 
ATOM     15  O   UNL     1       1.655  -6.826  23.554  0.00  0.00    -0.226 OA
ATOM     16  O   UNL     1       2.147  -7.644  25.617  0.00  0.00    -0.450 OA
ATOM     17  C   UNL     1       0.774  -7.363  25.911  0.00  0.00    +0.234 C 
ATOM     18  C   UNL     1       0.459  -7.601  27.384  0.00  0.00    +0.041 C 
ATOM     19  C   UNL     1       0.631  -6.354  28.259  0.00  0.00    +0.003 C 
ATOM     20  C   UNL     1       2.038  -6.200  28.835  0.00  0.00    +0.002 C 
ATOM     21  C   UNL     1       2.095  -5.005  29.795  0.00  0.00    +0.019 C 
ATOM     22  C   UNL     1       3.471  -4.821  30.435  0.00  0.00    +0.104 C 
ATOM     23  N   UNL     1       4.385  -4.204  29.498  0.00  0.00    -0.315 N 
ATOM     24  H   UNL     1       4.199  -3.247  29.229  0.00  0.00    +0.149 HD
ATOM     25  C   UNL     1       5.362  -4.915  28.830  0.00  0.00    +0.215 C 
ATOM     26  O   UNL     1       5.715  -6.044  29.142  0.00  0.00    -0.276 OA
ATOM     27  C   UNL     1       5.978  -4.106  27.711  0.00  0.00    +0.127 C 
BRANCH  11  28
ATOM     28  C   UNL     1       3.948  -4.917  23.512  0.00  0.00    +0.012 C 
ATOM     29  C   UNL     1       3.438  -4.031  24.655  0.00  0.00    +0.009 C 
ATOM     30  C   UNL     1       4.845  -4.008  22.652  0.00  0.00    +0.009 C 
ENDBRANCH  11  28
ENDBRANCH   4   6
ENDBRANCH   1   2
BRANCH   1  31
ATOM     31  C   UNL     1       9.188  -1.775  24.319  0.00  0.00    +0.028 C 
BRANCH  31  33
ATOM     32  C   UNL     1       7.343  -0.553  23.014  0.00  0.00    +0.007 C 
ATOM     33  C   UNL     1       7.902  -1.904  23.470  0.00  0.00    -0.015 C 
ATOM     34  C   UNL     1       8.110  -2.811  22.255  0.00  0.00    +0.007 C 
ENDBRANCH  31  33
ENDBRANCH   1  31
BRANCH   1  35
ATOM     35  C   UNL     1       8.781  -0.393  26.499  0.00  0.00    +0.135 C 
BRANCH  35  36
ATOM     36  O   UNL     1       9.156  -0.423  27.869  0.00  0.00    -0.390 OA
ATOM     37  H   UNL     1       9.992   0.076  27.979  0.00  0.00    +0.210 HD
ENDBRANCH  35  36
BRANCH  35  38
ATOM     38  C   UNL     1       7.299   0.042  26.441  0.00  0.00    +0.045 C 
BRANCH  38  39
ATOM     39  C   UNL     1       6.976   1.392  27.124  0.00  0.00    +0.074 C 
ATOM     40  C   UNL     1       5.471   1.635  27.260  0.00  0.00    +0.017 C 
BRANCH  39  41
ATOM     41  C   UNL     1       7.619   2.583  26.418  0.00  0.00    +0.217 C 
ATOM     42  N   UNL     1       8.249   2.294  25.236  0.00  0.00    -0.304 N 
ATOM     43  H   UNL     1       8.151   1.375  24.814  0.00  0.00    +0.149 HD
ATOM     44  O   UNL     1       7.532   3.725  26.869  0.00  0.00    -0.276 OA
BRANCH  42  45
ATOM     45  C   UNL     1       8.877   3.322  24.405  0.00  0.00    +0.161 C 
BRANCH  45  46
ATOM     46  C   UNL     1       7.779   3.895  23.476  0.00  0.00    +0.234 C 
ATOM     47  N   UNL     1       6.804   3.001  23.102  0.00  0.00    -0.310 N 
ATOM     48  H   UNL     1       6.911   2.020  23.324  0.00  0.00    +0.149 HD
ATOM     49  O   UNL     1       7.773   5.080  23.141  0.00  0.00    -0.274 OA
BRANCH  47  50
ATOM     50  C   UNL     1       5.718   3.369  22.216  0.00  0.00    +0.139 C 
BRANCH  50  51
ATOM     51  C   UNL     1       4.400   3.325  22.944  0.00  0.00    -0.030 A 
ATOM     52  C   UNL     1       4.349   3.319  24.345  0.00  0.00    +0.005 A 
ATOM     53  C   UNL     1       3.120   3.312  25.008  0.00  0.00    +0.000 A 
ATOM     54  C   UNL     1       1.932   3.312  24.279  0.00  0.00    +0.000 A 
ATOM     55  C   UNL     1       1.971   3.318  22.887  0.00  0.00    +0.000 A 
ATOM     56  C   UNL     1       3.198   3.329  22.222  0.00  0.00    +0.005 A 
ENDBRANCH  50  51
ENDBRANCH  47  50
ENDBRANCH  45  46
BRANCH  45  57
ATOM     57  C   UNL     1      10.087   2.786  23.594  0.00  0.00    +0.012 C 
ATOM     58  C   UNL     1      10.681   1.501  24.185  0.00  0.00    +0.009 C 
ATOM     59  C   UNL     1      11.198   3.833  23.435  0.00  0.00    +0.009 C 
ENDBRANCH  45  57
ENDBRANCH  42  45
ENDBRANCH  39  41
ENDBRANCH  38  39
ENDBRANCH  35  38
ENDBRANCH   1  35
TORSDOF 15
ENDMDL
MODEL 9
REMARK VINA RESULT:      -6.2      2.621      9.346
REMARK  Name = 
REMARK  22 active torsions:
REMARK  status: ('A' for Active; 'I' for Inactive)
REMARK    1  A    between atoms: C_1  and  C_2
REMARK    2  A    between atoms: C_2  and  C_3
REMARK    3  A    between atoms: C_2  and  C_4
REMARK    4  A    between atoms: C_4  and  C_5
REMARK    5  A    between atoms: C_5  and  N_7
REMARK    6  A    between atoms: C_5  and  C_34
REMARK    7  A    between atoms: C_8  and  C_10
REMARK    8  A    between atoms: C_26  and  C_28
REMARK    9  A    between atoms: C_28  and  C_29
REMARK   10  A    between atoms: C_28  and  C_30
REMARK   11  A    between atoms: C_34  and  O_36
REMARK   12  A    between atoms: C_34  and  C_37
REMARK   13  A    between atoms: C_37  and  C_38
REMARK   14  A    between atoms: C_38  and  C_40
REMARK   15  A    between atoms: C_38  and  C_41
REMARK   16  A    between atoms: N_43  and  C_44
REMARK   17  A    between atoms: C_44  and  C_46
REMARK   18  A    between atoms: C_44  and  C_49
REMARK   19  A    between atoms: C_46  and  C_47
REMARK   20  A    between atoms: C_46  and  C_48
REMARK   21  A    between atoms: N_51  and  C_52
REMARK   22  A    between atoms: C_52  and  C_53
REMARK                            x       y       z     vdW  Elec       q    Type
REMARK                         _______ _______ _______ _____ _____    ______ ____
ROOT
ATOM      1  C   UNL     1       6.762  -4.650  23.431  0.00  0.00    +0.102 C 
ENDROOT
BRANCH   1   2
ATOM      2  N   UNL     1       6.406  -3.266  23.788  0.00  0.00    -0.308 N 
ATOM      3  H   UNL     1       5.902  -3.104  24.654  0.00  0.00    +0.149 HD
ATOM      4  C   UNL     1       6.854  -2.180  23.066  0.00  0.00    +0.234 C 
ATOM      5  O   UNL     1       7.560  -2.275  22.061  0.00  0.00    -0.274 OA
BRANCH   4   6
ATOM      6  C   UNL     1       6.461  -0.805  23.637  0.00  0.00    +0.168 C 
ATOM      7  N   UNL     1       7.168   0.216  22.847  0.00  0.00    -0.302 N 
ATOM      8  H   UNL     1       7.893  -0.140  22.225  0.00  0.00    +0.150 HD
ATOM      9  C   UNL     1       6.861   1.538  22.921  0.00  0.00    +0.234 C 
ATOM     10  O   UNL     1       5.828   1.910  23.479  0.00  0.00    -0.274 OA
ATOM     11  C   UNL     1       7.814   2.558  22.221  0.00  0.00    +0.165 C 
ATOM     12  N   UNL     1       7.093   3.847  22.418  0.00  0.00    -0.270 N 
ATOM     13  H   UNL     1       6.107   3.658  22.586  0.00  0.00    +0.153 HD
ATOM     14  C   UNL     1       7.503   4.728  23.384  0.00  0.00    +0.401 C 
ATOM     15  O   UNL     1       8.545   5.362  23.360  0.00  0.00    -0.226 OA
ATOM     16  O   UNL     1       6.600   4.800  24.392  0.00  0.00    -0.450 OA
ATOM     17  C   UNL     1       7.084   5.618  25.463  0.00  0.00    +0.234 C 
ATOM     18  C   UNL     1       6.170   5.543  26.681  0.00  0.00    +0.041 C 
ATOM     19  C   UNL     1       6.569   4.452  27.682  0.00  0.00    +0.003 C 
ATOM     20  C   UNL     1       5.912   3.100  27.408  0.00  0.00    +0.002 C 
ATOM     21  C   UNL     1       6.259   2.101  28.519  0.00  0.00    +0.019 C 
ATOM     22  C   UNL     1       5.598   0.737  28.320  0.00  0.00    +0.104 C 
ATOM     23  N   UNL     1       6.306  -0.026  27.314  0.00  0.00    -0.315 N 
ATOM     24  H   UNL     1       7.246  -0.328  27.535  0.00  0.00    +0.149 HD
ATOM     25  C   UNL     1       5.832  -0.185  26.028  0.00  0.00    +0.215 C 
ATOM     26  O   UNL     1       4.685   0.070  25.689  0.00  0.00    -0.276 OA
ATOM     27  C   UNL     1       6.884  -0.766  25.110  0.00  0.00    +0.127 C 
BRANCH  11  28
ATOM     28  C   UNL     1       9.290   2.542  22.727  0.00  0.00    +0.012 C 
ATOM     29  C   UNL     1       9.484   2.052  24.167  0.00  0.00    +0.009 C 
ATOM     30  C   UNL     1      10.193   1.646  21.860  0.00  0.00    +0.009 C 
ENDBRANCH  11  28
ENDBRANCH   4   6
ENDBRANCH   1   2
BRANCH   1  31
ATOM     31  C   UNL     1       7.059  -5.445  24.741  0.00  0.00    +0.028 C 
BRANCH  31  33
ATOM     32  C   UNL     1       9.440  -4.510  24.501  0.00  0.00    +0.007 C 
ATOM     33  C   UNL     1       8.437  -5.227  25.410  0.00  0.00    -0.015 C 
ATOM     34  C   UNL     1       8.312  -4.473  26.735  0.00  0.00    +0.007 C 
ENDBRANCH  31  33
ENDBRANCH   1  31
BRANCH   1  35
ATOM     35  C   UNL     1       5.662  -5.306  22.537  0.00  0.00    +0.135 C 
BRANCH  35  36
ATOM     36  O   UNL     1       5.810  -4.839  21.203  0.00  0.00    -0.390 OA
ATOM     37  H   UNL     1       5.508  -3.908  21.158  0.00  0.00    +0.210 HD
ENDBRANCH  35  36
BRANCH  35  38
ATOM     38  C   UNL     1       4.227  -4.954  22.987  0.00  0.00    +0.045 C 
BRANCH  38  39
ATOM     39  C   UNL     1       3.296  -6.162  23.245  0.00  0.00    +0.074 C 
ATOM     40  C   UNL     1       1.824  -5.835  22.985  0.00  0.00    +0.017 C 
BRANCH  39  41
ATOM     41  C   UNL     1       3.446  -6.736  24.653  0.00  0.00    +0.217 C 
ATOM     42  N   UNL     1       3.533  -5.810  25.658  0.00  0.00    -0.304 N 
ATOM     43  H   UNL     1       3.359  -4.827  25.467  0.00  0.00    +0.149 HD
ATOM     44  O   UNL     1       3.443  -7.950  24.858  0.00  0.00    -0.276 OA
BRANCH  42  45
ATOM     45  C   UNL     1       3.633  -6.185  27.069  0.00  0.00    +0.161 C 
BRANCH  45  46
ATOM     46  C   UNL     1       2.450  -5.512  27.807  0.00  0.00    +0.234 C 
ATOM     47  N   UNL     1       1.846  -4.481  27.127  0.00  0.00    -0.310 N 
ATOM     48  H   UNL     1       2.263  -4.130  26.275  0.00  0.00    +0.149 HD
ATOM     49  O   UNL     1       2.065  -5.912  28.906  0.00  0.00    -0.274 OA
BRANCH  47  50
ATOM     50  C   UNL     1       0.741  -3.730  27.686  0.00  0.00    +0.139 C 
BRANCH  50  51
ATOM     51  C   UNL     1       1.226  -2.433  28.278  0.00  0.00    -0.030 A 
ATOM     52  C   UNL     1       1.563  -1.346  27.458  0.00  0.00    +0.005 A 
ATOM     53  C   UNL     1       1.979  -0.138  28.020  0.00  0.00    +0.000 A 
ATOM     54  C   UNL     1       2.061  -0.002  29.405  0.00  0.00    +0.000 A 
ATOM     55  C   UNL     1       1.729  -1.075  30.229  0.00  0.00    +0.000 A 
ATOM     56  C   UNL     1       1.309  -2.282  29.670  0.00  0.00    +0.005 A 
ENDBRANCH  50  51
ENDBRANCH  47  50
ENDBRANCH  45  46
BRANCH  45  57
ATOM     57  C   UNL     1       4.996  -5.794  27.702  0.00  0.00    +0.012 C 
ATOM     58  C   UNL     1       5.447  -6.767  28.799  0.00  0.00    +0.009 C 
ATOM     59  C   UNL     1       4.995  -4.364  28.260  0.00  0.00    +0.009 C 
ENDBRANCH  45  57
ENDBRANCH  42  45
ENDBRANCH  39  41
ENDBRANCH  38  39
ENDBRANCH  35  38
ENDBRANCH   1  35
TORSDOF 15
ENDMDL
