MODEL 1
REMARK VINA RESULT:      -3.9      0.000      0.000
REMARK  Name = 
REMARK  1 active torsions:
REMARK  status: ('A' for Active; 'I' for Inactive)
REMARK    1  A    between atoms: N_1  and  C_2
REMARK                            x       y       z     vdW  Elec       q    Type
REMARK                         _______ _______ _______ _____ _____    ______ ____
ROOT
ATOM      1  C   UNL     1       9.185  -4.406  25.217  0.00  0.00    +0.147 C 
ATOM      2  C   UNL     1       7.930  -5.007  24.593  0.00  0.00    +0.236 C 
ATOM      3  O   UNL     1       7.653  -5.066  23.406  0.00  0.00    -0.274 OA
ATOM      4  N   UNL     1       7.175  -5.541  25.591  0.00  0.00    -0.255 N 
ATOM      5  H   UNL     1       6.344  -6.082  25.422  0.00  0.00    +0.158 HD
ATOM      6  C   UNL     1       7.672  -5.293  26.827  0.00  0.00    +0.221 C 
ATOM      7  O   UNL     1       7.220  -5.726  27.873  0.00  0.00    -0.275 OA
ATOM      8  C   UNL     1       8.840  -4.360  26.705  0.00  0.00    +0.124 C 
ENDROOT
BRANCH   1   9
ATOM      9  N   UNL     1      10.353  -5.256  24.936  0.00  0.00    -0.320 NA
ATOM     10  H   UNL     1      10.714  -5.059  24.002  0.00  0.00    +0.119 HD
ATOM     11  H   UNL     1      11.110  -5.058  25.588  0.00  0.00    +0.119 HD
ENDBRANCH   1   9
TORSDOF 1
ENDMDL
MODEL 2
REMARK VINA RESULT:      -3.8      7.019      7.972
REMARK  Name = 
REMARK  1 active torsions:
REMARK  status: ('A' for Active; 'I' for Inactive)
REMARK    1  A    between atoms: N_1  and  C_2
REMARK                            x       y       z     vdW  Elec       q    Type
REMARK                         _______ _______ _______ _____ _____    ______ ____
ROOT
ATOM      1  C   UNL     1       9.774   1.715  24.183  0.00  0.00    +0.147 C 
ATOM      2  C   UNL     1      10.464   2.626  23.174  0.00  0.00    +0.236 C 
ATOM      3  O   UNL     1      11.166   3.594  23.415  0.00  0.00    -0.274 OA
ATOM      4  N   UNL     1      10.221   2.138  21.928  0.00  0.00    -0.255 N 
ATOM      5  H   UNL     1      10.652   2.510  21.098  0.00  0.00    +0.158 HD
ATOM      6  C   UNL     1       9.365   1.087  21.924  0.00  0.00    +0.221 C 
ATOM      7  O   UNL     1       9.050   0.432  20.944  0.00  0.00    -0.275 OA
ATOM      8  C   UNL     1       8.830   0.889  23.311  0.00  0.00    +0.124 C 
ENDROOT
BRANCH   1   9
ATOM      9  N   UNL     1      10.765   0.884  24.884  0.00  0.00    -0.320 NA
ATOM     10  H   UNL     1      10.501   0.774  25.864  0.00  0.00    +0.119 HD
ATOM     11  H   UNL     1      10.800  -0.053  24.486  0.00  0.00    +0.119 HD
ENDBRANCH   1   9
TORSDOF 1
ENDMDL
MODEL 3
REMARK VINA RESULT:      -3.8      1.664      2.107
REMARK  Name = 
REMARK  1 active torsions:
REMARK  status: ('A' for Active; 'I' for Inactive)
REMARK    1  A    between atoms: N_1  and  C_2
REMARK                            x       y       z     vdW  Elec       q    Type
REMARK                         _______ _______ _______ _____ _____    ______ ____
ROOT
ATOM      1  C   UNL     1       7.785  -4.795  24.631  0.00  0.00    +0.147 C 
ATOM      2  C   UNL     1       9.126  -4.964  25.337  0.00  0.00    +0.236 C 
ATOM      3  O   UNL     1      10.237  -4.860  24.844  0.00  0.00    -0.274 OA
ATOM      4  N   UNL     1       8.883  -5.190  26.657  0.00  0.00    -0.255 N 
ATOM      5  H   UNL     1       9.611  -5.237  27.349  0.00  0.00    +0.158 HD
ATOM      6  C   UNL     1       7.565  -5.317  26.942  0.00  0.00    +0.221 C 
ATOM      7  O   UNL     1       7.090  -5.449  28.058  0.00  0.00    -0.275 OA
ATOM      8  C   UNL     1       6.786  -5.318  25.661  0.00  0.00    +0.124 C 
ENDROOT
BRANCH   1   9
ATOM      9  N   UNL     1       7.558  -3.380  24.294  0.00  0.00    -0.320 NA
ATOM     10  H   UNL     1       7.934  -3.175  23.368  0.00  0.00    +0.119 HD
ATOM     11  H   UNL     1       6.563  -3.171  24.257  0.00  0.00    +0.119 HD
ENDBRANCH   1   9
TORSDOF 1
ENDMDL
MODEL 4
REMARK VINA RESULT:      -3.8      1.937      2.436
REMARK  Name = 
REMARK  1 active torsions:
REMARK  status: ('A' for Active; 'I' for Inactive)
REMARK    1  A    between atoms: N_1  and  C_2
REMARK                            x       y       z     vdW  Elec       q    Type
REMARK                         _______ _______ _______ _____ _____    ______ ____
ROOT
ATOM      1  C   UNL     1       9.247  -4.551  25.591  0.00  0.00    +0.147 C 
ATOM      2  C   UNL     1       9.204  -3.722  24.312  0.00  0.00    +0.236 C 
ATOM      3  O   UNL     1      10.049  -2.939  23.913  0.00  0.00    -0.274 OA
ATOM      4  N   UNL     1       8.072  -4.052  23.633  0.00  0.00    -0.255 N 
ATOM      5  H   UNL     1       7.866  -3.710  22.709  0.00  0.00    +0.158 HD
ATOM      6  C   UNL     1       7.269  -4.903  24.316  0.00  0.00    +0.221 C 
ATOM      7  O   UNL     1       6.240  -5.401  23.892  0.00  0.00    -0.275 OA
ATOM      8  C   UNL     1       7.824  -5.097  25.695  0.00  0.00    +0.124 C 
ENDROOT
BRANCH   1   9
ATOM      9  N   UNL     1      10.253  -5.619  25.475  0.00  0.00    -0.320 NA
ATOM     10  H   UNL     1      10.932  -5.546  26.235  0.00  0.00    +0.119 HD
ATOM     11  H   UNL     1       9.820  -6.536  25.560  0.00  0.00    +0.119 HD
ENDBRANCH   1   9
TORSDOF 1
ENDMDL
MODEL 5
REMARK VINA RESULT:      -3.8      1.570      3.444
REMARK  Name = 
REMARK  1 active torsions:
REMARK  status: ('A' for Active; 'I' for Inactive)
REMARK    1  A    between atoms: N_1  and  C_2
REMARK                            x       y       z     vdW  Elec       q    Type
REMARK                         _______ _______ _______ _____ _____    ______ ____
ROOT
ATOM      1  C   UNL     1       6.345  -5.093  26.141  0.00  0.00    +0.147 C 
ATOM      2  C   UNL     1       7.304  -5.636  27.195  0.00  0.00    +0.236 C 
ATOM      3  O   UNL     1       7.028  -5.990  28.329  0.00  0.00    -0.274 OA
ATOM      4  N   UNL     1       8.540  -5.726  26.635  0.00  0.00    -0.255 N 
ATOM      5  H   UNL     1       9.325  -6.149  27.101  0.00  0.00    +0.158 HD
ATOM      6  C   UNL     1       8.597  -5.215  25.381  0.00  0.00    +0.221 C 
ATOM      7  O   UNL     1       9.570  -5.245  24.646  0.00  0.00    -0.275 OA
ATOM      8  C   UNL     1       7.286  -4.561  25.061  0.00  0.00    +0.124 C 
ENDROOT
BRANCH   1   9
ATOM      9  N   UNL     1       5.469  -6.167  25.645  0.00  0.00    -0.320 NA
ATOM     10  H   UNL     1       4.968  -6.599  26.423  0.00  0.00    +0.119 HD
ATOM     11  H   UNL     1       4.762  -5.795  25.014  0.00  0.00    +0.119 HD
ENDBRANCH   1   9
TORSDOF 1
ENDMDL
MODEL 6
REMARK VINA RESULT:      -3.8      7.013      7.811
REMARK  Name = 
REMARK  1 active torsions:
REMARK  status: ('A' for Active; 'I' for Inactive)
REMARK    1  A    between atoms: N_1  and  C_2
REMARK                            x       y       z     vdW  Elec       q    Type
REMARK                         _______ _______ _______ _____ _____    ______ ____
ROOT
ATOM      1  C   UNL     1       9.616   0.529  23.447  0.00  0.00    +0.147 C 
ATOM      2  C   UNL     1       9.656   0.961  21.985  0.00  0.00    +0.236 C 
ATOM      3  O   UNL     1       9.234   0.342  21.022  0.00  0.00    -0.274 OA
ATOM      4  N   UNL     1      10.193   2.210  21.928  0.00  0.00    -0.255 N 
ATOM      5  H   UNL     1      10.235   2.751  21.081  0.00  0.00    +0.158 HD
ATOM      6  C   UNL     1      10.636   2.656  23.128  0.00  0.00    +0.221 C 
ATOM      7  O   UNL     1      11.087   3.767  23.350  0.00  0.00    -0.275 OA
ATOM      8  C   UNL     1      10.529   1.545  24.131  0.00  0.00    +0.124 C 
ENDROOT
BRANCH   1   9
ATOM      9  N   UNL     1       8.237   0.577  23.958  0.00  0.00    -0.320 NA
ATOM     10  H   UNL     1       7.892   1.538  23.946  0.00  0.00    +0.119 HD
ATOM     11  H   UNL     1       7.612   0.036  23.364  0.00  0.00    +0.119 HD
ENDBRANCH   1   9
TORSDOF 1
ENDMDL
MODEL 7
REMARK VINA RESULT:      -3.7      4.437      5.186
REMARK  Name = 
REMARK  1 active torsions:
REMARK  status: ('A' for Active; 'I' for Inactive)
REMARK    1  A    between atoms: N_1  and  C_2
REMARK                            x       y       z     vdW  Elec       q    Type
REMARK                         _______ _______ _______ _____ _____    ______ ____
ROOT
ATOM      1  C   UNL     1       9.468  -0.038  24.329  0.00  0.00    +0.147 C 
ATOM      2  C   UNL     1       9.960  -0.329  22.915  0.00  0.00    +0.236 C 
ATOM      3  O   UNL     1      10.157   0.480  22.023  0.00  0.00    -0.274 OA
ATOM      4  N   UNL     1      10.212  -1.662  22.822  0.00  0.00    -0.255 N 
ATOM      5  H   UNL     1      10.640  -2.084  22.015  0.00  0.00    +0.158 HD
ATOM      6  C   UNL     1       9.856  -2.352  23.932  0.00  0.00    +0.221 C 
ATOM      7  O   UNL     1      10.049  -3.541  24.120  0.00  0.00    -0.275 OA
ATOM      8  C   UNL     1       9.142  -1.428  24.872  0.00  0.00    +0.124 C 
ENDROOT
BRANCH   1   9
ATOM      9  N   UNL     1      10.518   0.638  25.107  0.00  0.00    -0.320 NA
ATOM     10  H   UNL     1      11.270  -0.017  25.328  0.00  0.00    +0.119 HD
ATOM     11  H   UNL     1      10.939   1.393  24.569  0.00  0.00    +0.119 HD
ENDBRANCH   1   9
TORSDOF 1
ENDMDL
MODEL 8
REMARK VINA RESULT:      -3.7      1.961      2.694
REMARK  Name = 
REMARK  1 active torsions:
REMARK  status: ('A' for Active; 'I' for Inactive)
REMARK    1  A    between atoms: N_1  and  C_2
REMARK                            x       y       z     vdW  Elec       q    Type
REMARK                         _______ _______ _______ _____ _____    ______ ____
ROOT
ATOM      1  C   UNL     1       8.947  -5.073  25.083  0.00  0.00    +0.147 C 
ATOM      2  C   UNL     1       8.063  -4.985  26.323  0.00  0.00    +0.236 C 
ATOM      3  O   UNL     1       7.586  -5.913  26.956  0.00  0.00    -0.274 OA
ATOM      4  N   UNL     1       7.939  -3.673  26.661  0.00  0.00    -0.255 N 
ATOM      5  H   UNL     1       7.482  -3.364  27.503  0.00  0.00    +0.158 HD
ATOM      6  C   UNL     1       8.514  -2.834  25.766  0.00  0.00    +0.221 C 
ATOM      7  O   UNL     1       8.601  -1.624  25.883  0.00  0.00    -0.275 OA
ATOM      8  C   UNL     1       8.983  -3.630  24.584  0.00  0.00    +0.124 C 
ENDROOT
BRANCH   1   9
ATOM      9  N   UNL     1      10.281  -5.579  25.441  0.00  0.00    -0.320 NA
ATOM     10  H   UNL     1      10.984  -5.198  24.805  0.00  0.00    +0.119 HD
ATOM     11  H   UNL     1      10.544  -5.279  26.378  0.00  0.00    +0.119 HD
ENDBRANCH   1   9
TORSDOF 1
ENDMDL
MODEL 9
REMARK VINA RESULT:      -3.6      3.232      4.234
REMARK  Name = 
REMARK  1 active torsions:
REMARK  status: ('A' for Active; 'I' for Inactive)
REMARK    1  A    between atoms: N_1  and  C_2
REMARK                            x       y       z     vdW  Elec       q    Type
REMARK                         _______ _______ _______ _____ _____    ______ ____
ROOT
ATOM      1  C   UNL     1       5.437  -4.716  22.497  0.00  0.00    +0.147 C 
ATOM      2  C   UNL     1       6.241  -5.522  21.484  0.00  0.00    +0.236 C 
ATOM      3  O   UNL     1       5.886  -5.868  20.369  0.00  0.00    -0.274 OA
ATOM      4  N   UNL     1       7.476  -5.747  22.008  0.00  0.00    -0.255 N 
ATOM      5  H   UNL     1       8.224  -6.176  21.487  0.00  0.00    +0.158 HD
ATOM      6  C   UNL     1       7.602  -5.312  23.284  0.00  0.00    +0.221 C 
ATOM      7  O   UNL     1       8.628  -5.332  23.943  0.00  0.00    -0.275 OA
ATOM      8  C   UNL     1       6.263  -4.847  23.775  0.00  0.00    +0.124 C 
ENDROOT
BRANCH   1   9
ATOM      9  N   UNL     1       5.306  -3.319  22.052  0.00  0.00    -0.320 NA
ATOM     10  H   UNL     1       4.690  -2.806  22.684  0.00  0.00    +0.119 HD
ATOM     11  H   UNL     1       6.206  -2.845  22.075  0.00  0.00    +0.119 HD
ENDBRANCH   1   9
TORSDOF 1
ENDMDL
