MODEL 1
REMARK VINA RESULT:      -7.6      0.000      0.000
REMARK  Name = 
REMARK  11 active torsions:
REMARK  status: ('A' for Active; 'I' for Inactive)
REMARK    1  A    between atoms: C_1  and  C_2
REMARK    2  A    between atoms: C_7  and  C_8
REMARK    3  A    between atoms: C_8  and  C_9
REMARK    4  A    between atoms: N_11  and  C_12
REMARK    5  A    between atoms: C_14  and  C_15
REMARK    6  A    between atoms: C_16  and  S_20
REMARK    7  A    between atoms: C_17  and  C_18
REMARK    8  A    between atoms: S_20  and  N_23
REMARK    9  A    between atoms: N_23  and  C_24
REMARK   10  A    between atoms: C_24  and  C_25
REMARK   11  A    between atoms: C_25  and  O_26
REMARK                            x       y       z     vdW  Elec       q    Type
REMARK                         _______ _______ _______ _____ _____    ______ ____
ROOT
ATOM      1  C   UNL     1       7.584  -2.961  23.210  0.00  0.00    +0.034 A 
ATOM      2  C   UNL     1       7.289  -2.835  24.569  0.00  0.00    +0.028 A 
ATOM      3  C   UNL     1       6.548  -3.820  25.272  0.00  0.00    -0.022 A 
ATOM      4  C   UNL     1       6.249  -3.506  26.716  0.00  0.00    +0.046 C 
ATOM      5  C   UNL     1       6.085  -4.967  24.578  0.00  0.00    +0.111 A 
ATOM      6  C   UNL     1       6.432  -5.132  23.215  0.00  0.00    -0.022 A 
ATOM      7  C   UNL     1       6.019  -6.302  22.361  0.00  0.00    +0.046 C 
ATOM      8  C   UNL     1       7.180  -4.125  22.564  0.00  0.00    +0.028 A 
ENDROOT
BRANCH   1  10
ATOM      9  C   UNL     1       9.649  -1.706  22.551  0.00  0.00    +0.222 C 
ATOM     10  N   UNL     1       8.272  -1.904  22.564  0.00  0.00    -0.285 N 
ATOM     11  H   UNL     1       7.726  -1.310  21.954  0.00  0.00    +0.155 HD
ATOM     12  O   UNL     1      10.489  -2.456  23.047  0.00  0.00    -0.275 OA
BRANCH   9  13
ATOM     13  C   UNL     1      10.089  -0.431  21.838  0.00  0.00    +0.131 C 
BRANCH  13  16
ATOM     14  C   UNL     1      11.026   0.796  24.468  0.00  0.00    +0.044 C 
ATOM     15  C   UNL     1       9.943   1.414  23.626  0.00  0.00    -0.047 A 
ATOM     16  C   UNL     1       9.499   0.842  22.413  0.00  0.00    -0.036 A 
ATOM     17  C   UNL     1       8.523   1.528  21.664  0.00  0.00    +0.004 A 
ATOM     18  C   UNL     1       7.981   2.735  22.107  0.00  0.00    +0.000 A 
ATOM     19  C   UNL     1       8.418   3.291  23.301  0.00  0.00    +0.000 A 
ATOM     20  C   UNL     1       9.397   2.639  24.050  0.00  0.00    +0.003 A 
ENDBRANCH  13  16
ENDBRANCH   9  13
ENDBRANCH   1  10
BRANCH   5  21
ATOM     21  S   UNL     1       4.930  -6.100  25.372  0.00  0.00    +0.059 S 
ATOM     22  O   UNL     1       4.647  -7.244  24.540  0.00  0.00    -0.153 OA
ATOM     23  O   UNL     1       3.847  -5.308  25.918  0.00  0.00    -0.153 OA
BRANCH  21  24
ATOM     24  N   UNL     1       5.769  -6.701  26.733  0.00  0.00    -0.179 NA
ATOM     25  H   UNL     1       6.649  -6.170  26.758  0.00  0.00    +0.149 HD
BRANCH  24  26
ATOM     26  C   UNL     1       5.002  -6.640  28.018  0.00  0.00    +0.226 C 
BRANCH  26  27
ATOM     27  C   UNL     1       5.973  -6.458  29.175  0.00  0.00    +0.320 C 
ATOM     28  O   UNL     1       6.010  -5.482  29.910  0.00  0.00    -0.250 OA
BRANCH  27  29
ATOM     29  O   UNL     1       6.792  -7.531  29.333  0.00  0.00    -0.480 OA
ATOM     30  H   UNL     1       7.717  -7.214  29.432  0.00  0.00    +0.295 HD
ENDBRANCH  27  29
ENDBRANCH  26  27
ENDBRANCH  24  26
ENDBRANCH  21  24
ENDBRANCH   5  21
TORSDOF 8
ENDMDL
MODEL 2
REMARK VINA RESULT:      -7.5      0.681      1.785
REMARK  Name = 
REMARK  11 active torsions:
REMARK  status: ('A' for Active; 'I' for Inactive)
REMARK    1  A    between atoms: C_1  and  C_2
REMARK    2  A    between atoms: C_7  and  C_8
REMARK    3  A    between atoms: C_8  and  C_9
REMARK    4  A    between atoms: N_11  and  C_12
REMARK    5  A    between atoms: C_14  and  C_15
REMARK    6  A    between atoms: C_16  and  S_20
REMARK    7  A    between atoms: C_17  and  C_18
REMARK    8  A    between atoms: S_20  and  N_23
REMARK    9  A    between atoms: N_23  and  C_24
REMARK   10  A    between atoms: C_24  and  C_25
REMARK   11  A    between atoms: C_25  and  O_26
REMARK                            x       y       z     vdW  Elec       q    Type
REMARK                         _______ _______ _______ _____ _____    ______ ____
ROOT
ATOM      1  C   UNL     1       7.205  -2.903  23.187  0.00  0.00    +0.034 A 
ATOM      2  C   UNL     1       7.022  -4.132  22.549  0.00  0.00    +0.028 A 
ATOM      3  C   UNL     1       6.166  -5.133  23.077  0.00  0.00    -0.022 A 
ATOM      4  C   UNL     1       6.130  -6.431  22.311  0.00  0.00    +0.046 C 
ATOM      5  C   UNL     1       5.476  -4.887  24.292  0.00  0.00    +0.111 A 
ATOM      6  C   UNL     1       5.609  -3.622  24.913  0.00  0.00    -0.022 A 
ATOM      7  C   UNL     1       4.930  -3.221  26.196  0.00  0.00    +0.046 C 
ATOM      8  C   UNL     1       6.468  -2.656  24.341  0.00  0.00    +0.028 A 
ENDROOT
BRANCH   1  10
ATOM      9  C   UNL     1       9.497  -1.943  22.873  0.00  0.00    +0.222 C 
ATOM     10  N   UNL     1       8.127  -1.981  22.632  0.00  0.00    -0.285 N 
ATOM     11  H   UNL     1       7.780  -1.375  21.900  0.00  0.00    +0.155 HD
ATOM     12  O   UNL     1      10.130  -2.745  23.557  0.00  0.00    -0.275 OA
BRANCH   9  13
ATOM     13  C   UNL     1      10.216  -0.780  22.194  0.00  0.00    +0.131 C 
BRANCH  13  16
ATOM     14  C   UNL     1      11.068   0.660  24.743  0.00  0.00    +0.044 C 
ATOM     15  C   UNL     1      10.101   1.260  23.758  0.00  0.00    -0.047 A 
ATOM     16  C   UNL     1       9.695   0.590  22.583  0.00  0.00    -0.036 A 
ATOM     17  C   UNL     1       8.834   1.258  21.690  0.00  0.00    +0.004 A 
ATOM     18  C   UNL     1       8.365   2.545  21.960  0.00  0.00    +0.000 A 
ATOM     19  C   UNL     1       8.764   3.197  23.118  0.00  0.00    +0.000 A 
ATOM     20  C   UNL     1       9.630   2.562  24.005  0.00  0.00    +0.003 A 
ENDBRANCH  13  16
ENDBRANCH   9  13
ENDBRANCH   1  10
BRANCH   5  21
ATOM     21  S   UNL     1       4.592  -6.223  25.116  0.00  0.00    +0.059 S 
ATOM     22  O   UNL     1       4.435  -7.370  24.256  0.00  0.00    -0.153 OA
ATOM     23  O   UNL     1       3.441  -5.643  25.778  0.00  0.00    -0.153 OA
BRANCH  21  24
ATOM     24  N   UNL     1       5.627  -6.720  26.381  0.00  0.00    -0.179 NA
ATOM     25  H   UNL     1       6.528  -6.268  26.179  0.00  0.00    +0.149 HD
BRANCH  24  26
ATOM     26  C   UNL     1       5.115  -6.432  27.758  0.00  0.00    +0.226 C 
BRANCH  26  27
ATOM     27  C   UNL     1       6.271  -5.988  28.643  0.00  0.00    +0.320 C 
ATOM     28  O   UNL     1       6.166  -5.648  29.812  0.00  0.00    -0.250 OA
BRANCH  27  29
ATOM     29  O   UNL     1       7.464  -6.043  27.994  0.00  0.00    -0.480 OA
ATOM     30  H   UNL     1       7.795  -6.969  28.014  0.00  0.00    +0.295 HD
ENDBRANCH  27  29
ENDBRANCH  26  27
ENDBRANCH  24  26
ENDBRANCH  21  24
ENDBRANCH   5  21
TORSDOF 8
ENDMDL
MODEL 3
REMARK VINA RESULT:      -7.4      2.383      3.405
REMARK  Name = 
REMARK  11 active torsions:
REMARK  status: ('A' for Active; 'I' for Inactive)
REMARK    1  A    between atoms: C_1  and  C_2
REMARK    2  A    between atoms: C_7  and  C_8
REMARK    3  A    between atoms: C_8  and  C_9
REMARK    4  A    between atoms: N_11  and  C_12
REMARK    5  A    between atoms: C_14  and  C_15
REMARK    6  A    between atoms: C_16  and  S_20
REMARK    7  A    between atoms: C_17  and  C_18
REMARK    8  A    between atoms: S_20  and  N_23
REMARK    9  A    between atoms: N_23  and  C_24
REMARK   10  A    between atoms: C_24  and  C_25
REMARK   11  A    between atoms: C_25  and  O_26
REMARK                            x       y       z     vdW  Elec       q    Type
REMARK                         _______ _______ _______ _____ _____    ______ ____
ROOT
ATOM      1  C   UNL     1       7.217  -2.938  22.751  0.00  0.00    +0.034 A 
ATOM      2  C   UNL     1       6.302  -2.620  23.757  0.00  0.00    +0.028 A 
ATOM      3  C   UNL     1       5.356  -3.561  24.239  0.00  0.00    -0.022 A 
ATOM      4  C   UNL     1       4.390  -3.045  25.274  0.00  0.00    +0.046 C 
ATOM      5  C   UNL     1       5.330  -4.866  23.682  0.00  0.00    +0.111 A 
ATOM      6  C   UNL     1       6.293  -5.215  22.704  0.00  0.00    -0.022 A 
ATOM      7  C   UNL     1       6.388  -6.562  22.038  0.00  0.00    +0.046 C 
ATOM      8  C   UNL     1       7.220  -4.242  22.266  0.00  0.00    +0.028 A 
ENDROOT
BRANCH   1  10
ATOM      9  C   UNL     1       9.427  -1.766  22.617  0.00  0.00    +0.222 C 
ATOM     10  N   UNL     1       8.086  -1.923  22.279  0.00  0.00    -0.285 N 
ATOM     11  H   UNL     1       7.737  -1.336  21.533  0.00  0.00    +0.155 HD
ATOM     12  O   UNL     1      10.082  -2.522  23.332  0.00  0.00    -0.275 OA
BRANCH   9  13
ATOM     13  C   UNL     1      10.081  -0.528  22.010  0.00  0.00    +0.131 C 
BRANCH  13  16
ATOM     14  C   UNL     1      10.965   0.751  24.634  0.00  0.00    +0.044 C 
ATOM     15  C   UNL     1       9.943   1.383  23.728  0.00  0.00    -0.047 A 
ATOM     16  C   UNL     1       9.523   0.787  22.518  0.00  0.00    -0.036 A 
ATOM     17  C   UNL     1       8.608   1.486  21.706  0.00  0.00    +0.004 A 
ATOM     18  C   UNL     1       8.100   2.728  22.087  0.00  0.00    +0.000 A 
ATOM     19  C   UNL     1       8.513   3.308  23.278  0.00  0.00    +0.000 A 
ATOM     20  C   UNL     1       9.433   2.643  24.088  0.00  0.00    +0.003 A 
ENDBRANCH  13  16
ENDBRANCH   9  13
ENDBRANCH   1  10
BRANCH   5  21
ATOM     21  S   UNL     1       3.983  -5.994  24.084  0.00  0.00    +0.059 S 
ATOM     22  O   UNL     1       2.963  -5.348  24.873  0.00  0.00    -0.153 OA
ATOM     23  O   UNL     1       4.575  -7.238  24.532  0.00  0.00    -0.153 OA
BRANCH  21  24
ATOM     24  N   UNL     1       3.256  -6.363  22.584  0.00  0.00    -0.179 NA
ATOM     25  H   UNL     1       3.788  -7.166  22.222  0.00  0.00    +0.149 HD
BRANCH  24  26
ATOM     26  C   UNL     1       1.781  -6.611  22.648  0.00  0.00    +0.226 C 
BRANCH  26  27
ATOM     27  C   UNL     1       1.527  -8.104  22.800  0.00  0.00    +0.320 C 
ATOM     28  O   UNL     1       1.528  -8.708  23.862  0.00  0.00    -0.250 OA
BRANCH  27  29
ATOM     29  O   UNL     1       1.258  -8.702  21.610  0.00  0.00    -0.480 OA
ATOM     30  H   UNL     1       1.143  -9.668  21.758  0.00  0.00    +0.295 HD
ENDBRANCH  27  29
ENDBRANCH  26  27
ENDBRANCH  24  26
ENDBRANCH  21  24
ENDBRANCH   5  21
TORSDOF 8
ENDMDL
MODEL 4
REMARK VINA RESULT:      -7.2      1.723      3.442
REMARK  Name = 
REMARK  11 active torsions:
REMARK  status: ('A' for Active; 'I' for Inactive)
REMARK    1  A    between atoms: C_1  and  C_2
REMARK    2  A    between atoms: C_7  and  C_8
REMARK    3  A    between atoms: C_8  and  C_9
REMARK    4  A    between atoms: N_11  and  C_12
REMARK    5  A    between atoms: C_14  and  C_15
REMARK    6  A    between atoms: C_16  and  S_20
REMARK    7  A    between atoms: C_17  and  C_18
REMARK    8  A    between atoms: S_20  and  N_23
REMARK    9  A    between atoms: N_23  and  C_24
REMARK   10  A    between atoms: C_24  and  C_25
REMARK   11  A    between atoms: C_25  and  O_26
REMARK                            x       y       z     vdW  Elec       q    Type
REMARK                         _______ _______ _______ _____ _____    ______ ____
ROOT
ATOM      1  C   UNL     1       7.100  -2.834  23.302  0.00  0.00    +0.034 A 
ATOM      2  C   UNL     1       6.876  -4.075  22.702  0.00  0.00    +0.028 A 
ATOM      3  C   UNL     1       6.053  -5.063  23.302  0.00  0.00    -0.022 A 
ATOM      4  C   UNL     1       5.968  -6.376  22.567  0.00  0.00    +0.046 C 
ATOM      5  C   UNL     1       5.441  -4.790  24.552  0.00  0.00    +0.111 A 
ATOM      6  C   UNL     1       5.614  -3.513  25.138  0.00  0.00    -0.022 A 
ATOM      7  C   UNL     1       5.015  -3.085  26.452  0.00  0.00    +0.046 C 
ATOM      8  C   UNL     1       6.437  -2.561  24.494  0.00  0.00    +0.028 A 
ENDROOT
BRANCH   1  10
ATOM      9  C   UNL     1       9.372  -1.905  22.803  0.00  0.00    +0.222 C 
ATOM     10  N   UNL     1       7.987  -1.926  22.672  0.00  0.00    -0.285 N 
ATOM     11  H   UNL     1       7.592  -1.317  21.968  0.00  0.00    +0.155 HD
ATOM     12  O   UNL     1      10.047  -2.714  23.437  0.00  0.00    -0.275 OA
BRANCH   9  13
ATOM     13  C   UNL     1      10.050  -0.755  22.065  0.00  0.00    +0.131 C 
BRANCH  13  16
ATOM     14  C   UNL     1      11.060   0.637  24.584  0.00  0.00    +0.044 C 
ATOM     15  C   UNL     1      10.062   1.271  23.653  0.00  0.00    -0.047 A 
ATOM     16  C   UNL     1       9.584   0.624  22.492  0.00  0.00    -0.036 A 
ATOM     17  C   UNL     1       8.697   1.322  21.649  0.00  0.00    +0.004 A 
ATOM     18  C   UNL     1       8.274   2.617  21.953  0.00  0.00    +0.000 A 
ATOM     19  C   UNL     1       8.743   3.247  23.097  0.00  0.00    +0.000 A 
ATOM     20  C   UNL     1       9.636   2.581  23.935  0.00  0.00    +0.003 A 
ENDBRANCH  13  16
ENDBRANCH   9  13
ENDBRANCH   1  10
BRANCH   5  21
ATOM     21  S   UNL     1       4.608  -6.107  25.457  0.00  0.00    +0.059 S 
ATOM     22  O   UNL     1       3.345  -5.667  25.999  0.00  0.00    -0.153 OA
ATOM     23  O   UNL     1       5.591  -6.738  26.314  0.00  0.00    -0.153 OA
BRANCH  21  24
ATOM     24  N   UNL     1       4.230  -7.282  24.276  0.00  0.00    -0.179 NA
ATOM     25  H   UNL     1       4.786  -8.107  24.535  0.00  0.00    +0.149 HD
BRANCH  24  26
ATOM     26  C   UNL     1       2.769  -7.575  24.130  0.00  0.00    +0.226 C 
BRANCH  26  27
ATOM     27  C   UNL     1       2.227  -6.840  22.912  0.00  0.00    +0.320 C 
ATOM     28  O   UNL     1       2.211  -5.626  22.778  0.00  0.00    -0.250 OA
BRANCH  27  29
ATOM     29  O   UNL     1       1.784  -7.694  21.953  0.00  0.00    -0.480 OA
ATOM     30  H   UNL     1       1.664  -7.196  21.113  0.00  0.00    +0.295 HD
ENDBRANCH  27  29
ENDBRANCH  26  27
ENDBRANCH  24  26
ENDBRANCH  21  24
ENDBRANCH   5  21
TORSDOF 8
ENDMDL
MODEL 5
REMARK VINA RESULT:      -7.1      1.938      3.364
REMARK  Name = 
REMARK  11 active torsions:
REMARK  status: ('A' for Active; 'I' for Inactive)
REMARK    1  A    between atoms: C_1  and  C_2
REMARK    2  A    between atoms: C_7  and  C_8
REMARK    3  A    between atoms: C_8  and  C_9
REMARK    4  A    between atoms: N_11  and  C_12
REMARK    5  A    between atoms: C_14  and  C_15
REMARK    6  A    between atoms: C_16  and  S_20
REMARK    7  A    between atoms: C_17  and  C_18
REMARK    8  A    between atoms: S_20  and  N_23
REMARK    9  A    between atoms: N_23  and  C_24
REMARK   10  A    between atoms: C_24  and  C_25
REMARK   11  A    between atoms: C_25  and  O_26
REMARK                            x       y       z     vdW  Elec       q    Type
REMARK                         _______ _______ _______ _____ _____    ______ ____
ROOT
ATOM      1  C   UNL     1       6.914  -1.620  23.517  0.00  0.00    +0.034 A 
ATOM      2  C   UNL     1       6.894  -2.918  23.002  0.00  0.00    +0.028 A 
ATOM      3  C   UNL     1       6.551  -4.039  23.802  0.00  0.00    -0.022 A 
ATOM      4  C   UNL     1       6.645  -5.380  23.120  0.00  0.00    +0.046 C 
ATOM      5  C   UNL     1       6.223  -3.843  25.168  0.00  0.00    +0.111 A 
ATOM      6  C   UNL     1       6.182  -2.525  25.682  0.00  0.00    -0.022 A 
ATOM      7  C   UNL     1       5.841  -2.171  27.106  0.00  0.00    +0.046 C 
ATOM      8  C   UNL     1       6.524  -1.442  24.840  0.00  0.00    +0.028 A 
ENDROOT
BRANCH   1  10
ATOM      9  C   UNL     1       8.637  -0.290  22.278  0.00  0.00    +0.222 C 
ATOM     10  N   UNL     1       7.331  -0.561  22.673  0.00  0.00    -0.285 N 
ATOM     11  H   UNL     1       6.602  -0.030  22.214  0.00  0.00    +0.155 HD
ATOM     12  O   UNL     1       9.627  -0.967  22.552  0.00  0.00    -0.275 OA
BRANCH   9  13
ATOM     13  C   UNL     1       8.782   0.970  21.430  0.00  0.00    +0.131 C 
BRANCH  13  16
ATOM     14  C   UNL     1       6.637   3.036  22.089  0.00  0.00    +0.044 C 
ATOM     15  C   UNL     1       8.066   3.180  22.538  0.00  0.00    -0.047 A 
ATOM     16  C   UNL     1       9.064   2.231  22.225  0.00  0.00    -0.036 A 
ATOM     17  C   UNL     1      10.360   2.421  22.743  0.00  0.00    +0.004 A 
ATOM     18  C   UNL     1      10.672   3.529  23.531  0.00  0.00    +0.000 A 
ATOM     19  C   UNL     1       9.689   4.460  23.833  0.00  0.00    +0.000 A 
ATOM     20  C   UNL     1       8.395   4.283  23.347  0.00  0.00    +0.003 A 
ENDBRANCH  13  16
ENDBRANCH   9  13
ENDBRANCH   1  10
BRANCH   5  21
ATOM     21  S   UNL     1       6.037  -5.260  26.265  0.00  0.00    +0.059 S 
ATOM     22  O   UNL     1       5.340  -6.347  25.622  0.00  0.00    -0.153 OA
ATOM     23  O   UNL     1       5.587  -4.763  27.550  0.00  0.00    -0.153 OA
BRANCH  21  24
ATOM     24  N   UNL     1       7.628  -5.817  26.538  0.00  0.00    -0.179 NA
ATOM     25  H   UNL     1       7.795  -6.516  25.802  0.00  0.00    +0.149 HD
BRANCH  24  26
ATOM     26  C   UNL     1       8.669  -4.741  26.579  0.00  0.00    +0.226 C 
BRANCH  26  27
ATOM     27  C   UNL     1       9.589  -4.884  25.376  0.00  0.00    +0.320 C 
ATOM     28  O   UNL     1       9.964  -3.961  24.668  0.00  0.00    -0.250 OA
BRANCH  27  29
ATOM     29  O   UNL     1       9.989  -6.169  25.185  0.00  0.00    -0.480 OA
ATOM     30  H   UNL     1       9.195  -6.731  25.038  0.00  0.00    +0.295 HD
ENDBRANCH  27  29
ENDBRANCH  26  27
ENDBRANCH  24  26
ENDBRANCH  21  24
ENDBRANCH   5  21
TORSDOF 8
ENDMDL
MODEL 6
REMARK VINA RESULT:      -7.0      2.342      3.834
REMARK  Name = 
REMARK  11 active torsions:
REMARK  status: ('A' for Active; 'I' for Inactive)
REMARK    1  A    between atoms: C_1  and  C_2
REMARK    2  A    between atoms: C_7  and  C_8
REMARK    3  A    between atoms: C_8  and  C_9
REMARK    4  A    between atoms: N_11  and  C_12
REMARK    5  A    between atoms: C_14  and  C_15
REMARK    6  A    between atoms: C_16  and  S_20
REMARK    7  A    between atoms: C_17  and  C_18
REMARK    8  A    between atoms: S_20  and  N_23
REMARK    9  A    between atoms: N_23  and  C_24
REMARK   10  A    between atoms: C_24  and  C_25
REMARK   11  A    between atoms: C_25  and  O_26
REMARK                            x       y       z     vdW  Elec       q    Type
REMARK                         _______ _______ _______ _____ _____    ______ ____
ROOT
ATOM      1  C   UNL     1       7.704  -4.428  24.365  0.00  0.00    +0.034 A 
ATOM      2  C   UNL     1       7.387  -4.825  25.666  0.00  0.00    +0.028 A 
ATOM      3  C   UNL     1       6.205  -5.552  25.964  0.00  0.00    -0.022 A 
ATOM      4  C   UNL     1       5.969  -5.845  27.423  0.00  0.00    +0.046 C 
ATOM      5  C   UNL     1       5.311  -5.884  24.913  0.00  0.00    +0.111 A 
ATOM      6  C   UNL     1       5.654  -5.537  23.584  0.00  0.00    -0.022 A 
ATOM      7  C   UNL     1       4.806  -5.835  22.375  0.00  0.00    +0.046 C 
ATOM      8  C   UNL     1       6.848  -4.821  23.341  0.00  0.00    +0.028 A 
ENDROOT
BRANCH   1  10
ATOM      9  C   UNL     1       8.959  -2.264  24.253  0.00  0.00    +0.222 C 
ATOM     10  N   UNL     1       8.869  -3.649  24.158  0.00  0.00    -0.285 N 
ATOM     11  H   UNL     1       9.741  -4.151  24.055  0.00  0.00    +0.155 HD
ATOM     12  O   UNL     1       8.053  -1.505  24.594  0.00  0.00    -0.275 OA
BRANCH   9  13
ATOM     13  C   UNL     1      10.332  -1.703  23.893  0.00  0.00    +0.131 C 
BRANCH  13  16
ATOM     14  C   UNL     1       9.363  -0.794  21.147  0.00  0.00    +0.044 C 
ATOM     15  C   UNL     1       9.859   0.169  22.191  0.00  0.00    -0.047 A 
ATOM     16  C   UNL     1      10.319  -0.249  23.459  0.00  0.00    -0.036 A 
ATOM     17  C   UNL     1      10.706   0.732  24.393  0.00  0.00    +0.004 A 
ATOM     18  C   UNL     1      10.663   2.091  24.078  0.00  0.00    +0.000 A 
ATOM     19  C   UNL     1      10.213   2.497  22.830  0.00  0.00    +0.000 A 
ATOM     20  C   UNL     1       9.808   1.544  21.898  0.00  0.00    +0.003 A 
ENDBRANCH  13  16
ENDBRANCH   9  13
ENDBRANCH   1  10
BRANCH   5  21
ATOM     21  S   UNL     1       3.689  -6.572  25.291  0.00  0.00    +0.059 S 
ATOM     22  O   UNL     1       2.642  -5.595  25.123  0.00  0.00    -0.153 OA
ATOM     23  O   UNL     1       3.806  -7.312  26.531  0.00  0.00    -0.153 OA
BRANCH  21  24
ATOM     24  N   UNL     1       3.425  -7.758  24.090  0.00  0.00    -0.179 NA
ATOM     25  H   UNL     1       4.080  -8.517  24.319  0.00  0.00    +0.149 HD
BRANCH  24  26
ATOM     26  C   UNL     1       2.005  -8.218  23.967  0.00  0.00    +0.226 C 
BRANCH  26  27
ATOM     27  C   UNL     1       1.447  -7.772  22.623  0.00  0.00    +0.320 C 
ATOM     28  O   UNL     1       1.208  -6.614  22.314  0.00  0.00    -0.250 OA
BRANCH  27  29
ATOM     29  O   UNL     1       1.269  -8.815  21.770  0.00  0.00    -0.480 OA
ATOM     30  H   UNL     1       0.808  -8.493  20.964  0.00  0.00    +0.295 HD
ENDBRANCH  27  29
ENDBRANCH  26  27
ENDBRANCH  24  26
ENDBRANCH  21  24
ENDBRANCH   5  21
TORSDOF 8
ENDMDL
MODEL 7
REMARK VINA RESULT:      -7.0      4.375      9.344
REMARK  Name = 
REMARK  11 active torsions:
REMARK  status: ('A' for Active; 'I' for Inactive)
REMARK    1  A    between atoms: C_1  and  C_2
REMARK    2  A    between atoms: C_7  and  C_8
REMARK    3  A    between atoms: C_8  and  C_9
REMARK    4  A    between atoms: N_11  and  C_12
REMARK    5  A    between atoms: C_14  and  C_15
REMARK    6  A    between atoms: C_16  and  S_20
REMARK    7  A    between atoms: C_17  and  C_18
REMARK    8  A    between atoms: S_20  and  N_23
REMARK    9  A    between atoms: N_23  and  C_24
REMARK   10  A    between atoms: C_24  and  C_25
REMARK   11  A    between atoms: C_25  and  O_26
REMARK                            x       y       z     vdW  Elec       q    Type
REMARK                         _______ _______ _______ _____ _____    ______ ____
ROOT
ATOM      1  C   UNL     1       8.847  -0.513  24.638  0.00  0.00    +0.034 A 
ATOM      2  C   UNL     1       9.611   0.128  23.661  0.00  0.00    +0.028 A 
ATOM      3  C   UNL     1       9.630   1.540  23.528  0.00  0.00    -0.022 A 
ATOM      4  C   UNL     1      10.447   2.077  22.380  0.00  0.00    +0.046 C 
ATOM      5  C   UNL     1       8.847   2.331  24.407  0.00  0.00    +0.111 A 
ATOM      6  C   UNL     1       8.116   1.693  25.439  0.00  0.00    -0.022 A 
ATOM      7  C   UNL     1       7.254   2.407  26.446  0.00  0.00    +0.046 C 
ATOM      8  C   UNL     1       8.139   0.283  25.533  0.00  0.00    +0.028 A 
ENDROOT
BRANCH   1  10
ATOM      9  C   UNL     1       8.304  -2.764  23.683  0.00  0.00    +0.222 C 
ATOM     10  N   UNL     1       8.829  -1.930  24.665  0.00  0.00    -0.285 N 
ATOM     11  H   UNL     1       9.355  -2.378  25.404  0.00  0.00    +0.155 HD
ATOM     12  O   UNL     1       7.830  -2.401  22.608  0.00  0.00    -0.275 OA
BRANCH   9  13
ATOM     13  C   UNL     1       8.358  -4.249  24.033  0.00  0.00    +0.131 C 
BRANCH  13  16
ATOM     14  C   UNL     1       7.041  -5.793  21.756  0.00  0.00    +0.044 C 
ATOM     15  C   UNL     1       6.397  -5.635  23.107  0.00  0.00    -0.047 A 
ATOM     16  C   UNL     1       6.999  -4.911  24.160  0.00  0.00    -0.036 A 
ATOM     17  C   UNL     1       6.348  -4.872  25.408  0.00  0.00    +0.004 A 
ATOM     18  C   UNL     1       5.124  -5.510  25.609  0.00  0.00    +0.000 A 
ATOM     19  C   UNL     1       4.534  -6.217  24.571  0.00  0.00    +0.000 A 
ATOM     20  C   UNL     1       5.170  -6.285  23.333  0.00  0.00    +0.003 A 
ENDBRANCH  13  16
ENDBRANCH   9  13
ENDBRANCH   1  10
BRANCH   5  21
ATOM     21  S   UNL     1       8.648   4.096  24.102  0.00  0.00    +0.059 S 
ATOM     22  O   UNL     1       8.616   4.850  25.331  0.00  0.00    -0.153 OA
ATOM     23  O   UNL     1       7.594   4.253  23.120  0.00  0.00    -0.153 OA
BRANCH  21  24
ATOM     24  N   UNL     1      10.078   4.567  23.296  0.00  0.00    -0.179 NA
ATOM     25  H   UNL     1       9.812   4.639  22.305  0.00  0.00    +0.149 HD
BRANCH  24  26
ATOM     26  C   UNL     1      10.717   5.811  23.830  0.00  0.00    +0.226 C 
BRANCH  26  27
ATOM     27  C   UNL     1      12.226   5.619  23.885  0.00  0.00    +0.320 C 
ATOM     28  O   UNL     1      12.856   4.835  23.190  0.00  0.00    -0.250 OA
BRANCH  27  29
ATOM     29  O   UNL     1      12.817   6.452  24.781  0.00  0.00    -0.480 OA
ATOM     30  H   UNL     1      13.747   6.609  24.504  0.00  0.00    +0.295 HD
ENDBRANCH  27  29
ENDBRANCH  26  27
ENDBRANCH  24  26
ENDBRANCH  21  24
ENDBRANCH   5  21
TORSDOF 8
ENDMDL
MODEL 8
REMARK VINA RESULT:      -6.9      4.266      9.060
REMARK  Name = 
REMARK  11 active torsions:
REMARK  status: ('A' for Active; 'I' for Inactive)
REMARK    1  A    between atoms: C_1  and  C_2
REMARK    2  A    between atoms: C_7  and  C_8
REMARK    3  A    between atoms: C_8  and  C_9
REMARK    4  A    between atoms: N_11  and  C_12
REMARK    5  A    between atoms: C_14  and  C_15
REMARK    6  A    between atoms: C_16  and  S_20
REMARK    7  A    between atoms: C_17  and  C_18
REMARK    8  A    between atoms: S_20  and  N_23
REMARK    9  A    between atoms: N_23  and  C_24
REMARK   10  A    between atoms: C_24  and  C_25
REMARK   11  A    between atoms: C_25  and  O_26
REMARK                            x       y       z     vdW  Elec       q    Type
REMARK                         _______ _______ _______ _____ _____    ______ ____
ROOT
ATOM      1  C   UNL     1       8.429  -0.786  24.367  0.00  0.00    +0.034 A 
ATOM      2  C   UNL     1       7.284  -0.023  24.127  0.00  0.00    +0.028 A 
ATOM      3  C   UNL     1       7.348   1.374  23.887  0.00  0.00    -0.022 A 
ATOM      4  C   UNL     1       6.021   2.068  23.716  0.00  0.00    +0.046 C 
ATOM      5  C   UNL     1       8.609   2.023  23.895  0.00  0.00    +0.111 A 
ATOM      6  C   UNL     1       9.780   1.247  24.078  0.00  0.00    -0.022 A 
ATOM      7  C   UNL     1      11.180   1.802  24.099  0.00  0.00    +0.046 C 
ATOM      8  C   UNL     1       9.661  -0.143  24.304  0.00  0.00    +0.028 A 
ENDROOT
BRANCH   1  10
ATOM      9  C   UNL     1       9.152  -3.183  24.302  0.00  0.00    +0.222 C 
ATOM     10  N   UNL     1       8.278  -2.163  24.664  0.00  0.00    -0.285 N 
ATOM     11  H   UNL     1       7.533  -2.413  25.302  0.00  0.00    +0.155 HD
ATOM     12  O   UNL     1      10.226  -3.037  23.721  0.00  0.00    -0.275 OA
BRANCH   9  13
ATOM     13  C   UNL     1       8.677  -4.579  24.694  0.00  0.00    +0.131 C 
BRANCH  13  16
ATOM     14  C   UNL     1       5.987  -5.071  26.044  0.00  0.00    +0.044 C 
ATOM     15  C   UNL     1       6.202  -5.273  24.569  0.00  0.00    -0.047 A 
ATOM     16  C   UNL     1       7.450  -5.057  23.942  0.00  0.00    -0.036 A 
ATOM     17  C   UNL     1       7.537  -5.212  22.545  0.00  0.00    +0.004 A 
ATOM     18  C   UNL     1       6.430  -5.592  21.785  0.00  0.00    +0.000 A 
ATOM     19  C   UNL     1       5.208  -5.807  22.406  0.00  0.00    +0.000 A 
ATOM     20  C   UNL     1       5.094  -5.641  23.784  0.00  0.00    +0.003 A 
ENDBRANCH  13  16
ENDBRANCH   9  13
ENDBRANCH   1  10
BRANCH   5  21
ATOM     21  S   UNL     1       8.700   3.822  23.852  0.00  0.00    +0.059 S 
ATOM     22  O   UNL     1       8.561   4.395  25.168  0.00  0.00    -0.153 OA
ATOM     23  O   UNL     1       7.858   4.277  22.764  0.00  0.00    -0.153 OA
BRANCH  21  24
ATOM     24  N   UNL     1      10.296   4.170  23.353  0.00  0.00    -0.179 NA
ATOM     25  H   UNL     1      10.295   4.014  22.336  0.00  0.00    +0.149 HD
BRANCH  24  26
ATOM     26  C   UNL     1      10.793   5.527  23.744  0.00  0.00    +0.226 C 
BRANCH  26  27
ATOM     27  C   UNL     1      12.314   5.520  23.764  0.00  0.00    +0.320 C 
ATOM     28  O   UNL     1      13.021   4.865  23.012  0.00  0.00    -0.250 OA
BRANCH  27  29
ATOM     29  O   UNL     1      12.819   6.364  24.702  0.00  0.00    -0.480 OA
ATOM     30  H   UNL     1      12.193   7.111  24.828  0.00  0.00    +0.295 HD
ENDBRANCH  27  29
ENDBRANCH  26  27
ENDBRANCH  24  26
ENDBRANCH  21  24
ENDBRANCH   5  21
TORSDOF 8
ENDMDL
MODEL 9
REMARK VINA RESULT:      -6.9      1.867      3.011
REMARK  Name = 
REMARK  11 active torsions:
REMARK  status: ('A' for Active; 'I' for Inactive)
REMARK    1  A    between atoms: C_1  and  C_2
REMARK    2  A    between atoms: C_7  and  C_8
REMARK    3  A    between atoms: C_8  and  C_9
REMARK    4  A    between atoms: N_11  and  C_12
REMARK    5  A    between atoms: C_14  and  C_15
REMARK    6  A    between atoms: C_16  and  S_20
REMARK    7  A    between atoms: C_17  and  C_18
REMARK    8  A    between atoms: S_20  and  N_23
REMARK    9  A    between atoms: N_23  and  C_24
REMARK   10  A    between atoms: C_24  and  C_25
REMARK   11  A    between atoms: C_25  and  O_26
REMARK                            x       y       z     vdW  Elec       q    Type
REMARK                         _______ _______ _______ _____ _____    ______ ____
ROOT
ATOM      1  C   UNL     1       8.044  -2.048  24.328  0.00  0.00    +0.034 A 
ATOM      2  C   UNL     1       7.062  -1.711  25.261  0.00  0.00    +0.028 A 
ATOM      3  C   UNL     1       6.618  -2.626  26.250  0.00  0.00    -0.022 A 
ATOM      4  C   UNL     1       5.503  -2.138  27.138  0.00  0.00    +0.046 C 
ATOM      5  C   UNL     1       7.181  -3.928  26.294  0.00  0.00    +0.111 A 
ATOM      6  C   UNL     1       8.219  -4.258  25.390  0.00  0.00    -0.022 A 
ATOM      7  C   UNL     1       8.911  -5.595  25.331  0.00  0.00    +0.046 C 
ATOM      8  C   UNL     1       8.631  -3.306  24.430  0.00  0.00    +0.028 A 
ENDROOT
BRANCH   1  10
ATOM      9  C   UNL     1       9.542  -0.328  23.294  0.00  0.00    +0.222 C 
ATOM     10  N   UNL     1       8.387  -1.102  23.330  0.00  0.00    -0.285 N 
ATOM     11  H   UNL     1       7.801  -1.076  22.506  0.00  0.00    +0.155 HD
ATOM     12  O   UNL     1      10.476  -0.392  24.091  0.00  0.00    -0.275 OA
BRANCH   9  13
ATOM     13  C   UNL     1       9.592   0.663  22.134  0.00  0.00    +0.131 C 
BRANCH  13  16
ATOM     14  C   UNL     1      10.776   3.078  23.573  0.00  0.00    +0.044 C 
ATOM     15  C   UNL     1       9.373   3.066  23.030  0.00  0.00    -0.047 A 
ATOM     16  C   UNL     1       8.818   1.945  22.373  0.00  0.00    -0.036 A 
ATOM     17  C   UNL     1       7.517   2.050  21.844  0.00  0.00    +0.004 A 
ATOM     18  C   UNL     1       6.771   3.223  21.977  0.00  0.00    +0.000 A 
ATOM     19  C   UNL     1       7.319   4.320  22.626  0.00  0.00    +0.000 A 
ATOM     20  C   UNL     1       8.612   4.244  23.141  0.00  0.00    +0.003 A 
ENDBRANCH  13  16
ENDBRANCH   9  13
ENDBRANCH   1  10
BRANCH   5  21
ATOM     21  S   UNL     1       6.461  -5.188  27.362  0.00  0.00    +0.059 S 
ATOM     22  O   UNL     1       5.385  -4.659  28.163  0.00  0.00    -0.153 OA
ATOM     23  O   UNL     1       7.553  -5.906  27.988  0.00  0.00    -0.153 OA
BRANCH  21  24
ATOM     24  N   UNL     1       5.745  -6.313  26.294  0.00  0.00    -0.179 NA
ATOM     25  H   UNL     1       5.315  -7.021  26.904  0.00  0.00    +0.149 HD
BRANCH  24  26
ATOM     26  C   UNL     1       4.787  -5.718  25.309  0.00  0.00    +0.226 C 
BRANCH  26  27
ATOM     27  C   UNL     1       5.053  -6.304  23.930  0.00  0.00    +0.320 C 
ATOM     28  O   UNL     1       5.757  -5.788  23.075  0.00  0.00    -0.250 OA
BRANCH  27  29
ATOM     29  O   UNL     1       4.442  -7.505  23.756  0.00  0.00    -0.480 OA
ATOM     30  H   UNL     1       3.552  -7.473  24.173  0.00  0.00    +0.295 HD
ENDBRANCH  27  29
ENDBRANCH  26  27
ENDBRANCH  24  26
ENDBRANCH  21  24
ENDBRANCH   5  21
TORSDOF 8
ENDMDL
