MODEL 1
REMARK VINA RESULT:      -6.5      0.000      0.000
REMARK  Name = 
REMARK  19 active torsions:
REMARK  status: ('A' for Active; 'I' for Inactive)
REMARK    1  A    between atoms: N_1  and  C_2
REMARK    2  A    between atoms: C_5  and  N_7
REMARK    3  A    between atoms: C_8  and  C_10
REMARK    4  A    between atoms: C_10  and  C_11
REMARK    5  A    between atoms: C_11  and  C_12
REMARK    6  A    between atoms: C_12  and  C_13
REMARK    7  A    between atoms: C_13  and  C_15
REMARK    8  A    between atoms: C_13  and  C_34
REMARK    9  A    between atoms: C_18  and  C_21
REMARK   10  A    between atoms: N_23  and  CA_24
REMARK   11  A    between atoms: CA_24  and  CB_26
REMARK   12  A    between atoms: CA_24  and  C_31
REMARK   13  A    between atoms: CB_26  and  CG_27
REMARK   14  A    between atoms: CG_27  and  CD_28
REMARK   15  A    between atoms: CD_28  and  OE1_29
REMARK   16  A    between atoms: C_31  and  O_32
REMARK   17  A    between atoms: C_34  and  O_35
REMARK   18  A    between atoms: C_34  and  O_36
REMARK   19  A    between atoms: C_34  and  C_37
REMARK                            x       y       z     vdW  Elec       q    Type
REMARK                         _______ _______ _______ _____ _____    ______ ____
ROOT
ATOM      1  C   UNK A   0       8.817   3.117  24.597  0.00  0.00    +0.112 C 
ENDROOT
BRANCH   1   2
ATOM      2  C   UNK A   0       8.961   1.597  24.430  0.00  0.00    -0.037 A 
ATOM      3  C   UNK A   0      10.078   0.942  24.986  0.00  0.00    +0.005 A 
ATOM      4  C   UNK A   0      10.189  -0.456  24.963  0.00  0.00    +0.013 A 
ATOM      5  C   UNK A   0       9.176  -1.230  24.390  0.00  0.00    +0.037 A 
ATOM      6  C   UNK A   0       8.097  -0.591  23.780  0.00  0.00    +0.013 A 
ATOM      7  C   UNK A   0       7.991   0.806  23.795  0.00  0.00    +0.005 A 
BRANCH   5   8
ATOM      8  C   UNK A   0       9.179  -2.724  24.446  0.00  0.00    +0.245 C 
ATOM      9  N   GLU A   1       8.013  -3.314  24.897  0.00  0.00    -0.298 N 
ATOM     10  H   GLU A   1       7.199  -2.733  25.072  0.00  0.00    +0.150 HD
ATOM     11  O   UNK A   0      10.132  -3.364  24.029  0.00  0.00    -0.270 OA
BRANCH   9  12
ATOM     12  CA  GLU A   1       7.763  -4.757  24.758  0.00  0.00    +0.182 C 
BRANCH  12  13
ATOM     13  C   GLU A   1       7.379  -5.268  26.155  0.00  0.00    +0.325 C 
ATOM     14  OXT GLU A   1       6.305  -5.079  26.705  0.00  0.00    -0.249 OA
BRANCH  13  15
ATOM     15  O   GLU A   1       8.375  -5.993  26.726  0.00  0.00    -0.479 OA
ATOM     16  H   GLU A   1       9.248  -5.569  26.592  0.00  0.00    +0.295 HD
ENDBRANCH  13  15
ENDBRANCH  12  13
BRANCH  12  17
ATOM     17  CB  GLU A   1       6.674  -5.081  23.725  0.00  0.00    +0.045 C 
BRANCH  17  18
ATOM     18  CG  GLU A   1       7.030  -4.625  22.313  0.00  0.00    +0.123 C 
BRANCH  18  19
ATOM     19  CD  GLU A   1       6.040  -3.614  21.801  0.00  0.00    +0.305 C 
ATOM     20  OE2 GLU A   1       5.616  -3.612  20.651  0.00  0.00    -0.251 OA
BRANCH  19  21
ATOM     21  OE1 GLU A   1       5.675  -2.695  22.716  0.00  0.00    -0.481 OA
ATOM     22  HE1 GLU A   1       5.904  -1.771  22.487  0.00  0.00    +0.295 HD
ENDBRANCH  19  21
ENDBRANCH  18  19
ENDBRANCH  17  18
ENDBRANCH  12  17
ENDBRANCH   9  12
ENDBRANCH   5   8
ENDBRANCH   1   2
BRANCH   1  23
ATOM     23  C   UNK A   0       9.355   3.953  23.395  0.00  0.00    +0.343 C 
BRANCH  23  24
ATOM     24  C   UNK A   0      10.086   5.283  23.816  0.00  0.00    +0.468 C 
ATOM     25  F   UNK A   0      11.429   5.122  23.673  0.00  0.00    -0.164 F 
ATOM     26  F   UNK A   0       9.866   5.599  25.113  0.00  0.00    -0.164 F 
ATOM     27  F   UNK A   0       9.730   6.356  23.084  0.00  0.00    -0.164 F 
ENDBRANCH  23  24
BRANCH  23  28
ATOM     28  O   UNK A   0       8.238   4.199  22.518  0.00  0.00    -0.499 OA
ATOM     29  H   UNK A   0       8.534   3.970  21.614  0.00  0.00    +0.288 HD
ENDBRANCH  23  28
BRANCH  23  30
ATOM     30  O   UNK A   0      10.244   3.133  22.612  0.00  0.00    -0.499 OA
ATOM     31  H   UNK A   0      10.021   3.258  21.676  0.00  0.00    +0.288 HD
ENDBRANCH  23  30
ENDBRANCH   1  23
BRANCH   1  32
ATOM     32  C   UNK A   0       7.410   3.584  25.073  0.00  0.00    +0.016 C 
BRANCH  32  33
ATOM     33  C   UNK A   0       7.372   3.688  26.601  0.00  0.00    +0.002 C 
BRANCH  33  34
ATOM     34  C   UNK A   0       6.347   2.768  27.268  0.00  0.00    +0.015 C 
BRANCH  34  40
ATOM     35  C   UNK A   0       5.026  -1.298  26.471  0.00  0.00    +0.212 C 
ATOM     36  N   UNK A   0       6.305  -1.038  27.006  0.00  0.00    -0.287 N 
ATOM     37  H   UNK A   0       6.854  -1.767  27.455  0.00  0.00    +0.151 HD
ATOM     38  C   UNK A   0       6.801   0.271  27.235  0.00  0.00    +0.221 C 
ATOM     39  O   UNK A   0       7.776   0.378  27.962  0.00  0.00    -0.275 OA
ATOM     40  C   UNK A   0       6.170   1.434  26.503  0.00  0.00    +0.106 C 
ATOM     41  C   UNK A   0       4.714   1.104  26.205  0.00  0.00    +0.133 C 
ATOM     42  N   UNK A   0       4.553  -0.216  25.682  0.00  0.00    -0.270 NA
ATOM     43  H   UNK A   0       3.936  -0.387  24.900  0.00  0.00    +0.126 HD
BRANCH  41  44
ATOM     44  N   UNK A   0       4.161   1.978  25.208  0.00  0.00    -0.315 NA
ATOM     45  H   UNK A   0       4.215   1.603  24.262  0.00  0.00    +0.120 HD
ATOM     46  H   UNK A   0       3.206   2.266  25.398  0.00  0.00    +0.120 HD
ENDBRANCH  41  44
BRANCH  35  47
ATOM     47  N   UNK A   0       5.058  -2.458  25.653  0.00  0.00    -0.300 NA
ATOM     48  H   UNK A   0       5.761  -3.181  25.787  0.00  0.00    +0.121 HD
ATOM     49  H   UNK A   0       4.561  -2.515  24.767  0.00  0.00    +0.121 HD
ENDBRANCH  35  47
ENDBRANCH  34  40
ENDBRANCH  33  34
ENDBRANCH  32  33
ENDBRANCH   1  32
TORSDOF 19
ENDMDL
MODEL 2
REMARK VINA RESULT:      -6.3      4.340      8.129
REMARK  Name = 
REMARK  19 active torsions:
REMARK  status: ('A' for Active; 'I' for Inactive)
REMARK    1  A    between atoms: N_1  and  C_2
REMARK    2  A    between atoms: C_5  and  N_7
REMARK    3  A    between atoms: C_8  and  C_10
REMARK    4  A    between atoms: C_10  and  C_11
REMARK    5  A    between atoms: C_11  and  C_12
REMARK    6  A    between atoms: C_12  and  C_13
REMARK    7  A    between atoms: C_13  and  C_15
REMARK    8  A    between atoms: C_13  and  C_34
REMARK    9  A    between atoms: C_18  and  C_21
REMARK   10  A    between atoms: N_23  and  CA_24
REMARK   11  A    between atoms: CA_24  and  CB_26
REMARK   12  A    between atoms: CA_24  and  C_31
REMARK   13  A    between atoms: CB_26  and  CG_27
REMARK   14  A    between atoms: CG_27  and  CD_28
REMARK   15  A    between atoms: CD_28  and  OE1_29
REMARK   16  A    between atoms: C_31  and  O_32
REMARK   17  A    between atoms: C_34  and  O_35
REMARK   18  A    between atoms: C_34  and  O_36
REMARK   19  A    between atoms: C_34  and  C_37
REMARK                            x       y       z     vdW  Elec       q    Type
REMARK                         _______ _______ _______ _____ _____    ______ ____
ROOT
ATOM      1  C   UNK A   0       7.075  -2.102  24.367  0.00  0.00    +0.112 C 
ENDROOT
BRANCH   1   2
ATOM      2  C   UNK A   0       7.018  -0.650  24.868  0.00  0.00    -0.037 A 
ATOM      3  C   UNK A   0       7.457  -0.350  26.172  0.00  0.00    +0.005 A 
ATOM      4  C   UNK A   0       7.536   0.974  26.628  0.00  0.00    +0.013 A 
ATOM      5  C   UNK A   0       7.185   2.029  25.781  0.00  0.00    +0.037 A 
ATOM      6  C   UNK A   0       6.688   1.741  24.510  0.00  0.00    +0.013 A 
ATOM      7  C   UNK A   0       6.600   0.418  24.059  0.00  0.00    +0.005 A 
BRANCH   5   8
ATOM      8  C   UNK A   0       7.365   3.462  26.166  0.00  0.00    +0.245 C 
ATOM      9  N   GLU A   1       7.411   4.368  25.122  0.00  0.00    -0.298 N 
ATOM     10  H   GLU A   1       7.229   4.044  24.177  0.00  0.00    +0.150 HD
ATOM     11  O   UNK A   0       7.379   3.798  27.340  0.00  0.00    -0.270 OA
BRANCH   9  12
ATOM     12  CA  GLU A   1       7.315   5.819  25.341  0.00  0.00    +0.182 C 
BRANCH  12  13
ATOM     13  C   GLU A   1       8.754   6.333  25.492  0.00  0.00    +0.325 C 
ATOM     14  OXT GLU A   1       9.428   6.256  26.508  0.00  0.00    -0.249 OA
BRANCH  13  15
ATOM     15  O   GLU A   1       9.226   6.878  24.342  0.00  0.00    -0.479 OA
ATOM     16  H   GLU A   1      10.156   6.615  24.177  0.00  0.00    +0.295 HD
ENDBRANCH  13  15
ENDBRANCH  12  13
BRANCH  12  17
ATOM     17  CB  GLU A   1       6.576   6.549  24.210  0.00  0.00    +0.045 C 
BRANCH  17  18
ATOM     18  CG  GLU A   1       6.005   5.605  23.156  0.00  0.00    +0.123 C 
BRANCH  18  19
ATOM     19  CD  GLU A   1       7.067   5.163  22.187  0.00  0.00    +0.305 C 
ATOM     20  OE2 GLU A   1       7.246   3.991  21.874  0.00  0.00    -0.251 OA
BRANCH  19  21
ATOM     21  OE1 GLU A   1       7.822   6.171  21.707  0.00  0.00    -0.481 OA
ATOM     22  HE1 GLU A   1       7.729   7.019  22.186  0.00  0.00    +0.295 HD
ENDBRANCH  19  21
ENDBRANCH  18  19
ENDBRANCH  17  18
ENDBRANCH  12  17
ENDBRANCH   9  12
ENDBRANCH   5   8
ENDBRANCH   1   2
BRANCH   1  23
ATOM     23  C   UNK A   0       5.681  -2.773  24.172  0.00  0.00    +0.343 C 
BRANCH  23  24
ATOM     24  C   UNK A   0       5.640  -4.293  24.584  0.00  0.00    +0.468 C 
ATOM     25  F   UNK A   0       4.350  -4.665  24.804  0.00  0.00    -0.164 F 
ATOM     26  F   UNK A   0       6.318  -4.532  25.730  0.00  0.00    -0.164 F 
ATOM     27  F   UNK A   0       6.144  -5.124  23.650  0.00  0.00    -0.164 F 
ENDBRANCH  23  24
BRANCH  23  28
ATOM     28  O   UNK A   0       5.303  -2.570  22.796  0.00  0.00    -0.499 OA
ATOM     29  H   UNK A   0       4.964  -3.427  22.469  0.00  0.00    +0.288 HD
ENDBRANCH  23  28
BRANCH  23  30
ATOM     30  O   UNK A   0       4.695  -2.038  24.922  0.00  0.00    -0.499 OA
ATOM     31  H   UNK A   0       5.163  -1.480  25.564  0.00  0.00    +0.288 HD
ENDBRANCH  23  30
ENDBRANCH   1  23
BRANCH   1  32
ATOM     32  C   UNK A   0       8.029  -2.330  23.158  0.00  0.00    +0.016 C 
BRANCH  32  33
ATOM     33  C   UNK A   0       9.490  -2.291  23.616  0.00  0.00    +0.002 C 
BRANCH  33  34
ATOM     34  C   UNK A   0      10.361  -1.292  22.852  0.00  0.00    +0.015 C 
BRANCH  34  40
ATOM     35  C   UNK A   0      10.552   3.051  22.923  0.00  0.00    +0.212 C 
ATOM     36  N   UNK A   0      10.758   2.293  24.094  0.00  0.00    -0.287 N 
ATOM     37  H   UNK A   0      11.200   2.693  24.918  0.00  0.00    +0.151 HD
ATOM     38  C   UNK A   0      10.656   0.879  24.133  0.00  0.00    +0.221 C 
ATOM     39  O   UNK A   0      11.136   0.312  25.102  0.00  0.00    -0.275 OA
ATOM     40  C   UNK A   0       9.885   0.168  23.043  0.00  0.00    +0.106 C 
ATOM     41  C   UNK A   0       9.957   0.991  21.765  0.00  0.00    +0.133 C 
ATOM     42  N   UNK A   0       9.708   2.379  21.999  0.00  0.00    -0.270 NA
ATOM     43  H   UNK A   0       9.111   2.906  21.377  0.00  0.00    +0.126 HD
BRANCH  41  44
ATOM     44  N   UNK A   0       8.964   0.583  20.810  0.00  0.00    -0.315 NA
ATOM     45  H   UNK A   0       8.997  -0.411  20.588  0.00  0.00    +0.120 HD
ATOM     46  H   UNK A   0       8.016   0.836  21.069  0.00  0.00    +0.120 HD
ENDBRANCH  41  44
BRANCH  35  47
ATOM     47  N   UNK A   0       9.952   4.299  23.239  0.00  0.00    -0.300 NA
ATOM     48  H   UNK A   0       9.798   5.007  22.525  0.00  0.00    +0.121 HD
ATOM     49  H   UNK A   0       9.874   4.641  24.193  0.00  0.00    +0.121 HD
ENDBRANCH  35  47
ENDBRANCH  34  40
ENDBRANCH  33  34
ENDBRANCH  32  33
ENDBRANCH   1  32
TORSDOF 19
ENDMDL
MODEL 3
REMARK VINA RESULT:      -6.0      1.326      1.617
REMARK  Name = 
REMARK  19 active torsions:
REMARK  status: ('A' for Active; 'I' for Inactive)
REMARK    1  A    between atoms: N_1  and  C_2
REMARK    2  A    between atoms: C_5  and  N_7
REMARK    3  A    between atoms: C_8  and  C_10
REMARK    4  A    between atoms: C_10  and  C_11
REMARK    5  A    between atoms: C_11  and  C_12
REMARK    6  A    between atoms: C_12  and  C_13
REMARK    7  A    between atoms: C_13  and  C_15
REMARK    8  A    between atoms: C_13  and  C_34
REMARK    9  A    between atoms: C_18  and  C_21
REMARK   10  A    between atoms: N_23  and  CA_24
REMARK   11  A    between atoms: CA_24  and  CB_26
REMARK   12  A    between atoms: CA_24  and  C_31
REMARK   13  A    between atoms: CB_26  and  CG_27
REMARK   14  A    between atoms: CG_27  and  CD_28
REMARK   15  A    between atoms: CD_28  and  OE1_29
REMARK   16  A    between atoms: C_31  and  O_32
REMARK   17  A    between atoms: C_34  and  O_35
REMARK   18  A    between atoms: C_34  and  O_36
REMARK   19  A    between atoms: C_34  and  C_37
REMARK                            x       y       z     vdW  Elec       q    Type
REMARK                         _______ _______ _______ _____ _____    ______ ____
ROOT
ATOM      1  C   UNK A   0       8.326   3.047  24.423  0.00  0.00    +0.112 C 
ENDROOT
BRANCH   1   2
ATOM      2  C   UNK A   0       8.601   1.542  24.283  0.00  0.00    -0.037 A 
ATOM      3  C   UNK A   0       9.788   1.002  24.816  0.00  0.00    +0.005 A 
ATOM      4  C   UNK A   0      10.023  -0.380  24.818  0.00  0.00    +0.013 A 
ATOM      5  C   UNK A   0       9.067  -1.255  24.293  0.00  0.00    +0.037 A 
ATOM      6  C   UNK A   0       7.916  -0.728  23.706  0.00  0.00    +0.013 A 
ATOM      7  C   UNK A   0       7.687   0.654  23.695  0.00  0.00    +0.005 A 
BRANCH   5   8
ATOM      8  C   UNK A   0       9.205  -2.741  24.380  0.00  0.00    +0.245 C 
ATOM      9  N   GLU A   1       8.105  -3.423  24.867  0.00  0.00    -0.298 N 
ATOM     10  H   GLU A   1       7.245  -2.913  25.048  0.00  0.00    +0.150 HD
ATOM     11  O   UNK A   0      10.203  -3.302  23.956  0.00  0.00    -0.270 OA
BRANCH   9  12
ATOM     12  CA  GLU A   1       7.983  -4.885  24.763  0.00  0.00    +0.182 C 
BRANCH  12  13
ATOM     13  C   GLU A   1       7.655  -5.396  26.174  0.00  0.00    +0.325 C 
ATOM     14  OXT GLU A   1       6.592  -5.892  26.515  0.00  0.00    -0.249 OA
BRANCH  13  15
ATOM     15  O   GLU A   1       8.703  -5.257  27.026  0.00  0.00    -0.479 OA
ATOM     16  H   GLU A   1       9.306  -6.028  26.980  0.00  0.00    +0.295 HD
ENDBRANCH  13  15
ENDBRANCH  12  13
BRANCH  12  17
ATOM     17  CB  GLU A   1       6.920  -5.327  23.747  0.00  0.00    +0.045 C 
BRANCH  17  18
ATOM     18  CG  GLU A   1       7.321  -5.055  22.300  0.00  0.00    +0.123 C 
BRANCH  18  19
ATOM     19  CD  GLU A   1       6.117  -4.763  21.447  0.00  0.00    +0.305 C 
ATOM     20  OE2 GLU A   1       5.319  -3.865  21.695  0.00  0.00    -0.251 OA
BRANCH  19  21
ATOM     21  OE1 GLU A   1       5.980  -5.591  20.393  0.00  0.00    -0.481 OA
ATOM     22  HE1 GLU A   1       6.511  -5.349  19.607  0.00  0.00    +0.295 HD
ENDBRANCH  19  21
ENDBRANCH  18  19
ENDBRANCH  17  18
ENDBRANCH  12  17
ENDBRANCH   9  12
ENDBRANCH   5   8
ENDBRANCH   1   2
BRANCH   1  23
ATOM     23  C   UNK A   0       8.490   3.859  23.102  0.00  0.00    +0.343 C 
BRANCH  23  24
ATOM     24  C   UNK A   0       7.132   4.381  22.499  0.00  0.00    +0.468 C 
ATOM     25  F   UNK A   0       7.394   5.279  21.511  0.00  0.00    -0.164 F 
ATOM     26  F   UNK A   0       6.375   5.021  23.420  0.00  0.00    -0.164 F 
ATOM     27  F   UNK A   0       6.363   3.411  21.966  0.00  0.00    -0.164 F 
ENDBRANCH  23  24
BRANCH  23  28
ATOM     28  O   UNK A   0       9.211   3.020  22.177  0.00  0.00    -0.499 OA
ATOM     29  H   UNK A   0       9.762   3.615  21.630  0.00  0.00    +0.288 HD
ENDBRANCH  23  28
BRANCH  23  30
ATOM     30  O   UNK A   0       9.378   4.969  23.338  0.00  0.00    -0.499 OA
ATOM     31  H   UNK A   0       9.526   5.419  22.491  0.00  0.00    +0.288 HD
ENDBRANCH  23  30
ENDBRANCH   1  23
BRANCH   1  32
ATOM     32  C   UNK A   0       7.015   3.396  25.186  0.00  0.00    +0.016 C 
BRANCH  32  33
ATOM     33  C   UNK A   0       7.249   3.347  26.699  0.00  0.00    +0.002 C 
BRANCH  33  34
ATOM     34  C   UNK A   0       6.339   2.369  27.444  0.00  0.00    +0.015 C 
BRANCH  34  40
ATOM     35  C   UNK A   0       5.173  -1.753  26.694  0.00  0.00    +0.212 C 
ATOM     36  N   UNK A   0       6.503  -1.420  27.028  0.00  0.00    -0.287 N 
ATOM     37  H   UNK A   0       7.163  -2.122  27.351  0.00  0.00    +0.151 HD
ATOM     38  C   UNK A   0       6.943  -0.087  27.231  0.00  0.00    +0.221 C 
ATOM     39  O   UNK A   0       8.014   0.066  27.796  0.00  0.00    -0.275 OA
ATOM     40  C   UNK A   0       6.127   1.051  26.660  0.00  0.00    +0.106 C 
ATOM     41  C   UNK A   0       4.667   0.628  26.587  0.00  0.00    +0.133 C 
ATOM     42  N   UNK A   0       4.508  -0.682  26.039  0.00  0.00    -0.270 NA
ATOM     43  H   UNK A   0       3.784  -0.871  25.360  0.00  0.00    +0.126 HD
BRANCH  41  44
ATOM     44  N   UNK A   0       3.902   1.493  25.731  0.00  0.00    -0.315 NA
ATOM     45  H   UNK A   0       4.289   1.582  24.792  0.00  0.00    +0.120 HD
ATOM     46  H   UNK A   0       2.920   1.242  25.664  0.00  0.00    +0.120 HD
ENDBRANCH  41  44
BRANCH  35  47
ATOM     47  N   UNK A   0       5.146  -2.880  25.832  0.00  0.00    -0.300 NA
ATOM     48  H   UNK A   0       5.872  -3.031  25.136  0.00  0.00    +0.121 HD
ATOM     49  H   UNK A   0       4.309  -3.442  25.695  0.00  0.00    +0.121 HD
ENDBRANCH  35  47
ENDBRANCH  34  40
ENDBRANCH  33  34
ENDBRANCH  32  33
ENDBRANCH   1  32
TORSDOF 19
ENDMDL
MODEL 4
REMARK VINA RESULT:      -6.0      4.465      7.796
REMARK  Name = 
REMARK  19 active torsions:
REMARK  status: ('A' for Active; 'I' for Inactive)
REMARK    1  A    between atoms: N_1  and  C_2
REMARK    2  A    between atoms: C_5  and  N_7
REMARK    3  A    between atoms: C_8  and  C_10
REMARK    4  A    between atoms: C_10  and  C_11
REMARK    5  A    between atoms: C_11  and  C_12
REMARK    6  A    between atoms: C_12  and  C_13
REMARK    7  A    between atoms: C_13  and  C_15
REMARK    8  A    between atoms: C_13  and  C_34
REMARK    9  A    between atoms: C_18  and  C_21
REMARK   10  A    between atoms: N_23  and  CA_24
REMARK   11  A    between atoms: CA_24  and  CB_26
REMARK   12  A    between atoms: CA_24  and  C_31
REMARK   13  A    between atoms: CB_26  and  CG_27
REMARK   14  A    between atoms: CG_27  and  CD_28
REMARK   15  A    between atoms: CD_28  and  OE1_29
REMARK   16  A    between atoms: C_31  and  O_32
REMARK   17  A    between atoms: C_34  and  O_35
REMARK   18  A    between atoms: C_34  and  O_36
REMARK   19  A    between atoms: C_34  and  C_37
REMARK                            x       y       z     vdW  Elec       q    Type
REMARK                         _______ _______ _______ _____ _____    ______ ____
ROOT
ATOM      1  C   UNK A   0       7.035  -3.407  23.077  0.00  0.00    +0.112 C 
ENDROOT
BRANCH   1   2
ATOM      2  C   UNK A   0       6.513  -2.630  24.296  0.00  0.00    -0.037 A 
ATOM      3  C   UNK A   0       6.552  -3.232  25.569  0.00  0.00    +0.005 A 
ATOM      4  C   UNK A   0       6.198  -2.518  26.723  0.00  0.00    +0.013 A 
ATOM      5  C   UNK A   0       5.806  -1.180  26.628  0.00  0.00    +0.037 A 
ATOM      6  C   UNK A   0       5.702  -0.593  25.366  0.00  0.00    +0.013 A 
ATOM      7  C   UNK A   0       6.047  -1.309  24.213  0.00  0.00    +0.005 A 
BRANCH   5   8
ATOM      8  C   UNK A   0       5.538  -0.334  27.831  0.00  0.00    +0.245 C 
ATOM      9  N   GLU A   1       6.452   0.674  28.077  0.00  0.00    -0.298 N 
ATOM     10  H   GLU A   1       7.188   0.853  27.399  0.00  0.00    +0.150 HD
ATOM     11  O   UNK A   0       4.520  -0.486  28.488  0.00  0.00    -0.270 OA
BRANCH   9  12
ATOM     12  CA  GLU A   1       6.191   1.746  29.049  0.00  0.00    +0.182 C 
BRANCH  12  13
ATOM     13  C   GLU A   1       7.533   2.056  29.727  0.00  0.00    +0.325 C 
ATOM     14  OXT GLU A   1       7.878   3.153  30.141  0.00  0.00    -0.249 OA
BRANCH  13  15
ATOM     15  O   GLU A   1       8.315   0.952  29.844  0.00  0.00    -0.479 OA
ATOM     16  H   GLU A   1       7.781   0.157  30.056  0.00  0.00    +0.295 HD
ENDBRANCH  13  15
ENDBRANCH  12  13
BRANCH  12  17
ATOM     17  CB  GLU A   1       5.585   3.003  28.407  0.00  0.00    +0.045 C 
BRANCH  17  18
ATOM     18  CG  GLU A   1       5.865   3.110  26.911  0.00  0.00    +0.123 C 
BRANCH  18  19
ATOM     19  CD  GLU A   1       7.223   3.704  26.652  0.00  0.00    +0.305 C 
ATOM     20  OE2 GLU A   1       7.988   3.281  25.793  0.00  0.00    -0.251 OA
BRANCH  19  21
ATOM     21  OE1 GLU A   1       7.534   4.733  27.465  0.00  0.00    -0.481 OA
ATOM     22  HE1 GLU A   1       7.340   5.620  27.099  0.00  0.00    +0.295 HD
ENDBRANCH  19  21
ENDBRANCH  18  19
ENDBRANCH  17  18
ENDBRANCH  12  17
ENDBRANCH   9  12
ENDBRANCH   5   8
ENDBRANCH   1   2
BRANCH   1  23
ATOM     23  C   UNK A   0       5.921  -4.013  22.171  0.00  0.00    +0.343 C 
BRANCH  23  24
ATOM     24  C   UNK A   0       6.240  -5.465  21.649  0.00  0.00    +0.468 C 
ATOM     25  F   UNK A   0       5.448  -6.360  22.298  0.00  0.00    -0.164 F 
ATOM     26  F   UNK A   0       7.521  -5.826  21.893  0.00  0.00    -0.164 F 
ATOM     27  F   UNK A   0       6.032  -5.627  20.328  0.00  0.00    -0.164 F 
ENDBRANCH  23  24
BRANCH  23  28
ATOM     28  O   UNK A   0       5.700  -3.082  21.093  0.00  0.00    -0.499 OA
ATOM     29  H   UNK A   0       5.743  -2.186  21.483  0.00  0.00    +0.288 HD
ENDBRANCH  23  28
BRANCH  23  30
ATOM     30  O   UNK A   0       4.676  -4.017  22.895  0.00  0.00    -0.499 OA
ATOM     31  H   UNK A   0       4.875  -4.176  23.831  0.00  0.00    +0.288 HD
ENDBRANCH  23  30
ENDBRANCH   1  23
BRANCH   1  32
ATOM     32  C   UNK A   0       8.137  -2.666  22.264  0.00  0.00    +0.016 C 
BRANCH  32  33
ATOM     33  C   UNK A   0       9.330  -2.329  23.165  0.00  0.00    +0.002 C 
BRANCH  33  34
ATOM     34  C   UNK A   0      10.236  -1.223  22.620  0.00  0.00    +0.015 C 
BRANCH  34  40
ATOM     35  C   UNK A   0      10.201   3.103  23.064  0.00  0.00    +0.212 C 
ATOM     36  N   UNK A   0      10.411   2.257  24.173  0.00  0.00    -0.287 N 
ATOM     37  H   UNK A   0      10.808   2.606  25.043  0.00  0.00    +0.151 HD
ATOM     38  C   UNK A   0      10.381   0.841  24.089  0.00  0.00    +0.221 C 
ATOM     39  O   UNK A   0      10.861   0.217  25.022  0.00  0.00    -0.275 OA
ATOM     40  C   UNK A   0       9.680   0.191  22.917  0.00  0.00    +0.106 C 
ATOM     41  C   UNK A   0       9.747   1.124  21.717  0.00  0.00    +0.133 C 
ATOM     42  N   UNK A   0       9.420   2.472  22.058  0.00  0.00    -0.270 NA
ATOM     43  H   UNK A   0       8.816   3.022  21.463  0.00  0.00    +0.126 HD
BRANCH  41  44
ATOM     44  N   UNK A   0       8.805   0.752  20.698  0.00  0.00    -0.315 NA
ATOM     45  H   UNK A   0       9.243   0.433  19.835  0.00  0.00    +0.120 HD
ATOM     46  H   UNK A   0       8.123   0.062  20.999  0.00  0.00    +0.120 HD
ENDBRANCH  41  44
BRANCH  35  47
ATOM     47  N   UNK A   0       9.530   4.288  23.464  0.00  0.00    -0.300 NA
ATOM     48  H   UNK A   0       9.974   4.965  24.079  0.00  0.00    +0.121 HD
ATOM     49  H   UNK A   0       8.524   4.404  23.368  0.00  0.00    +0.121 HD
ENDBRANCH  35  47
ENDBRANCH  34  40
ENDBRANCH  33  34
ENDBRANCH  32  33
ENDBRANCH   1  32
TORSDOF 19
ENDMDL
MODEL 5
REMARK VINA RESULT:      -6.0      4.550      8.608
REMARK  Name = 
REMARK  19 active torsions:
REMARK  status: ('A' for Active; 'I' for Inactive)
REMARK    1  A    between atoms: N_1  and  C_2
REMARK    2  A    between atoms: C_5  and  N_7
REMARK    3  A    between atoms: C_8  and  C_10
REMARK    4  A    between atoms: C_10  and  C_11
REMARK    5  A    between atoms: C_11  and  C_12
REMARK    6  A    between atoms: C_12  and  C_13
REMARK    7  A    between atoms: C_13  and  C_15
REMARK    8  A    between atoms: C_13  and  C_34
REMARK    9  A    between atoms: C_18  and  C_21
REMARK   10  A    between atoms: N_23  and  CA_24
REMARK   11  A    between atoms: CA_24  and  CB_26
REMARK   12  A    between atoms: CA_24  and  C_31
REMARK   13  A    between atoms: CB_26  and  CG_27
REMARK   14  A    between atoms: CG_27  and  CD_28
REMARK   15  A    between atoms: CD_28  and  OE1_29
REMARK   16  A    between atoms: C_31  and  O_32
REMARK   17  A    between atoms: C_34  and  O_35
REMARK   18  A    between atoms: C_34  and  O_36
REMARK   19  A    between atoms: C_34  and  C_37
REMARK                            x       y       z     vdW  Elec       q    Type
REMARK                         _______ _______ _______ _____ _____    ______ ____
ROOT
ATOM      1  C   UNK A   0       6.619  -3.899  23.446  0.00  0.00    +0.112 C 
ENDROOT
BRANCH   1   2
ATOM      2  C   UNK A   0       7.111  -2.447  23.335  0.00  0.00    -0.037 A 
ATOM      3  C   UNK A   0       8.261  -2.162  22.574  0.00  0.00    +0.005 A 
ATOM      4  C   UNK A   0       8.677  -0.842  22.346  0.00  0.00    +0.013 A 
ATOM      5  C   UNK A   0       7.940   0.224  22.871  0.00  0.00    +0.037 A 
ATOM      6  C   UNK A   0       6.836  -0.047  23.679  0.00  0.00    +0.013 A 
ATOM      7  C   UNK A   0       6.428  -1.366  23.914  0.00  0.00    +0.005 A 
BRANCH   5   8
ATOM      8  C   UNK A   0       8.261   1.651  22.560  0.00  0.00    +0.245 C 
ATOM      9  N   GLU A   1       9.164   2.266  23.407  0.00  0.00    -0.298 N 
ATOM     10  H   GLU A   1       9.629   1.714  24.121  0.00  0.00    +0.150 HD
ATOM     11  O   UNK A   0       7.809   2.190  21.561  0.00  0.00    -0.270 OA
BRANCH   9  12
ATOM     12  CA  GLU A   1       9.780   3.562  23.085  0.00  0.00    +0.182 C 
BRANCH  12  13
ATOM     13  C   GLU A   1       8.992   4.625  23.866  0.00  0.00    +0.325 C 
ATOM     14  OXT GLU A   1       8.555   5.665  23.397  0.00  0.00    -0.249 OA
BRANCH  13  15
ATOM     15  O   GLU A   1       8.805   4.273  25.163  0.00  0.00    -0.479 OA
ATOM     16  H   GLU A   1       9.523   3.686  25.482  0.00  0.00    +0.295 HD
ENDBRANCH  13  15
ENDBRANCH  12  13
BRANCH  12  17
ATOM     17  CB  GLU A   1      11.277   3.616  23.423  0.00  0.00    +0.045 C 
BRANCH  17  18
ATOM     18  CG  GLU A   1      11.818   5.038  23.538  0.00  0.00    +0.123 C 
BRANCH  18  19
ATOM     19  CD  GLU A   1      13.061   5.217  22.711  0.00  0.00    +0.305 C 
ATOM     20  OE2 GLU A   1      13.047   5.629  21.556  0.00  0.00    -0.251 OA
BRANCH  19  21
ATOM     21  OE1 GLU A   1      14.196   4.863  23.346  0.00  0.00    -0.481 OA
ATOM     22  HE1 GLU A   1      14.119   4.796  24.319  0.00  0.00    +0.295 HD
ENDBRANCH  19  21
ENDBRANCH  18  19
ENDBRANCH  17  18
ENDBRANCH  12  17
ENDBRANCH   9  12
ENDBRANCH   5   8
ENDBRANCH   1   2
BRANCH   1  23
ATOM     23  C   UNK A   0       5.841  -4.414  22.197  0.00  0.00    +0.343 C 
BRANCH  23  24
ATOM     24  C   UNK A   0       6.557  -5.595  21.439  0.00  0.00    +0.468 C 
ATOM     25  F   UNK A   0       6.377  -6.750  22.135  0.00  0.00    -0.164 F 
ATOM     26  F   UNK A   0       7.893  -5.402  21.338  0.00  0.00    -0.164 F 
ATOM     27  F   UNK A   0       6.095  -5.801  20.190  0.00  0.00    -0.164 F 
ENDBRANCH  23  24
BRANCH  23  28
ATOM     28  O   UNK A   0       5.613  -3.276  21.342  0.00  0.00    -0.499 OA
ATOM     29  H   UNK A   0       5.811  -3.567  20.429  0.00  0.00    +0.288 HD
ENDBRANCH  23  28
BRANCH  23  30
ATOM     30  O   UNK A   0       4.520  -4.823  22.601  0.00  0.00    -0.499 OA
ATOM     31  H   UNK A   0       4.324  -5.669  22.169  0.00  0.00    +0.288 HD
ENDBRANCH  23  30
ENDBRANCH   1  23
BRANCH   1  32
ATOM     32  C   UNK A   0       7.695  -4.908  23.945  0.00  0.00    +0.016 C 
BRANCH  32  33
ATOM     33  C   UNK A   0       7.226  -5.594  25.233  0.00  0.00    +0.002 C 
BRANCH  33  34
ATOM     34  C   UNK A   0       5.870  -5.106  25.747  0.00  0.00    +0.015 C 
BRANCH  34  40
ATOM     35  C   UNK A   0       2.472  -7.109  27.577  0.00  0.00    +0.212 C 
ATOM     36  N   UNK A   0       3.469  -6.495  28.365  0.00  0.00    -0.287 N 
ATOM     37  H   UNK A   0       3.313  -6.274  29.345  0.00  0.00    +0.151 HD
ATOM     38  C   UNK A   0       4.621  -5.875  27.817  0.00  0.00    +0.221 C 
ATOM     39  O   UNK A   0       5.253  -5.130  28.549  0.00  0.00    -0.275 OA
ATOM     40  C   UNK A   0       5.053  -6.238  26.415  0.00  0.00    +0.106 C 
ATOM     41  C   UNK A   0       3.831  -6.649  25.607  0.00  0.00    +0.133 C 
ATOM     42  N   UNK A   0       2.982  -7.547  26.326  0.00  0.00    -0.270 NA
ATOM     43  H   UNK A   0       2.585  -8.356  25.869  0.00  0.00    +0.126 HD
BRANCH  41  44
ATOM     44  N   UNK A   0       4.193  -7.349  24.406  0.00  0.00    -0.315 NA
ATOM     45  H   UNK A   0       5.080  -7.043  24.008  0.00  0.00    +0.120 HD
ATOM     46  H   UNK A   0       4.204  -8.360  24.506  0.00  0.00    +0.120 HD
ENDBRANCH  41  44
BRANCH  35  47
ATOM     47  N   UNK A   0       1.932  -8.235  28.251  0.00  0.00    -0.300 NA
ATOM     48  H   UNK A   0       1.761  -9.111  27.762  0.00  0.00    +0.121 HD
ATOM     49  H   UNK A   0       1.471  -8.163  29.154  0.00  0.00    +0.121 HD
ENDBRANCH  35  47
ENDBRANCH  34  40
ENDBRANCH  33  34
ENDBRANCH  32  33
ENDBRANCH   1  32
TORSDOF 19
ENDMDL
MODEL 6
REMARK VINA RESULT:      -6.0      4.019      7.757
REMARK  Name = 
REMARK  19 active torsions:
REMARK  status: ('A' for Active; 'I' for Inactive)
REMARK    1  A    between atoms: N_1  and  C_2
REMARK    2  A    between atoms: C_5  and  N_7
REMARK    3  A    between atoms: C_8  and  C_10
REMARK    4  A    between atoms: C_10  and  C_11
REMARK    5  A    between atoms: C_11  and  C_12
REMARK    6  A    between atoms: C_12  and  C_13
REMARK    7  A    between atoms: C_13  and  C_15
REMARK    8  A    between atoms: C_13  and  C_34
REMARK    9  A    between atoms: C_18  and  C_21
REMARK   10  A    between atoms: N_23  and  CA_24
REMARK   11  A    between atoms: CA_24  and  CB_26
REMARK   12  A    between atoms: CA_24  and  C_31
REMARK   13  A    between atoms: CB_26  and  CG_27
REMARK   14  A    between atoms: CG_27  and  CD_28
REMARK   15  A    between atoms: CD_28  and  OE1_29
REMARK   16  A    between atoms: C_31  and  O_32
REMARK   17  A    between atoms: C_34  and  O_35
REMARK   18  A    between atoms: C_34  and  O_36
REMARK   19  A    between atoms: C_34  and  C_37
REMARK                            x       y       z     vdW  Elec       q    Type
REMARK                         _______ _______ _______ _____ _____    ______ ____
ROOT
ATOM      1  C   UNK A   0       6.767  -3.928  23.115  0.00  0.00    +0.112 C 
ENDROOT
BRANCH   1   2
ATOM      2  C   UNK A   0       7.275  -2.514  22.792  0.00  0.00    -0.037 A 
ATOM      3  C   UNK A   0       6.478  -1.400  23.122  0.00  0.00    +0.005 A 
ATOM      4  C   UNK A   0       6.952  -0.090  22.956  0.00  0.00    +0.013 A 
ATOM      5  C   UNK A   0       8.242   0.132  22.465  0.00  0.00    +0.037 A 
ATOM      6  C   UNK A   0       9.016  -0.962  22.076  0.00  0.00    +0.013 A 
ATOM      7  C   UNK A   0       8.538  -2.269  22.232  0.00  0.00    +0.005 A 
BRANCH   5   8
ATOM      8  C   UNK A   0       8.846   1.496  22.385  0.00  0.00    +0.245 C 
ATOM      9  N   GLU A   1       8.089   2.525  22.914  0.00  0.00    -0.298 N 
ATOM     10  H   GLU A   1       7.228   2.305  23.406  0.00  0.00    +0.150 HD
ATOM     11  O   UNK A   0       9.978   1.655  21.954  0.00  0.00    -0.270 OA
BRANCH   9  12
ATOM     12  CA  GLU A   1       8.648   3.865  23.152  0.00  0.00    +0.182 C 
BRANCH  12  13
ATOM     13  C   GLU A   1       7.643   4.866  22.565  0.00  0.00    +0.325 C 
ATOM     14  OXT GLU A   1       6.448   4.661  22.415  0.00  0.00    -0.249 OA
BRANCH  13  15
ATOM     15  O   GLU A   1       8.227   6.048  22.240  0.00  0.00    -0.479 OA
ATOM     16  H   GLU A   1       7.747   6.805  22.636  0.00  0.00    +0.295 HD
ENDBRANCH  13  15
ENDBRANCH  12  13
BRANCH  12  17
ATOM     17  CB  GLU A   1       8.918   4.147  24.637  0.00  0.00    +0.045 C 
BRANCH  17  18
ATOM     18  CG  GLU A   1       7.658   4.103  25.497  0.00  0.00    +0.123 C 
BRANCH  18  19
ATOM     19  CD  GLU A   1       7.465   2.744  26.112  0.00  0.00    +0.305 C 
ATOM     20  OE2 GLU A   1       6.514   2.461  26.831  0.00  0.00    -0.251 OA
BRANCH  19  21
ATOM     21  OE1 GLU A   1       8.446   1.867  25.818  0.00  0.00    -0.481 OA
ATOM     22  HE1 GLU A   1       8.925   2.049  24.985  0.00  0.00    +0.295 HD
ENDBRANCH  19  21
ENDBRANCH  18  19
ENDBRANCH  17  18
ENDBRANCH  12  17
ENDBRANCH   9  12
ENDBRANCH   5   8
ENDBRANCH   1   2
BRANCH   1  23
ATOM     23  C   UNK A   0       5.869  -4.560  22.007  0.00  0.00    +0.343 C 
BRANCH  23  24
ATOM     24  C   UNK A   0       6.488  -5.845  21.339  0.00  0.00    +0.468 C 
ATOM     25  F   UNK A   0       5.906  -6.044  20.125  0.00  0.00    -0.164 F 
ATOM     26  F   UNK A   0       6.263  -6.961  22.069  0.00  0.00    -0.164 F 
ATOM     27  F   UNK A   0       7.818  -5.769  21.139  0.00  0.00    -0.164 F 
ENDBRANCH  23  24
BRANCH  23  28
ATOM     28  O   UNK A   0       5.593  -3.523  21.045  0.00  0.00    -0.499 OA
ATOM     29  H   UNK A   0       6.394  -3.435  20.490  0.00  0.00    +0.288 HD
ENDBRANCH  23  28
BRANCH  23  30
ATOM     30  O   UNK A   0       4.580  -4.873  22.568  0.00  0.00    -0.499 OA
ATOM     31  H   UNK A   0       4.325  -4.145  23.156  0.00  0.00    +0.288 HD
ENDBRANCH  23  30
ENDBRANCH   1  23
BRANCH   1  32
ATOM     32  C   UNK A   0       7.863  -4.905  23.633  0.00  0.00    +0.016 C 
BRANCH  32  33
ATOM     33  C   UNK A   0       7.789  -5.029  25.158  0.00  0.00    +0.002 C 
BRANCH  33  34
ATOM     34  C   UNK A   0       8.671  -4.032  25.913  0.00  0.00    +0.015 C 
BRANCH  34  40
ATOM     35  C   UNK A   0       5.657  -1.035  26.833  0.00  0.00    +0.212 C 
ATOM     36  N   UNK A   0       6.988  -0.667  26.545  0.00  0.00    -0.287 N 
ATOM     37  H   UNK A   0       7.235   0.287  26.291  0.00  0.00    +0.151 HD
ATOM     38  C   UNK A   0       8.017  -1.609  26.289  0.00  0.00    +0.221 C 
ATOM     39  O   UNK A   0       9.039  -1.190  25.768  0.00  0.00    -0.275 OA
ATOM     40  C   UNK A   0       7.840  -3.035  26.757  0.00  0.00    +0.106 C 
ATOM     41  C   UNK A   0       6.355  -3.369  26.785  0.00  0.00    +0.133 C 
ATOM     42  N   UNK A   0       5.578  -2.337  27.396  0.00  0.00    -0.270 NA
ATOM     43  H   UNK A   0       4.843  -2.566  28.049  0.00  0.00    +0.126 HD
BRANCH  41  44
ATOM     44  N   UNK A   0       6.087  -4.552  27.555  0.00  0.00    -0.315 NA
ATOM     45  H   UNK A   0       5.804  -5.351  26.989  0.00  0.00    +0.120 HD
ATOM     46  H   UNK A   0       6.851  -4.829  28.163  0.00  0.00    +0.120 HD
ENDBRANCH  41  44
BRANCH  35  47
ATOM     47  N   UNK A   0       5.078  -0.122  27.753  0.00  0.00    -0.300 NA
ATOM     48  H   UNK A   0       4.949  -0.369  28.732  0.00  0.00    +0.121 HD
ATOM     49  H   UNK A   0       4.555   0.697  27.454  0.00  0.00    +0.121 HD
ENDBRANCH  35  47
ENDBRANCH  34  40
ENDBRANCH  33  34
ENDBRANCH  32  33
ENDBRANCH   1  32
TORSDOF 19
ENDMDL
MODEL 7
REMARK VINA RESULT:      -5.9      4.023      8.186
REMARK  Name = 
REMARK  19 active torsions:
REMARK  status: ('A' for Active; 'I' for Inactive)
REMARK    1  A    between atoms: N_1  and  C_2
REMARK    2  A    between atoms: C_5  and  N_7
REMARK    3  A    between atoms: C_8  and  C_10
REMARK    4  A    between atoms: C_10  and  C_11
REMARK    5  A    between atoms: C_11  and  C_12
REMARK    6  A    between atoms: C_12  and  C_13
REMARK    7  A    between atoms: C_13  and  C_15
REMARK    8  A    between atoms: C_13  and  C_34
REMARK    9  A    between atoms: C_18  and  C_21
REMARK   10  A    between atoms: N_23  and  CA_24
REMARK   11  A    between atoms: CA_24  and  CB_26
REMARK   12  A    between atoms: CA_24  and  C_31
REMARK   13  A    between atoms: CB_26  and  CG_27
REMARK   14  A    between atoms: CG_27  and  CD_28
REMARK   15  A    between atoms: CD_28  and  OE1_29
REMARK   16  A    between atoms: C_31  and  O_32
REMARK   17  A    between atoms: C_34  and  O_35
REMARK   18  A    between atoms: C_34  and  O_36
REMARK   19  A    between atoms: C_34  and  C_37
REMARK                            x       y       z     vdW  Elec       q    Type
REMARK                         _______ _______ _______ _____ _____    ______ ____
ROOT
ATOM      1  C   UNK A   0       7.298  -3.220  25.029  0.00  0.00    +0.112 C 
ENDROOT
BRANCH   1   2
ATOM      2  C   UNK A   0       7.622  -1.788  24.576  0.00  0.00    -0.037 A 
ATOM      3  C   UNK A   0       8.563  -1.029  25.299  0.00  0.00    +0.005 A 
ATOM      4  C   UNK A   0       8.977   0.235  24.853  0.00  0.00    +0.013 A 
ATOM      5  C   UNK A   0       8.464   0.762  23.665  0.00  0.00    +0.037 A 
ATOM      6  C   UNK A   0       7.484   0.048  22.974  0.00  0.00    +0.013 A 
ATOM      7  C   UNK A   0       7.064  -1.210  23.426  0.00  0.00    +0.005 A 
BRANCH   5   8
ATOM      8  C   UNK A   0       8.958   2.044  23.076  0.00  0.00    +0.245 C 
ATOM      9  N   GLU A   1       8.135   3.143  23.243  0.00  0.00    -0.298 N 
ATOM     10  H   GLU A   1       7.306   3.057  23.823  0.00  0.00    +0.150 HD
ATOM     11  O   UNK A   0      10.063   2.111  22.561  0.00  0.00    -0.270 OA
BRANCH   9  12
ATOM     12  CA  GLU A   1       8.594   4.512  22.963  0.00  0.00    +0.182 C 
BRANCH  12  13
ATOM     13  C   GLU A   1       7.343   5.323  22.595  0.00  0.00    +0.325 C 
ATOM     14  OXT GLU A   1       6.333   5.410  23.277  0.00  0.00    -0.249 OA
BRANCH  13  15
ATOM     15  O   GLU A   1       7.482   5.970  21.410  0.00  0.00    -0.479 OA
ATOM     16  H   GLU A   1       8.078   6.744  21.493  0.00  0.00    +0.295 HD
ENDBRANCH  13  15
ENDBRANCH  12  13
BRANCH  12  17
ATOM     17  CB  GLU A   1       9.345   5.146  24.142  0.00  0.00    +0.045 C 
BRANCH  17  18
ATOM     18  CG  GLU A   1      10.400   6.160  23.709  0.00  0.00    +0.123 C 
BRANCH  18  19
ATOM     19  CD  GLU A   1      11.773   5.546  23.696  0.00  0.00    +0.305 C 
ATOM     20  OE2 GLU A   1      12.688   5.932  24.414  0.00  0.00    -0.251 OA
BRANCH  19  21
ATOM     21  OE1 GLU A   1      11.915   4.544  22.807  0.00  0.00    -0.481 OA
ATOM     22  HE1 GLU A   1      12.799   4.124  22.797  0.00  0.00    +0.295 HD
ENDBRANCH  19  21
ENDBRANCH  18  19
ENDBRANCH  17  18
ENDBRANCH  12  17
ENDBRANCH   9  12
ENDBRANCH   5   8
ENDBRANCH   1   2
BRANCH   1  23
ATOM     23  C   UNK A   0       8.123  -4.328  24.306  0.00  0.00    +0.343 C 
BRANCH  23  24
ATOM     24  C   UNK A   0       7.431  -4.898  23.011  0.00  0.00    +0.468 C 
ATOM     25  F   UNK A   0       6.105  -5.082  23.254  0.00  0.00    -0.164 F 
ATOM     26  F   UNK A   0       7.933  -6.101  22.649  0.00  0.00    -0.164 F 
ATOM     27  F   UNK A   0       7.535  -4.091  21.937  0.00  0.00    -0.164 F 
ENDBRANCH  23  24
BRANCH  23  28
ATOM     28  O   UNK A   0       8.391  -5.358  25.279  0.00  0.00    -0.499 OA
ATOM     29  H   UNK A   0       8.421  -4.917  26.152  0.00  0.00    +0.288 HD
ENDBRANCH  23  28
BRANCH  23  30
ATOM     30  O   UNK A   0       9.424  -3.807  23.975  0.00  0.00    -0.499 OA
ATOM     31  H   UNK A   0       9.385  -2.840  24.045  0.00  0.00    +0.288 HD
ENDBRANCH  23  30
ENDBRANCH   1  23
BRANCH   1  32
ATOM     32  C   UNK A   0       7.253  -3.413  26.574  0.00  0.00    +0.016 C 
BRANCH  32  33
ATOM     33  C   UNK A   0       5.913  -2.925  27.133  0.00  0.00    +0.002 C 
BRANCH  33  34
ATOM     34  C   UNK A   0       4.935  -4.046  27.489  0.00  0.00    +0.015 C 
BRANCH  34  40
ATOM     35  C   UNK A   0       3.100  -7.250  25.191  0.00  0.00    +0.212 C 
ATOM     36  N   UNK A   0       4.279  -7.468  25.934  0.00  0.00    -0.287 N 
ATOM     37  H   UNK A   0       4.597  -8.405  26.170  0.00  0.00    +0.151 HD
ATOM     38  C   UNK A   0       4.943  -6.443  26.657  0.00  0.00    +0.221 C 
ATOM     39  O   UNK A   0       5.765  -6.793  27.489  0.00  0.00    -0.275 OA
ATOM     40  C   UNK A   0       4.676  -4.999  26.297  0.00  0.00    +0.106 C 
ATOM     41  C   UNK A   0       3.269  -4.880  25.730  0.00  0.00    +0.133 C 
ATOM     42  N   UNK A   0       2.982  -5.898  24.770  0.00  0.00    -0.270 NA
ATOM     43  H   UNK A   0       2.505  -5.673  23.908  0.00  0.00    +0.126 HD
BRANCH  41  44
ATOM     44  N   UNK A   0       3.077  -3.637  25.035  0.00  0.00    -0.315 NA
ATOM     45  H   UNK A   0       2.711  -3.752  24.090  0.00  0.00    +0.120 HD
ATOM     46  H   UNK A   0       2.499  -2.970  25.537  0.00  0.00    +0.120 HD
ENDBRANCH  41  44
BRANCH  35  47
ATOM     47  N   UNK A   0       3.083  -8.074  24.035  0.00  0.00    -0.300 NA
ATOM     48  H   UNK A   0       3.196  -9.082  24.103  0.00  0.00    +0.121 HD
ATOM     49  H   UNK A   0       3.203  -7.700  23.097  0.00  0.00    +0.121 HD
ENDBRANCH  35  47
ENDBRANCH  34  40
ENDBRANCH  33  34
ENDBRANCH  32  33
ENDBRANCH   1  32
TORSDOF 19
ENDMDL
MODEL 8
REMARK VINA RESULT:      -5.9      4.440      8.224
REMARK  Name = 
REMARK  19 active torsions:
REMARK  status: ('A' for Active; 'I' for Inactive)
REMARK    1  A    between atoms: N_1  and  C_2
REMARK    2  A    between atoms: C_5  and  N_7
REMARK    3  A    between atoms: C_8  and  C_10
REMARK    4  A    between atoms: C_10  and  C_11
REMARK    5  A    between atoms: C_11  and  C_12
REMARK    6  A    between atoms: C_12  and  C_13
REMARK    7  A    between atoms: C_13  and  C_15
REMARK    8  A    between atoms: C_13  and  C_34
REMARK    9  A    between atoms: C_18  and  C_21
REMARK   10  A    between atoms: N_23  and  CA_24
REMARK   11  A    between atoms: CA_24  and  CB_26
REMARK   12  A    between atoms: CA_24  and  C_31
REMARK   13  A    between atoms: CB_26  and  CG_27
REMARK   14  A    between atoms: CG_27  and  CD_28
REMARK   15  A    between atoms: CD_28  and  OE1_29
REMARK   16  A    between atoms: C_31  and  O_32
REMARK   17  A    between atoms: C_34  and  O_35
REMARK   18  A    between atoms: C_34  and  O_36
REMARK   19  A    between atoms: C_34  and  C_37
REMARK                            x       y       z     vdW  Elec       q    Type
REMARK                         _______ _______ _______ _____ _____    ______ ____
ROOT
ATOM      1  C   UNK A   0       5.793  -5.857  26.930  0.00  0.00    +0.112 C 
ENDROOT
BRANCH   1   2
ATOM      2  C   UNK A   0       6.647  -4.581  26.865  0.00  0.00    -0.037 A 
ATOM      3  C   UNK A   0       8.019  -4.682  26.565  0.00  0.00    +0.005 A 
ATOM      4  C   UNK A   0       8.810  -3.539  26.377  0.00  0.00    +0.013 A 
ATOM      5  C   UNK A   0       8.239  -2.267  26.477  0.00  0.00    +0.037 A 
ATOM      6  C   UNK A   0       6.896  -2.154  26.837  0.00  0.00    +0.013 A 
ATOM      7  C   UNK A   0       6.109  -3.296  27.034  0.00  0.00    +0.005 A 
BRANCH   5   8
ATOM      8  C   UNK A   0       9.000  -1.018  26.167  0.00  0.00    +0.245 C 
ATOM      9  N   GLU A   1       9.062  -0.665  24.831  0.00  0.00    -0.298 N 
ATOM     10  H   GLU A   1       8.525  -1.196  24.152  0.00  0.00    +0.150 HD
ATOM     11  O   UNK A   0       9.453  -0.323  27.062  0.00  0.00    -0.270 OA
BRANCH   9  12
ATOM     12  CA  GLU A   1       9.535   0.657  24.394  0.00  0.00    +0.182 C 
BRANCH  12  13
ATOM     13  C   GLU A   1       9.916   0.516  22.914  0.00  0.00    +0.325 C 
ATOM     14  OXT GLU A   1      10.219  -0.530  22.360  0.00  0.00    -0.249 OA
BRANCH  13  15
ATOM     15  O   GLU A   1       9.862   1.702  22.255  0.00  0.00    -0.479 OA
ATOM     16  H   GLU A   1       9.186   2.296  22.643  0.00  0.00    +0.295 HD
ENDBRANCH  13  15
ENDBRANCH  12  13
BRANCH  12  17
ATOM     17  CB  GLU A   1       8.492   1.766  24.600  0.00  0.00    +0.045 C 
BRANCH  17  18
ATOM     18  CG  GLU A   1       7.059   1.244  24.638  0.00  0.00    +0.123 C 
BRANCH  18  19
ATOM     19  CD  GLU A   1       6.466   1.178  23.256  0.00  0.00    +0.305 C 
ATOM     20  OE2 GLU A   1       6.031   2.160  22.664  0.00  0.00    -0.251 OA
BRANCH  19  21
ATOM     21  OE1 GLU A   1       6.437  -0.063  22.733  0.00  0.00    -0.481 OA
ATOM     22  HE1 GLU A   1       5.602  -0.299  22.279  0.00  0.00    +0.295 HD
ENDBRANCH  19  21
ENDBRANCH  18  19
ENDBRANCH  17  18
ENDBRANCH  12  17
ENDBRANCH   9  12
ENDBRANCH   5   8
ENDBRANCH   1   2
BRANCH   1  23
ATOM     23  C   UNK A   0       5.646  -6.465  28.358  0.00  0.00    +0.343 C 
BRANCH  23  24
ATOM     24  C   UNK A   0       4.707  -5.635  29.313  0.00  0.00    +0.468 C 
ATOM     25  F   UNK A   0       5.467  -4.837  30.110  0.00  0.00    -0.164 F 
ATOM     26  F   UNK A   0       3.980  -6.430  30.132  0.00  0.00    -0.164 F 
ATOM     27  F   UNK A   0       3.834  -4.840  28.663  0.00  0.00    -0.164 F 
ENDBRANCH  23  24
BRANCH  23  28
ATOM     28  O   UNK A   0       6.977  -6.610  28.894  0.00  0.00    -0.499 OA
ATOM     29  H   UNK A   0       7.023  -7.503  29.290  0.00  0.00    +0.288 HD
ENDBRANCH  23  28
BRANCH  23  30
ATOM     30  O   UNK A   0       5.160  -7.816  28.247  0.00  0.00    -0.499 OA
ATOM     31  H   UNK A   0       4.770  -7.922  27.365  0.00  0.00    +0.288 HD
ENDBRANCH  23  30
ENDBRANCH   1  23
BRANCH   1  32
ATOM     32  C   UNK A   0       4.436  -5.763  26.172  0.00  0.00    +0.016 C 
BRANCH  32  33
ATOM     33  C   UNK A   0       4.508  -6.535  24.850  0.00  0.00    +0.002 C 
BRANCH  33  34
ATOM     34  C   UNK A   0       3.885  -5.802  23.661  0.00  0.00    +0.015 C 
BRANCH  34  40
ATOM     35  C   UNK A   0       7.473  -3.428  23.032  0.00  0.00    +0.212 C 
ATOM     36  N   UNK A   0       6.259  -2.826  23.421  0.00  0.00    -0.287 N 
ATOM     37  H   UNK A   0       6.229  -1.886  23.810  0.00  0.00    +0.151 HD
ATOM     38  C   UNK A   0       5.050  -3.549  23.589  0.00  0.00    +0.221 C 
ATOM     39  O   UNK A   0       4.151  -2.997  24.203  0.00  0.00    -0.275 OA
ATOM     40  C   UNK A   0       4.906  -4.900  22.926  0.00  0.00    +0.106 C 
ATOM     41  C   UNK A   0       6.280  -5.540  22.793  0.00  0.00    +0.133 C 
ATOM     42  N   UNK A   0       7.259  -4.625  22.296  0.00  0.00    -0.270 NA
ATOM     43  H   UNK A   0       7.920  -4.912  21.588  0.00  0.00    +0.126 HD
BRANCH  41  44
ATOM     44  N   UNK A   0       6.274  -6.632  21.860  0.00  0.00    -0.315 NA
ATOM     45  H   UNK A   0       6.482  -7.534  22.287  0.00  0.00    +0.120 HD
ATOM     46  H   UNK A   0       5.417  -6.709  21.321  0.00  0.00    +0.120 HD
ENDBRANCH  41  44
BRANCH  35  47
ATOM     47  N   UNK A   0       8.229  -2.542  22.221  0.00  0.00    -0.300 NA
ATOM     48  H   UNK A   0       9.117  -2.161  22.539  0.00  0.00    +0.121 HD
ATOM     49  H   UNK A   0       7.830  -2.061  21.418  0.00  0.00    +0.121 HD
ENDBRANCH  35  47
ENDBRANCH  34  40
ENDBRANCH  33  34
ENDBRANCH  32  33
ENDBRANCH   1  32
TORSDOF 19
ENDMDL
MODEL 9
REMARK VINA RESULT:      -5.9      4.487      8.296
REMARK  Name = 
REMARK  19 active torsions:
REMARK  status: ('A' for Active; 'I' for Inactive)
REMARK    1  A    between atoms: N_1  and  C_2
REMARK    2  A    between atoms: C_5  and  N_7
REMARK    3  A    between atoms: C_8  and  C_10
REMARK    4  A    between atoms: C_10  and  C_11
REMARK    5  A    between atoms: C_11  and  C_12
REMARK    6  A    between atoms: C_12  and  C_13
REMARK    7  A    between atoms: C_13  and  C_15
REMARK    8  A    between atoms: C_13  and  C_34
REMARK    9  A    between atoms: C_18  and  C_21
REMARK   10  A    between atoms: N_23  and  CA_24
REMARK   11  A    between atoms: CA_24  and  CB_26
REMARK   12  A    between atoms: CA_24  and  C_31
REMARK   13  A    between atoms: CB_26  and  CG_27
REMARK   14  A    between atoms: CG_27  and  CD_28
REMARK   15  A    between atoms: CD_28  and  OE1_29
REMARK   16  A    between atoms: C_31  and  O_32
REMARK   17  A    between atoms: C_34  and  O_35
REMARK   18  A    between atoms: C_34  and  O_36
REMARK   19  A    between atoms: C_34  and  C_37
REMARK                            x       y       z     vdW  Elec       q    Type
REMARK                         _______ _______ _______ _____ _____    ______ ____
ROOT
ATOM      1  C   UNK A   0       6.163  -4.438  23.779  0.00  0.00    +0.112 C 
ENDROOT
BRANCH   1   2
ATOM      2  C   UNK A   0       7.048  -3.183  23.793  0.00  0.00    -0.037 A 
ATOM      3  C   UNK A   0       6.495  -1.949  24.188  0.00  0.00    +0.005 A 
ATOM      4  C   UNK A   0       7.292  -0.805  24.331  0.00  0.00    +0.013 A 
ATOM      5  C   UNK A   0       8.668  -0.874  24.090  0.00  0.00    +0.037 A 
ATOM      6  C   UNK A   0       9.216  -2.074  23.636  0.00  0.00    +0.013 A 
ATOM      7  C   UNK A   0       8.417  -3.214  23.484  0.00  0.00    +0.005 A 
BRANCH   5   8
ATOM      8  C   UNK A   0       9.587   0.277  24.345  0.00  0.00    +0.245 C 
ATOM      9  N   GLU A   1       9.163   1.505  23.870  0.00  0.00    -0.298 N 
ATOM     10  H   GLU A   1       8.234   1.588  23.469  0.00  0.00    +0.150 HD
ATOM     11  O   UNK A   0      10.600   0.133  25.011  0.00  0.00    -0.270 OA
BRANCH   9  12
ATOM     12  CA  GLU A   1       9.813   2.763  24.268  0.00  0.00    +0.182 C 
BRANCH  12  13
ATOM     13  C   GLU A   1      10.733   3.165  23.106  0.00  0.00    +0.325 C 
ATOM     14  OXT GLU A   1      11.672   3.942  23.187  0.00  0.00    -0.249 OA
BRANCH  13  15
ATOM     15  O   GLU A   1      10.403   2.535  21.950  0.00  0.00    -0.479 OA
ATOM     16  H   GLU A   1      11.192   2.152  21.513  0.00  0.00    +0.295 HD
ENDBRANCH  13  15
ENDBRANCH  12  13
BRANCH  12  17
ATOM     17  CB  GLU A   1       8.810   3.878  24.599  0.00  0.00    +0.045 C 
BRANCH  17  18
ATOM     18  CG  GLU A   1       7.911   4.247  23.423  0.00  0.00    +0.123 C 
BRANCH  18  19
ATOM     19  CD  GLU A   1       7.905   5.733  23.187  0.00  0.00    +0.305 C 
ATOM     20  OE2 GLU A   1       6.961   6.457  23.481  0.00  0.00    -0.251 OA
BRANCH  19  21
ATOM     21  OE1 GLU A   1       9.026   6.198  22.601  0.00  0.00    -0.481 OA
ATOM     22  HE1 GLU A   1       9.772   5.564  22.578  0.00  0.00    +0.295 HD
ENDBRANCH  19  21
ENDBRANCH  18  19
ENDBRANCH  17  18
ENDBRANCH  12  17
ENDBRANCH   9  12
ENDBRANCH   5   8
ENDBRANCH   1   2
BRANCH   1  23
ATOM     23  C   UNK A   0       5.538  -4.773  22.390  0.00  0.00    +0.343 C 
BRANCH  23  24
ATOM     24  C   UNK A   0       6.392  -5.778  21.529  0.00  0.00    +0.468 C 
ATOM     25  F   UNK A   0       7.678  -5.338  21.471  0.00  0.00    -0.164 F 
ATOM     26  F   UNK A   0       5.949  -5.865  20.254  0.00  0.00    -0.164 F 
ATOM     27  F   UNK A   0       6.418  -7.032  22.022  0.00  0.00    -0.164 F 
ENDBRANCH  23  24
BRANCH  23  28
ATOM     28  O   UNK A   0       5.323  -3.520  21.711  0.00  0.00    -0.499 OA
ATOM     29  H   UNK A   0       6.171  -3.281  21.287  0.00  0.00    +0.288 HD
ENDBRANCH  23  28
BRANCH  23  30
ATOM     30  O   UNK A   0       4.212  -5.301  22.585  0.00  0.00    -0.499 OA
ATOM     31  H   UNK A   0       3.867  -5.569  21.719  0.00  0.00    +0.288 HD
ENDBRANCH  23  30
ENDBRANCH   1  23
BRANCH   1  32
ATOM     32  C   UNK A   0       6.795  -5.681  24.471  0.00  0.00    +0.016 C 
BRANCH  32  33
ATOM     33  C   UNK A   0       7.202  -5.343  25.908  0.00  0.00    +0.002 C 
BRANCH  33  34
ATOM     34  C   UNK A   0       6.041  -4.909  26.805  0.00  0.00    +0.015 C 
BRANCH  34  40
ATOM     35  C   UNK A   0       2.887  -7.147  28.791  0.00  0.00    +0.212 C 
ATOM     36  N   UNK A   0       4.246  -7.395  29.074  0.00  0.00    -0.287 N 
ATOM     37  H   UNK A   0       4.534  -7.901  29.908  0.00  0.00    +0.151 HD
ATOM     38  C   UNK A   0       5.311  -6.728  28.416  0.00  0.00    +0.221 C 
ATOM     39  O   UNK A   0       6.415  -6.796  28.934  0.00  0.00    -0.275 OA
ATOM     40  C   UNK A   0       5.050  -6.065  27.083  0.00  0.00    +0.106 C 
ATOM     41  C   UNK A   0       3.593  -5.631  27.020  0.00  0.00    +0.133 C 
ATOM     42  N   UNK A   0       2.702  -6.652  27.473  0.00  0.00    -0.270 NA
ATOM     43  H   UNK A   0       1.850  -6.852  26.968  0.00  0.00    +0.126 HD
BRANCH  41  44
ATOM     44  N   UNK A   0       3.180  -5.336  25.676  0.00  0.00    -0.315 NA
ATOM     45  H   UNK A   0       3.168  -4.340  25.462  0.00  0.00    +0.120 HD
ATOM     46  H   UNK A   0       3.717  -5.822  24.964  0.00  0.00    +0.120 HD
ENDBRANCH  41  44
BRANCH  35  47
ATOM     47  N   UNK A   0       2.127  -8.340  28.923  0.00  0.00    -0.300 NA
ATOM     48  H   UNK A   0       2.218  -9.101  28.255  0.00  0.00    +0.121 HD
ATOM     49  H   UNK A   0       1.306  -8.401  29.520  0.00  0.00    +0.121 HD
ENDBRANCH  35  47
ENDBRANCH  34  40
ENDBRANCH  33  34
ENDBRANCH  32  33
ENDBRANCH   1  32
TORSDOF 19
ENDMDL
