MODEL 1
REMARK VINA RESULT:      -7.9      0.000      0.000
REMARK  Name = 
REMARK  9 active torsions:
REMARK  status: ('A' for Active; 'I' for Inactive)
REMARK    1  A    between atoms: C_7  and  C_30
REMARK    2  A    between atoms: C_13  and  N_15
REMARK    3  A    between atoms: C_16  and  C_18
REMARK    4  A    between atoms: C_18  and  C_19
REMARK    5  A    between atoms: C_18  and  C_20
REMARK    6  A    between atoms: C_18  and  O_21
REMARK    7  A    between atoms: O_21  and  C_22
REMARK    8  A    between atoms: C_25  and  O_26
REMARK    9  A    between atoms: O_26  and  C_27
REMARK                            x       y       z     vdW  Elec       q    Type
REMARK                         _______ _______ _______ _____ _____    ______ ____
ROOT
ATOM      1  N   UNL     1       7.562  -3.111  22.540  0.00  0.00    -0.309 N 
ATOM      2  H   UNL     1       8.298  -3.685  22.920  0.00  0.00    +0.149 HD
ATOM      3  C   UNL     1       6.381  -3.736  22.204  0.00  0.00    +0.257 C 
ATOM      4  O   UNL     1       5.443  -3.104  21.718  0.00  0.00    -0.271 OA
ENDROOT
BRANCH   1   8
ATOM      5  C   UNL     1       9.723  -1.266  24.595  0.00  0.00    -0.009 C 
ATOM      6  C   UNL     1      10.164  -2.046  23.346  0.00  0.00    +0.009 C 
ATOM      7  C   UNL     1       9.391  -1.543  22.109  0.00  0.00    +0.011 C 
ATOM      8  C   UNL     1       7.866  -1.689  22.352  0.00  0.00    +0.079 C 
ATOM      9  C   UNL     1       7.469  -0.814  23.567  0.00  0.00    +0.011 C 
ATOM     10  C   UNL     1       7.877   0.667  23.327  0.00  0.00    +0.021 C 
ATOM     11  C   UNL     1       9.406   0.778  23.124  0.00  0.00    +0.048 C 
ATOM     12  C   UNL     1       9.756  -0.069  21.879  0.00  0.00    +0.021 C 
ATOM     13  C   UNL     1      10.104   0.199  24.383  0.00  0.00    +0.019 C 
ATOM     14  C   UNL     1       8.204  -1.345  24.810  0.00  0.00    +0.009 C 
BRANCH  11  15
ATOM     15  C   UNL     1       9.910   2.214  22.931  0.00  0.00    +0.217 C 
ATOM     16  O   UNL     1       9.830   3.086  23.794  0.00  0.00    -0.275 OA
ATOM     17  N   UNL     1      10.516   2.507  21.752  0.00  0.00    -0.329 N 
ATOM     18  H   UNL     1      10.927   3.428  21.673  0.00  0.00    +0.145 HD
ATOM     19  H   UNL     1      10.689   1.832  21.024  0.00  0.00    +0.145 HD
ENDBRANCH  11  15
ENDBRANCH   1   8
BRANCH   3  20
ATOM     20  C   UNL     1       6.323  -5.292  22.487  0.00  0.00    +0.180 C 
ATOM     21  C   UNL     1       7.688  -5.737  23.048  0.00  0.00    +0.065 C 
ATOM     22  C   UNL     1       6.006  -5.925  21.119  0.00  0.00    +0.065 C 
BRANCH  20  23
ATOM     23  O   UNL     1       5.273  -5.513  23.458  0.00  0.00    -0.477 OA
BRANCH  23  24
ATOM     24  C   UNL     1       5.469  -5.376  24.809  0.00  0.00    +0.122 A 
ATOM     25  C   UNL     1       5.117  -6.484  25.593  0.00  0.00    +0.049 A 
ATOM     26  C   UNL     1       5.302  -6.482  26.991  0.00  0.00    +0.049 A 
ATOM     27  C   UNL     1       5.851  -5.372  27.618  0.00  0.00    +0.120 A 
ATOM     28  C   UNL     1       6.193  -4.262  26.851  0.00  0.00    +0.049 A 
ATOM     29  C   UNL     1       5.987  -4.266  25.471  0.00  0.00    +0.049 A 
BRANCH  27  30
ATOM     30  O   UNL     1       6.181  -5.260  28.943  0.00  0.00    -0.495 OA
ATOM     31  C   UNL     1       6.053  -6.445  29.722  0.00  0.00    +0.277 C 
ENDBRANCH  27  30
ENDBRANCH  23  24
ENDBRANCH  20  23
ENDBRANCH   3  20
TORSDOF 6
ENDMDL
MODEL 2
REMARK VINA RESULT:      -7.4      2.164      3.690
REMARK  Name = 
REMARK  9 active torsions:
REMARK  status: ('A' for Active; 'I' for Inactive)
REMARK    1  A    between atoms: C_7  and  C_30
REMARK    2  A    between atoms: C_13  and  N_15
REMARK    3  A    between atoms: C_16  and  C_18
REMARK    4  A    between atoms: C_18  and  C_19
REMARK    5  A    between atoms: C_18  and  C_20
REMARK    6  A    between atoms: C_18  and  O_21
REMARK    7  A    between atoms: O_21  and  C_22
REMARK    8  A    between atoms: C_25  and  O_26
REMARK    9  A    between atoms: O_26  and  C_27
REMARK                            x       y       z     vdW  Elec       q    Type
REMARK                         _______ _______ _______ _____ _____    ______ ____
ROOT
ATOM      1  N   UNL     1       8.641  -2.036  24.577  0.00  0.00    -0.309 N 
ATOM      2  H   UNL     1       8.675  -2.454  23.660  0.00  0.00    +0.149 HD
ATOM      3  C   UNL     1       8.067  -2.774  25.588  0.00  0.00    +0.257 C 
ATOM      4  O   UNL     1       7.974  -2.323  26.730  0.00  0.00    -0.271 OA
ENDROOT
BRANCH   1   8
ATOM      5  C   UNL     1       9.412   0.033  21.852  0.00  0.00    -0.009 C 
ATOM      6  C   UNL     1       8.033  -0.038  22.529  0.00  0.00    +0.009 C 
ATOM      7  C   UNL     1       8.164   0.301  24.029  0.00  0.00    +0.011 C 
ATOM      8  C   UNL     1       9.168  -0.674  24.698  0.00  0.00    +0.079 C 
ATOM      9  C   UNL     1      10.556  -0.495  24.033  0.00  0.00    +0.011 C 
ATOM     10  C   UNL     1      11.024   0.984  24.143  0.00  0.00    +0.021 C 
ATOM     11  C   UNL     1      10.019   1.922  23.435  0.00  0.00    +0.048 C 
ATOM     12  C   UNL     1       8.661   1.749  24.154  0.00  0.00    +0.021 C 
ATOM     13  C   UNL     1       9.903   1.476  21.953  0.00  0.00    +0.019 C 
ATOM     14  C   UNL     1      10.436  -0.877  22.547  0.00  0.00    +0.009 C 
BRANCH  11  15
ATOM     15  C   UNL     1      10.425   3.401  23.447  0.00  0.00    +0.217 C 
ATOM     16  O   UNL     1      11.592   3.786  23.455  0.00  0.00    -0.275 OA
ATOM     17  N   UNL     1       9.427   4.320  23.399  0.00  0.00    -0.329 N 
ATOM     18  H   UNL     1       9.709   5.288  23.312  0.00  0.00    +0.145 HD
ATOM     19  H   UNL     1       8.450   4.088  23.314  0.00  0.00    +0.145 HD
ENDBRANCH  11  15
ENDBRANCH   1   8
BRANCH   3  20
ATOM     20  C   UNL     1       7.551  -4.214  25.180  0.00  0.00    +0.180 C 
ATOM     21  C   UNL     1       8.454  -5.266  25.856  0.00  0.00    +0.065 C 
ATOM     22  C   UNL     1       7.651  -4.242  23.644  0.00  0.00    +0.065 C 
BRANCH  20  23
ATOM     23  O   UNL     1       6.188  -4.331  25.651  0.00  0.00    -0.477 OA
BRANCH  23  24
ATOM     24  C   UNL     1       5.192  -4.914  24.910  0.00  0.00    +0.122 A 
ATOM     25  C   UNL     1       5.047  -6.300  25.063  0.00  0.00    +0.049 A 
ATOM     26  C   UNL     1       4.038  -7.013  24.383  0.00  0.00    +0.049 A 
ATOM     27  C   UNL     1       3.156  -6.341  23.548  0.00  0.00    +0.120 A 
ATOM     28  C   UNL     1       3.297  -4.966  23.379  0.00  0.00    +0.049 A 
ATOM     29  C   UNL     1       4.312  -4.274  24.040  0.00  0.00    +0.049 A 
BRANCH  27  30
ATOM     30  O   UNL     1       2.072  -6.876  22.903  0.00  0.00    -0.495 OA
ATOM     31  C   UNL     1       0.992  -5.984  22.646  0.00  0.00    +0.277 C 
ENDBRANCH  27  30
ENDBRANCH  23  24
ENDBRANCH  20  23
ENDBRANCH   3  20
TORSDOF 6
ENDMDL
MODEL 3
REMARK VINA RESULT:      -7.4      2.340      8.270
REMARK  Name = 
REMARK  9 active torsions:
REMARK  status: ('A' for Active; 'I' for Inactive)
REMARK    1  A    between atoms: C_7  and  C_30
REMARK    2  A    between atoms: C_13  and  N_15
REMARK    3  A    between atoms: C_16  and  C_18
REMARK    4  A    between atoms: C_18  and  C_19
REMARK    5  A    between atoms: C_18  and  C_20
REMARK    6  A    between atoms: C_18  and  O_21
REMARK    7  A    between atoms: O_21  and  C_22
REMARK    8  A    between atoms: C_25  and  O_26
REMARK    9  A    between atoms: O_26  and  C_27
REMARK                            x       y       z     vdW  Elec       q    Type
REMARK                         _______ _______ _______ _____ _____    ______ ____
ROOT
ATOM      1  N   UNL     1       7.879  -2.230  23.455  0.00  0.00    -0.309 N 
ATOM      2  H   UNL     1       8.756  -2.721  23.380  0.00  0.00    +0.149 HD
ATOM      3  C   UNL     1       7.887  -0.876  23.201  0.00  0.00    +0.257 C 
ATOM      4  O   UNL     1       6.858  -0.207  23.290  0.00  0.00    -0.271 OA
ENDROOT
BRANCH   1   8
ATOM      5  C   UNL     1       7.032  -5.357  22.113  0.00  0.00    -0.009 C 
ATOM      6  C   UNL     1       7.961  -5.151  23.320  0.00  0.00    +0.009 C 
ATOM      7  C   UNL     1       7.220  -4.376  24.430  0.00  0.00    +0.011 C 
ATOM      8  C   UNL     1       6.716  -3.020  23.872  0.00  0.00    +0.079 C 
ATOM      9  C   UNL     1       5.720  -3.295  22.718  0.00  0.00    +0.011 C 
ATOM     10  C   UNL     1       4.548  -4.188  23.213  0.00  0.00    +0.021 C 
ATOM     11  C   UNL     1       5.084  -5.544  23.729  0.00  0.00    +0.048 C 
ATOM     12  C   UNL     1       6.036  -5.231  24.906  0.00  0.00    +0.021 C 
ATOM     13  C   UNL     1       5.863  -6.226  22.573  0.00  0.00    +0.019 C 
ATOM     14  C   UNL     1       6.470  -4.026  21.591  0.00  0.00    +0.009 C 
BRANCH  11  15
ATOM     15  C   UNL     1       3.991  -6.515  24.192  0.00  0.00    +0.217 C 
ATOM     16  O   UNL     1       3.843  -6.868  25.360  0.00  0.00    -0.275 OA
ATOM     17  N   UNL     1       3.120  -6.965  23.252  0.00  0.00    -0.329 N 
ATOM     18  H   UNL     1       2.349  -7.530  23.585  0.00  0.00    +0.145 HD
ATOM     19  H   UNL     1       3.125  -6.667  22.290  0.00  0.00    +0.145 HD
ENDBRANCH  11  15
ENDBRANCH   1   8
BRANCH   3  20
ATOM     20  C   UNL     1       9.288  -0.263  22.793  0.00  0.00    +0.180 C 
ATOM     21  C   UNL     1       9.084   0.644  21.563  0.00  0.00    +0.065 C 
ATOM     22  C   UNL     1      10.175  -1.485  22.491  0.00  0.00    +0.065 C 
BRANCH  20  23
ATOM     23  O   UNL     1       9.765   0.505  23.922  0.00  0.00    -0.477 OA
BRANCH  23  24
ATOM     24  C   UNL     1       9.816   1.876  23.922  0.00  0.00    +0.122 A 
ATOM     25  C   UNL     1      11.026   2.444  23.499  0.00  0.00    +0.049 A 
ATOM     26  C   UNL     1      11.193   3.842  23.421  0.00  0.00    +0.049 A 
ATOM     27  C   UNL     1      10.145   4.687  23.758  0.00  0.00    +0.120 A 
ATOM     28  C   UNL     1       8.943   4.135  24.191  0.00  0.00    +0.049 A 
ATOM     29  C   UNL     1       8.795   2.751  24.285  0.00  0.00    +0.049 A 
BRANCH  27  30
ATOM     30  O   UNL     1      10.124   6.052  23.640  0.00  0.00    -0.495 OA
ATOM     31  C   UNL     1       8.837   6.651  23.530  0.00  0.00    +0.277 C 
ENDBRANCH  27  30
ENDBRANCH  23  24
ENDBRANCH  20  23
ENDBRANCH   3  20
TORSDOF 6
ENDMDL
MODEL 4
REMARK VINA RESULT:      -7.4      2.988      8.338
REMARK  Name = 
REMARK  9 active torsions:
REMARK  status: ('A' for Active; 'I' for Inactive)
REMARK    1  A    between atoms: C_7  and  C_30
REMARK    2  A    between atoms: C_13  and  N_15
REMARK    3  A    between atoms: C_16  and  C_18
REMARK    4  A    between atoms: C_18  and  C_19
REMARK    5  A    between atoms: C_18  and  C_20
REMARK    6  A    between atoms: C_18  and  O_21
REMARK    7  A    between atoms: O_21  and  C_22
REMARK    8  A    between atoms: C_25  and  O_26
REMARK    9  A    between atoms: O_26  and  C_27
REMARK                            x       y       z     vdW  Elec       q    Type
REMARK                         _______ _______ _______ _____ _____    ______ ____
ROOT
ATOM      1  N   UNL     1       7.173   0.903  23.464  0.00  0.00    -0.309 N 
ATOM      2  H   UNL     1       8.052   1.232  23.094  0.00  0.00    +0.149 HD
ATOM      3  C   UNL     1       6.231   1.852  23.796  0.00  0.00    +0.257 C 
ATOM      4  O   UNL     1       5.143   1.528  24.269  0.00  0.00    -0.271 OA
ENDROOT
BRANCH   1   8
ATOM      5  C   UNL     1       9.867  -1.297  23.909  0.00  0.00    -0.009 C 
ATOM      6  C   UNL     1       9.134  -0.577  25.052  0.00  0.00    +0.009 C 
ATOM      7  C   UNL     1       7.632  -0.929  25.020  0.00  0.00    +0.011 C 
ATOM      8  C   UNL     1       7.035  -0.545  23.641  0.00  0.00    +0.079 C 
ATOM      9  C   UNL     1       7.754  -1.366  22.541  0.00  0.00    +0.011 C 
ATOM     10  C   UNL     1       7.621  -2.889  22.826  0.00  0.00    +0.021 C 
ATOM     11  C   UNL     1       8.257  -3.239  24.191  0.00  0.00    +0.048 C 
ATOM     12  C   UNL     1       7.486  -2.438  25.265  0.00  0.00    +0.021 C 
ATOM     13  C   UNL     1       9.745  -2.800  24.158  0.00  0.00    +0.019 C 
ATOM     14  C   UNL     1       9.243  -0.981  22.541  0.00  0.00    +0.009 C 
BRANCH  11  15
ATOM     15  C   UNL     1       8.220  -4.734  24.535  0.00  0.00    +0.217 C 
ATOM     16  O   UNL     1       9.060  -5.543  24.149  0.00  0.00    -0.275 OA
ATOM     17  N   UNL     1       7.221  -5.160  25.350  0.00  0.00    -0.329 N 
ATOM     18  H   UNL     1       7.261  -6.126  25.646  0.00  0.00    +0.145 HD
ATOM     19  H   UNL     1       6.537  -4.549  25.770  0.00  0.00    +0.145 HD
ENDBRANCH  11  15
ENDBRANCH   1   8
BRANCH   3  20
ATOM     20  C   UNL     1       6.647   3.356  23.527  0.00  0.00    +0.180 C 
ATOM     21  C   UNL     1       5.408   4.250  23.737  0.00  0.00    +0.065 C 
ATOM     22  C   UNL     1       7.148   3.366  22.071  0.00  0.00    +0.065 C 
BRANCH  20  23
ATOM     23  O   UNL     1       7.687   3.689  24.476  0.00  0.00    -0.477 OA
BRANCH  23  24
ATOM     24  C   UNL     1       8.985   3.930  24.103  0.00  0.00    +0.122 A 
ATOM     25  C   UNL     1       9.388   5.272  24.117  0.00  0.00    +0.049 A 
ATOM     26  C   UNL     1      10.707   5.647  23.788  0.00  0.00    +0.049 A 
ATOM     27  C   UNL     1      11.641   4.677  23.449  0.00  0.00    +0.120 A 
ATOM     28  C   UNL     1      11.249   3.342  23.420  0.00  0.00    +0.049 A 
ATOM     29  C   UNL     1       9.936   2.984  23.727  0.00  0.00    +0.049 A 
BRANCH  27  30
ATOM     30  O   UNL     1      12.974   4.876  23.204  0.00  0.00    -0.495 OA
ATOM     31  C   UNL     1      13.291   5.634  22.042  0.00  0.00    +0.277 C 
ENDBRANCH  27  30
ENDBRANCH  23  24
ENDBRANCH  20  23
ENDBRANCH   3  20
TORSDOF 6
ENDMDL
MODEL 5
REMARK VINA RESULT:      -7.3      1.914      2.907
REMARK  Name = 
REMARK  9 active torsions:
REMARK  status: ('A' for Active; 'I' for Inactive)
REMARK    1  A    between atoms: C_7  and  C_30
REMARK    2  A    between atoms: C_13  and  N_15
REMARK    3  A    between atoms: C_16  and  C_18
REMARK    4  A    between atoms: C_18  and  C_19
REMARK    5  A    between atoms: C_18  and  C_20
REMARK    6  A    between atoms: C_18  and  O_21
REMARK    7  A    between atoms: O_21  and  C_22
REMARK    8  A    between atoms: C_25  and  O_26
REMARK    9  A    between atoms: O_26  and  C_27
REMARK                            x       y       z     vdW  Elec       q    Type
REMARK                         _______ _______ _______ _____ _____    ______ ____
ROOT
ATOM      1  N   UNL     1       8.394  -1.422  23.353  0.00  0.00    -0.309 N 
ATOM      2  H   UNL     1       7.416  -1.209  23.231  0.00  0.00    +0.149 HD
ATOM      3  C   UNL     1       8.725  -2.722  23.667  0.00  0.00    +0.257 C 
ATOM      4  O   UNL     1       9.896  -3.053  23.848  0.00  0.00    -0.271 OA
ENDROOT
BRANCH   1   8
ATOM      5  C   UNL     1       7.493   1.953  23.659  0.00  0.00    -0.009 C 
ATOM      6  C   UNL     1       7.930   1.060  24.830  0.00  0.00    +0.009 C 
ATOM      7  C   UNL     1       9.337   0.487  24.560  0.00  0.00    +0.011 C 
ATOM      8  C   UNL     1       9.332  -0.303  23.225  0.00  0.00    +0.079 C 
ATOM      9  C   UNL     1       8.969   0.669  22.074  0.00  0.00    +0.011 C 
ATOM     10  C   UNL     1       9.965   1.862  22.036  0.00  0.00    +0.021 C 
ATOM     11  C   UNL     1       9.917   2.645  23.368  0.00  0.00    +0.048 C 
ATOM     12  C   UNL     1      10.328   1.658  24.485  0.00  0.00    +0.021 C 
ATOM     13  C   UNL     1       8.461   3.133  23.591  0.00  0.00    +0.019 C 
ATOM     14  C   UNL     1       7.548   1.204  22.318  0.00  0.00    +0.009 C 
BRANCH  11  15
ATOM     15  C   UNL     1      10.832   3.877  23.405  0.00  0.00    +0.217 C 
ATOM     16  O   UNL     1      12.059   3.815  23.379  0.00  0.00    -0.275 OA
ATOM     17  N   UNL     1      10.233   5.096  23.422  0.00  0.00    -0.329 N 
ATOM     18  H   UNL     1      10.844   5.899  23.351  0.00  0.00    +0.145 HD
ATOM     19  H   UNL     1       9.237   5.235  23.369  0.00  0.00    +0.145 HD
ENDBRANCH  11  15
ENDBRANCH   1   8
BRANCH   3  20
ATOM     20  C   UNL     1       7.511  -3.733  23.771  0.00  0.00    +0.180 C 
ATOM     21  C   UNL     1       7.249  -4.327  22.373  0.00  0.00    +0.065 C 
ATOM     22  C   UNL     1       6.337  -2.880  24.286  0.00  0.00    +0.065 C 
BRANCH  20  23
ATOM     23  O   UNL     1       7.896  -4.770  24.704  0.00  0.00    -0.477 OA
BRANCH  23  24
ATOM     24  C   UNL     1       7.019  -5.330  25.598  0.00  0.00    +0.122 A 
ATOM     25  C   UNL     1       7.338  -5.165  26.953  0.00  0.00    +0.049 A 
ATOM     26  C   UNL     1       6.498  -5.664  27.971  0.00  0.00    +0.049 A 
ATOM     27  C   UNL     1       5.323  -6.326  27.640  0.00  0.00    +0.120 A 
ATOM     28  C   UNL     1       5.003  -6.505  26.298  0.00  0.00    +0.049 A 
ATOM     29  C   UNL     1       5.850  -6.026  25.299  0.00  0.00    +0.049 A 
BRANCH  27  30
ATOM     30  O   UNL     1       4.365  -6.775  28.510  0.00  0.00    -0.495 OA
ATOM     31  C   UNL     1       3.042  -6.301  28.284  0.00  0.00    +0.277 C 
ENDBRANCH  27  30
ENDBRANCH  23  24
ENDBRANCH  20  23
ENDBRANCH   3  20
TORSDOF 6
ENDMDL
MODEL 6
REMARK VINA RESULT:      -7.2      1.839      2.844
REMARK  Name = 
REMARK  9 active torsions:
REMARK  status: ('A' for Active; 'I' for Inactive)
REMARK    1  A    between atoms: C_7  and  C_30
REMARK    2  A    between atoms: C_13  and  N_15
REMARK    3  A    between atoms: C_16  and  C_18
REMARK    4  A    between atoms: C_18  and  C_19
REMARK    5  A    between atoms: C_18  and  C_20
REMARK    6  A    between atoms: C_18  and  O_21
REMARK    7  A    between atoms: O_21  and  C_22
REMARK    8  A    between atoms: C_25  and  O_26
REMARK    9  A    between atoms: O_26  and  C_27
REMARK                            x       y       z     vdW  Elec       q    Type
REMARK                         _______ _______ _______ _____ _____    ______ ____
ROOT
ATOM      1  N   UNL     1       8.461  -1.813  24.383  0.00  0.00    -0.309 N 
ATOM      2  H   UNL     1       8.151  -2.054  23.455  0.00  0.00    +0.149 HD
ATOM      3  C   UNL     1       8.291  -2.757  25.373  0.00  0.00    +0.257 C 
ATOM      4  O   UNL     1       8.630  -2.529  26.533  0.00  0.00    -0.271 OA
ENDROOT
BRANCH   1   8
ATOM      5  C   UNL     1       9.490   0.269  21.756  0.00  0.00    -0.009 C 
ATOM      6  C   UNL     1       8.063   0.226  22.325  0.00  0.00    +0.009 C 
ATOM      7  C   UNL     1       8.087   0.543  23.836  0.00  0.00    +0.011 C 
ATOM      8  C   UNL     1       9.011  -0.467  24.565  0.00  0.00    +0.079 C 
ATOM      9  C   UNL     1      10.450  -0.316  24.010  0.00  0.00    +0.011 C 
ATOM     10  C   UNL     1      10.946   1.148  24.176  0.00  0.00    +0.021 C 
ATOM     11  C   UNL     1      10.022   2.121  23.408  0.00  0.00    +0.048 C 
ATOM     12  C   UNL     1       8.609   1.975  24.019  0.00  0.00    +0.021 C 
ATOM     13  C   UNL     1      10.008   1.698  21.915  0.00  0.00    +0.019 C 
ATOM     14  C   UNL     1      10.435  -0.676  22.514  0.00  0.00    +0.009 C 
BRANCH  11  15
ATOM     15  C   UNL     1      10.464   3.589  23.472  0.00  0.00    +0.217 C 
ATOM     16  O   UNL     1      11.639   3.946  23.490  0.00  0.00    -0.275 OA
ATOM     17  N   UNL     1       9.487   4.533  23.463  0.00  0.00    -0.329 N 
ATOM     18  H   UNL     1       9.793   5.496  23.410  0.00  0.00    +0.145 HD
ATOM     19  H   UNL     1       8.505   4.327  23.374  0.00  0.00    +0.145 HD
ENDBRANCH  11  15
ENDBRANCH   1   8
BRANCH   3  20
ATOM     20  C   UNL     1       7.645  -4.127  24.911  0.00  0.00    +0.180 C 
ATOM     21  C   UNL     1       8.405  -5.280  25.596  0.00  0.00    +0.065 C 
ATOM     22  C   UNL     1       7.804  -4.135  23.379  0.00  0.00    +0.065 C 
BRANCH  20  23
ATOM     23  O   UNL     1       6.259  -4.108  25.326  0.00  0.00    -0.477 OA
BRANCH  23  24
ATOM     24  C   UNL     1       5.789  -4.843  26.385  0.00  0.00    +0.122 A 
ATOM     25  C   UNL     1       5.121  -6.031  26.057  0.00  0.00    +0.049 A 
ATOM     26  C   UNL     1       4.622  -6.892  27.056  0.00  0.00    +0.049 A 
ATOM     27  C   UNL     1       4.794  -6.575  28.397  0.00  0.00    +0.120 A 
ATOM     28  C   UNL     1       5.445  -5.391  28.734  0.00  0.00    +0.049 A 
ATOM     29  C   UNL     1       5.917  -4.537  27.738  0.00  0.00    +0.049 A 
BRANCH  27  30
ATOM     30  O   UNL     1       4.455  -7.353  29.472  0.00  0.00    -0.495 OA
ATOM     31  C   UNL     1       3.142  -7.169  29.989  0.00  0.00    +0.277 C 
ENDBRANCH  27  30
ENDBRANCH  23  24
ENDBRANCH  20  23
ENDBRANCH   3  20
TORSDOF 6
ENDMDL
MODEL 7
REMARK VINA RESULT:      -7.1      2.413      8.152
REMARK  Name = 
REMARK  9 active torsions:
REMARK  status: ('A' for Active; 'I' for Inactive)
REMARK    1  A    between atoms: C_7  and  C_30
REMARK    2  A    between atoms: C_13  and  N_15
REMARK    3  A    between atoms: C_16  and  C_18
REMARK    4  A    between atoms: C_18  and  C_19
REMARK    5  A    between atoms: C_18  and  C_20
REMARK    6  A    between atoms: C_18  and  O_21
REMARK    7  A    between atoms: O_21  and  C_22
REMARK    8  A    between atoms: C_25  and  O_26
REMARK    9  A    between atoms: O_26  and  C_27
REMARK                            x       y       z     vdW  Elec       q    Type
REMARK                         _______ _______ _______ _____ _____    ______ ____
ROOT
ATOM      1  N   UNL     1       8.262  -2.212  23.664  0.00  0.00    -0.309 N 
ATOM      2  H   UNL     1       9.178  -2.636  23.653  0.00  0.00    +0.149 HD
ATOM      3  C   UNL     1       8.164  -0.907  23.231  0.00  0.00    +0.257 C 
ATOM      4  O   UNL     1       7.083  -0.318  23.232  0.00  0.00    -0.271 OA
ENDROOT
BRANCH   1   8
ATOM      5  C   UNL     1       8.576  -4.468  26.330  0.00  0.00    -0.009 C 
ATOM      6  C   UNL     1       8.215  -2.982  26.485  0.00  0.00    +0.009 C 
ATOM      7  C   UNL     1       6.942  -2.660  25.675  0.00  0.00    +0.011 C 
ATOM      8  C   UNL     1       7.164  -3.030  24.185  0.00  0.00    +0.079 C 
ATOM      9  C   UNL     1       7.437  -4.553  24.085  0.00  0.00    +0.011 C 
ATOM     10  C   UNL     1       6.264  -5.357  24.713  0.00  0.00    +0.021 C 
ATOM     11  C   UNL     1       6.095  -4.989  26.204  0.00  0.00    +0.048 C 
ATOM     12  C   UNL     1       5.780  -3.476  26.261  0.00  0.00    +0.021 C 
ATOM     13  C   UNL     1       7.434  -5.286  26.931  0.00  0.00    +0.019 C 
ATOM     14  C   UNL     1       8.732  -4.866  24.854  0.00  0.00    +0.009 C 
BRANCH  11  15
ATOM     15  C   UNL     1       4.990  -5.774  26.924  0.00  0.00    +0.217 C 
ATOM     16  O   UNL     1       3.922  -5.279  27.276  0.00  0.00    -0.275 OA
ATOM     17  N   UNL     1       5.205  -7.098  27.133  0.00  0.00    -0.329 N 
ATOM     18  H   UNL     1       4.433  -7.624  27.522  0.00  0.00    +0.145 HD
ATOM     19  H   UNL     1       6.019  -7.596  26.809  0.00  0.00    +0.145 HD
ENDBRANCH  11  15
ENDBRANCH   1   8
BRANCH   3  20
ATOM     20  C   UNL     1       9.514  -0.242  22.742  0.00  0.00    +0.180 C 
ATOM     21  C   UNL     1       9.203   0.662  21.532  0.00  0.00    +0.065 C 
ATOM     22  C   UNL     1      10.424  -1.430  22.379  0.00  0.00    +0.065 C 
BRANCH  20  23
ATOM     23  O   UNL     1      10.032   0.538  23.845  0.00  0.00    -0.477 OA
BRANCH  23  24
ATOM     24  C   UNL     1       9.948   1.907  23.892  0.00  0.00    +0.122 A 
ATOM     25  C   UNL     1      11.090   2.605  23.477  0.00  0.00    +0.049 A 
ATOM     26  C   UNL     1      11.118   4.015  23.447  0.00  0.00    +0.049 A 
ATOM     27  C   UNL     1       9.996   4.740  23.825  0.00  0.00    +0.120 A 
ATOM     28  C   UNL     1       8.861   4.058  24.250  0.00  0.00    +0.049 A 
ATOM     29  C   UNL     1       8.850   2.664  24.296  0.00  0.00    +0.049 A 
BRANCH  27  30
ATOM     30  O   UNL     1       9.840   6.099  23.754  0.00  0.00    -0.495 OA
ATOM     31  C   UNL     1       8.581   6.561  23.275  0.00  0.00    +0.277 C 
ENDBRANCH  27  30
ENDBRANCH  23  24
ENDBRANCH  20  23
ENDBRANCH   3  20
TORSDOF 6
ENDMDL
MODEL 8
REMARK VINA RESULT:      -7.0      2.489      8.201
REMARK  Name = 
REMARK  9 active torsions:
REMARK  status: ('A' for Active; 'I' for Inactive)
REMARK    1  A    between atoms: C_7  and  C_30
REMARK    2  A    between atoms: C_13  and  N_15
REMARK    3  A    between atoms: C_16  and  C_18
REMARK    4  A    between atoms: C_18  and  C_19
REMARK    5  A    between atoms: C_18  and  C_20
REMARK    6  A    between atoms: C_18  and  O_21
REMARK    7  A    between atoms: O_21  and  C_22
REMARK    8  A    between atoms: C_25  and  O_26
REMARK    9  A    between atoms: O_26  and  C_27
REMARK                            x       y       z     vdW  Elec       q    Type
REMARK                         _______ _______ _______ _____ _____    ______ ____
ROOT
ATOM      1  N   UNL     1       7.906  -2.686  24.617  0.00  0.00    -0.309 N 
ATOM      2  H   UNL     1       7.193  -1.978  24.532  0.00  0.00    +0.149 HD
ATOM      3  C   UNL     1       9.129  -2.424  24.039  0.00  0.00    +0.257 C 
ATOM      4  O   UNL     1      10.043  -3.248  24.086  0.00  0.00    -0.271 OA
ENDROOT
BRANCH   1   8
ATOM      5  C   UNL     1       4.866  -3.155  26.300  0.00  0.00    -0.009 C 
ATOM      6  C   UNL     1       5.092  -3.458  24.810  0.00  0.00    +0.009 C 
ATOM      7  C   UNL     1       6.239  -4.477  24.647  0.00  0.00    +0.011 C 
ATOM      8  C   UNL     1       7.528  -3.922  25.307  0.00  0.00    +0.079 C 
ATOM      9  C   UNL     1       7.264  -3.720  26.821  0.00  0.00    +0.011 C 
ATOM     10  C   UNL     1       6.806  -5.053  27.476  0.00  0.00    +0.021 C 
ATOM     11  C   UNL     1       5.502  -5.557  26.817  0.00  0.00    +0.048 C 
ATOM     12  C   UNL     1       5.816  -5.791  25.321  0.00  0.00    +0.021 C 
ATOM     13  C   UNL     1       4.423  -4.453  26.974  0.00  0.00    +0.019 C 
ATOM     14  C   UNL     1       6.153  -2.669  26.985  0.00  0.00    +0.009 C 
BRANCH  11  15
ATOM     15  C   UNL     1       4.944  -6.846  27.435  0.00  0.00    +0.217 C 
ATOM     16  O   UNL     1       5.473  -7.436  28.373  0.00  0.00    -0.275 OA
ATOM     17  N   UNL     1       3.774  -7.320  26.933  0.00  0.00    -0.329 N 
ATOM     18  H   UNL     1       3.368  -8.114  27.410  0.00  0.00    +0.145 HD
ATOM     19  H   UNL     1       3.238  -6.855  26.217  0.00  0.00    +0.145 HD
ENDBRANCH  11  15
ENDBRANCH   1   8
BRANCH   3  20
ATOM     20  C   UNL     1       9.266  -1.016  23.329  0.00  0.00    +0.180 C 
ATOM     21  C   UNL     1       7.855  -0.515  22.962  0.00  0.00    +0.065 C 
ATOM     22  C   UNL     1      10.142  -1.288  22.091  0.00  0.00    +0.065 C 
BRANCH  20  23
ATOM     23  O   UNL     1       9.900  -0.121  24.272  0.00  0.00    -0.477 OA
BRANCH  23  24
ATOM     24  C   UNL     1       9.637   1.225  24.313  0.00  0.00    +0.122 A 
ATOM     25  C   UNL     1      10.481   2.038  23.544  0.00  0.00    +0.049 A 
ATOM     26  C   UNL     1      10.293   3.434  23.474  0.00  0.00    +0.049 A 
ATOM     27  C   UNL     1       9.249   4.030  24.169  0.00  0.00    +0.120 A 
ATOM     28  C   UNL     1       8.411   3.234  24.945  0.00  0.00    +0.049 A 
ATOM     29  C   UNL     1       8.619   1.857  25.024  0.00  0.00    +0.049 A 
BRANCH  27  30
ATOM     30  O   UNL     1       8.882   5.349  24.121  0.00  0.00    -0.495 OA
ATOM     31  C   UNL     1       9.934   6.284  23.909  0.00  0.00    +0.277 C 
ENDBRANCH  27  30
ENDBRANCH  23  24
ENDBRANCH  20  23
ENDBRANCH   3  20
TORSDOF 6
ENDMDL
MODEL 9
REMARK VINA RESULT:      -6.9      2.223      3.724
REMARK  Name = 
REMARK  9 active torsions:
REMARK  status: ('A' for Active; 'I' for Inactive)
REMARK    1  A    between atoms: C_7  and  C_30
REMARK    2  A    between atoms: C_13  and  N_15
REMARK    3  A    between atoms: C_16  and  C_18
REMARK    4  A    between atoms: C_18  and  C_19
REMARK    5  A    between atoms: C_18  and  C_20
REMARK    6  A    between atoms: C_18  and  O_21
REMARK    7  A    between atoms: O_21  and  C_22
REMARK    8  A    between atoms: C_25  and  O_26
REMARK    9  A    between atoms: O_26  and  C_27
REMARK                            x       y       z     vdW  Elec       q    Type
REMARK                         _______ _______ _______ _____ _____    ______ ____
ROOT
ATOM      1  N   UNL     1       8.659  -0.816  23.624  0.00  0.00    -0.309 N 
ATOM      2  H   UNL     1       8.319  -1.010  22.694  0.00  0.00    +0.149 HD
ATOM      3  C   UNL     1       8.531  -1.815  24.565  0.00  0.00    +0.257 C 
ATOM      4  O   UNL     1       8.907  -1.646  25.724  0.00  0.00    -0.271 OA
ENDROOT
BRANCH   1   8
ATOM      5  C   UNL     1       7.523   2.085  22.016  0.00  0.00    -0.009 C 
ATOM      6  C   UNL     1       6.946   1.536  23.330  0.00  0.00    +0.009 C 
ATOM      7  C   UNL     1       8.060   1.429  24.392  0.00  0.00    +0.011 C 
ATOM      8  C   UNL     1       9.202   0.524  23.860  0.00  0.00    +0.079 C 
ATOM      9  C   UNL     1       9.800   1.174  22.586  0.00  0.00    +0.011 C 
ATOM     10  C   UNL     1      10.298   2.614  22.893  0.00  0.00    +0.021 C 
ATOM     11  C   UNL     1       9.128   3.495  23.387  0.00  0.00    +0.048 C 
ATOM     12  C   UNL     1       8.588   2.842  24.680  0.00  0.00    +0.021 C 
ATOM     13  C   UNL     1       8.030   3.501  22.290  0.00  0.00    +0.019 C 
ATOM     14  C   UNL     1       8.701   1.238  21.511  0.00  0.00    +0.009 C 
BRANCH  11  15
ATOM     15  C   UNL     1       9.514   4.953  23.666  0.00  0.00    +0.217 C 
ATOM     16  O   UNL     1      10.383   5.285  24.469  0.00  0.00    -0.275 OA
ATOM     17  N   UNL     1       8.882   5.914  22.943  0.00  0.00    -0.329 N 
ATOM     18  H   UNL     1       9.212   6.862  23.068  0.00  0.00    +0.145 HD
ATOM     19  H   UNL     1       8.214   5.722  22.213  0.00  0.00    +0.145 HD
ENDBRANCH  11  15
ENDBRANCH   1   8
BRANCH   3  20
ATOM     20  C   UNL     1       7.882  -3.164  24.051  0.00  0.00    +0.180 C 
ATOM     21  C   UNL     1       8.737  -4.341  24.561  0.00  0.00    +0.065 C 
ATOM     22  C   UNL     1       7.893  -3.041  22.516  0.00  0.00    +0.065 C 
BRANCH  20  23
ATOM     23  O   UNL     1       6.543  -3.230  24.595  0.00  0.00    -0.477 OA
BRANCH  23  24
ATOM     24  C   UNL     1       5.820  -4.394  24.652  0.00  0.00    +0.122 A 
ATOM     25  C   UNL     1       5.142  -4.751  23.478  0.00  0.00    +0.049 A 
ATOM     26  C   UNL     1       4.391  -5.943  23.398  0.00  0.00    +0.049 A 
ATOM     27  C   UNL     1       4.320  -6.794  24.492  0.00  0.00    +0.120 A 
ATOM     28  C   UNL     1       4.979  -6.444  25.666  0.00  0.00    +0.049 A 
ATOM     29  C   UNL     1       5.702  -5.253  25.742  0.00  0.00    +0.049 A 
BRANCH  27  30
ATOM     30  O   UNL     1       3.717  -8.024  24.533  0.00  0.00    -0.495 OA
ATOM     31  C   UNL     1       2.377  -8.049  25.011  0.00  0.00    +0.277 C 
ENDBRANCH  27  30
ENDBRANCH  23  24
ENDBRANCH  20  23
ENDBRANCH   3  20
TORSDOF 6
ENDMDL
