MODEL 1
REMARK VINA RESULT:      -5.8      0.000      0.000
REMARK  Name = 
REMARK  3 active torsions:
REMARK  status: ('A' for Active; 'I' for Inactive)
REMARK    1  A    between atoms: O_1  and  C_2
REMARK    2  A    between atoms: C_5  and  C_6
REMARK    3  A    between atoms: C_7  and  C_9
REMARK                            x       y       z     vdW  Elec       q    Type
REMARK                         _______ _______ _______ _____ _____    ______ ____
ROOT
ATOM      1  C   UNL     1       9.932   1.096  22.102  0.00  0.00    +0.117 A 
ATOM      2  C   UNL     1       9.473  -0.005  21.394  0.00  0.00    +0.046 A 
ATOM      3  C   UNL     1       9.436  -1.259  22.010  0.00  0.00    +0.011 A 
ATOM      4  C   UNL     1       9.849  -1.416  23.339  0.00  0.00    -0.022 A 
ATOM      5  C   UNL     1      10.307  -0.288  24.037  0.00  0.00    +0.011 A 
ATOM      6  C   UNL     1      10.345   0.968  23.424  0.00  0.00    +0.046 A 
ENDROOT
BRANCH   4   7
ATOM      7  C   UNL     1       9.910  -2.726  24.002  0.00  0.00    +0.048 C 
ATOM      8  C   UNL     1       8.966  -3.279  24.781  0.00  0.00    +0.146 C 
ATOM      9  F   UNL     1       7.827  -2.592  25.048  0.00  0.00    -0.204 F 
BRANCH   8  10
ATOM     10  C   UNL     1       9.169  -4.694  25.397  0.00  0.00    +0.100 C 
ATOM     11  O   UNL     1       9.402  -5.615  24.560  0.00  0.00    -0.542 OA
ATOM     12  O   UNL     1       9.084  -4.771  26.659  0.00  0.00    -0.542 OA
ENDBRANCH   8  10
ENDBRANCH   4   7
BRANCH   1  13
ATOM     13  O   UNL     1       9.979   2.298  21.459  0.00  0.00    -0.507 OA
ATOM     14  H   UNL     1      10.402   2.160  20.597  0.00  0.00    +0.292 HD
ENDBRANCH   1  13
TORSDOF 3
ENDMDL
MODEL 2
REMARK VINA RESULT:      -5.7      0.134      1.616
REMARK  Name = 
REMARK  3 active torsions:
REMARK  status: ('A' for Active; 'I' for Inactive)
REMARK    1  A    between atoms: O_1  and  C_2
REMARK    2  A    between atoms: C_5  and  C_6
REMARK    3  A    between atoms: C_7  and  C_9
REMARK                            x       y       z     vdW  Elec       q    Type
REMARK                         _______ _______ _______ _____ _____    ______ ____
ROOT
ATOM      1  C   UNL     1       9.813   1.100  22.039  0.00  0.00    +0.117 A 
ATOM      2  C   UNL     1      10.292   1.019  23.339  0.00  0.00    +0.046 A 
ATOM      3  C   UNL     1      10.376  -0.226  23.970  0.00  0.00    +0.011 A 
ATOM      4  C   UNL     1       9.993  -1.395  23.301  0.00  0.00    -0.022 A 
ATOM      5  C   UNL     1       9.515  -1.289  21.986  0.00  0.00    +0.011 A 
ATOM      6  C   UNL     1       9.428  -0.046  21.351  0.00  0.00    +0.046 A 
ENDROOT
BRANCH   4   7
ATOM      7  C   UNL     1       9.983  -2.713  23.949  0.00  0.00    +0.048 C 
ATOM      8  C   UNL     1       9.031  -3.204  24.761  0.00  0.00    +0.146 C 
ATOM      9  F   UNL     1       7.958  -2.439  25.080  0.00  0.00    -0.204 F 
BRANCH   8  10
ATOM     10  C   UNL     1       9.153  -4.638  25.355  0.00  0.00    +0.100 C 
ATOM     11  O   UNL     1       9.078  -4.703  26.617  0.00  0.00    -0.542 OA
ATOM     12  O   UNL     1       9.307  -5.577  24.519  0.00  0.00    -0.542 OA
ENDBRANCH   8  10
ENDBRANCH   4   7
BRANCH   1  13
ATOM     13  O   UNL     1       9.719   2.334  21.466  0.00  0.00    -0.507 OA
ATOM     14  H   UNL     1       9.169   2.890  22.040  0.00  0.00    +0.292 HD
ENDBRANCH   1  13
TORSDOF 3
ENDMDL
MODEL 3
REMARK VINA RESULT:      -5.4      3.838      7.023
REMARK  Name = 
REMARK  3 active torsions:
REMARK  status: ('A' for Active; 'I' for Inactive)
REMARK    1  A    between atoms: O_1  and  C_2
REMARK    2  A    between atoms: C_5  and  C_6
REMARK    3  A    between atoms: C_7  and  C_9
REMARK                            x       y       z     vdW  Elec       q    Type
REMARK                         _______ _______ _______ _____ _____    ______ ____
ROOT
ATOM      1  C   UNL     1      10.081  -0.437  22.320  0.00  0.00    +0.117 A 
ATOM      2  C   UNL     1      10.617  -0.100  23.555  0.00  0.00    +0.046 A 
ATOM      3  C   UNL     1      10.585   1.230  23.983  0.00  0.00    +0.011 A 
ATOM      4  C   UNL     1      10.010   2.226  23.183  0.00  0.00    -0.022 A 
ATOM      5  C   UNL     1       9.471   1.861  21.940  0.00  0.00    +0.011 A 
ATOM      6  C   UNL     1       9.502   0.531  21.508  0.00  0.00    +0.046 A 
ENDROOT
BRANCH   4   7
ATOM      7  C   UNL     1      10.029   3.648  23.551  0.00  0.00    +0.048 C 
ATOM      8  C   UNL     1      11.106   4.450  23.614  0.00  0.00    +0.146 C 
ATOM      9  F   UNL     1      12.337   3.944  23.353  0.00  0.00    -0.204 F 
BRANCH   8  10
ATOM     10  C   UNL     1      10.961   5.951  23.999  0.00  0.00    +0.100 C 
ATOM     11  O   UNL     1       9.865   6.488  23.663  0.00  0.00    -0.542 OA
ATOM     12  O   UNL     1      11.946   6.468  24.607  0.00  0.00    -0.542 OA
ENDBRANCH   8  10
ENDBRANCH   4   7
BRANCH   1  13
ATOM     13  O   UNL     1      10.155  -1.741  21.923  0.00  0.00    -0.507 OA
ATOM     14  H   UNL     1      10.548  -2.252  22.648  0.00  0.00    +0.292 HD
ENDBRANCH   1  13
TORSDOF 3
ENDMDL
MODEL 4
REMARK VINA RESULT:      -5.1      1.655      1.927
REMARK  Name = 
REMARK  3 active torsions:
REMARK  status: ('A' for Active; 'I' for Inactive)
REMARK    1  A    between atoms: O_1  and  C_2
REMARK    2  A    between atoms: C_5  and  C_6
REMARK    3  A    between atoms: C_7  and  C_9
REMARK                            x       y       z     vdW  Elec       q    Type
REMARK                         _______ _______ _______ _____ _____    ______ ____
ROOT
ATOM      1  C   UNL     1       8.622   1.298  21.898  0.00  0.00    +0.117 A 
ATOM      2  C   UNL     1       9.530   0.326  21.500  0.00  0.00    +0.046 A 
ATOM      3  C   UNL     1       9.314  -1.009  21.854  0.00  0.00    +0.011 A 
ATOM      4  C   UNL     1       8.185  -1.379  22.596  0.00  0.00    -0.022 A 
ATOM      5  C   UNL     1       7.279  -0.380  22.984  0.00  0.00    +0.011 A 
ATOM      6  C   UNL     1       7.492   0.957  22.633  0.00  0.00    +0.046 A 
ENDROOT
BRANCH   4   7
ATOM      7  C   UNL     1       7.959  -2.753  23.063  0.00  0.00    +0.048 C 
ATOM      8  C   UNL     1       8.768  -3.479  23.854  0.00  0.00    +0.146 C 
ATOM      9  F   UNL     1       9.947  -2.954  24.272  0.00  0.00    -0.204 F 
BRANCH   8  10
ATOM     10  C   UNL     1       8.376  -4.922  24.285  0.00  0.00    +0.100 C 
ATOM     11  O   UNL     1       9.344  -5.658  24.636  0.00  0.00    -0.542 OA
ATOM     12  O   UNL     1       7.140  -5.201  24.243  0.00  0.00    -0.542 OA
ENDBRANCH   8  10
ENDBRANCH   4   7
BRANCH   1  13
ATOM     13  O   UNL     1       8.880   2.594  21.558  0.00  0.00    -0.507 OA
ATOM     14  H   UNL     1       9.842   2.697  21.479  0.00  0.00    +0.292 HD
ENDBRANCH   1  13
TORSDOF 3
ENDMDL
MODEL 5
REMARK VINA RESULT:      -5.1      3.484      6.882
REMARK  Name = 
REMARK  3 active torsions:
REMARK  status: ('A' for Active; 'I' for Inactive)
REMARK    1  A    between atoms: O_1  and  C_2
REMARK    2  A    between atoms: C_5  and  C_6
REMARK    3  A    between atoms: C_7  and  C_9
REMARK                            x       y       z     vdW  Elec       q    Type
REMARK                         _______ _______ _______ _____ _____    ______ ____
ROOT
ATOM      1  C   UNL     1       9.948  -0.731  22.951  0.00  0.00    +0.117 A 
ATOM      2  C   UNL     1      10.322  -0.246  24.196  0.00  0.00    +0.046 A 
ATOM      3  C   UNL     1      10.552   1.122  24.366  0.00  0.00    +0.011 A 
ATOM      4  C   UNL     1      10.398   2.012  23.295  0.00  0.00    -0.022 A 
ATOM      5  C   UNL     1      10.015   1.500  22.046  0.00  0.00    +0.011 A 
ATOM      6  C   UNL     1       9.785   0.131  21.872  0.00  0.00    +0.046 A 
ENDROOT
BRANCH   4   7
ATOM      7  C   UNL     1      10.709   3.444  23.402  0.00  0.00    +0.048 C 
ATOM      8  C   UNL     1       9.872   4.425  23.777  0.00  0.00    +0.146 C 
ATOM      9  F   UNL     1       8.580   4.131  24.071  0.00  0.00    -0.204 F 
BRANCH   8  10
ATOM     10  C   UNL     1      10.360   5.900  23.865  0.00  0.00    +0.100 C 
ATOM     11  O   UNL     1      11.588   6.044  24.137  0.00  0.00    -0.542 OA
ATOM     12  O   UNL     1       9.484   6.791  23.651  0.00  0.00    -0.542 OA
ENDBRANCH   8  10
ENDBRANCH   4   7
BRANCH   1  13
ATOM     13  O   UNL     1       9.760  -2.076  22.817  0.00  0.00    -0.507 OA
ATOM     14  H   UNL     1      10.244  -2.368  22.029  0.00  0.00    +0.292 HD
ENDBRANCH   1  13
TORSDOF 3
ENDMDL
MODEL 6
REMARK VINA RESULT:      -5.0      2.487      2.766
REMARK  Name = 
REMARK  3 active torsions:
REMARK  status: ('A' for Active; 'I' for Inactive)
REMARK    1  A    between atoms: O_1  and  C_2
REMARK    2  A    between atoms: C_5  and  C_6
REMARK    3  A    between atoms: C_7  and  C_9
REMARK                            x       y       z     vdW  Elec       q    Type
REMARK                         _______ _______ _______ _____ _____    ______ ____
ROOT
ATOM      1  C   UNL     1       8.823   0.958  21.843  0.00  0.00    +0.117 A 
ATOM      2  C   UNL     1       7.666   0.700  22.563  0.00  0.00    +0.046 A 
ATOM      3  C   UNL     1       7.374  -0.609  22.958  0.00  0.00    +0.011 A 
ATOM      4  C   UNL     1       8.242  -1.662  22.642  0.00  0.00    -0.022 A 
ATOM      5  C   UNL     1       9.408  -1.376  21.916  0.00  0.00    +0.011 A 
ATOM      6  C   UNL     1       9.703  -0.068  21.519  0.00  0.00    +0.046 A 
ENDROOT
BRANCH   4   7
ATOM      7  C   UNL     1       7.937  -3.064  22.960  0.00  0.00    +0.048 C 
ATOM      8  C   UNL     1       7.035  -3.850  22.349  0.00  0.00    +0.146 C 
ATOM      9  F   UNL     1       6.271  -3.346  21.348  0.00  0.00    -0.204 F 
BRANCH   8  10
ATOM     10  C   UNL     1       6.842  -5.332  22.787  0.00  0.00    +0.100 C 
ATOM     11  O   UNL     1       7.202  -6.195  21.933  0.00  0.00    -0.542 OA
ATOM     12  O   UNL     1       6.355  -5.513  23.943  0.00  0.00    -0.542 OA
ENDBRANCH   8  10
ENDBRANCH   4   7
BRANCH   1  13
ATOM     13  O   UNL     1       9.061   2.244  21.451  0.00  0.00    -0.507 OA
ATOM     14  H   UNL     1       8.687   2.835  22.123  0.00  0.00    +0.292 HD
ENDBRANCH   1  13
TORSDOF 3
ENDMDL
MODEL 7
REMARK VINA RESULT:      -5.0      3.494      6.092
REMARK  Name = 
REMARK  3 active torsions:
REMARK  status: ('A' for Active; 'I' for Inactive)
REMARK    1  A    between atoms: O_1  and  C_2
REMARK    2  A    between atoms: C_5  and  C_6
REMARK    3  A    between atoms: C_7  and  C_9
REMARK                            x       y       z     vdW  Elec       q    Type
REMARK                         _______ _______ _______ _____ _____    ______ ____
ROOT
ATOM      1  C   UNL     1       5.332  -6.356  23.577  0.00  0.00    +0.117 A 
ATOM      2  C   UNL     1       5.461  -5.440  24.611  0.00  0.00    +0.046 A 
ATOM      3  C   UNL     1       6.312  -4.341  24.461  0.00  0.00    +0.011 A 
ATOM      4  C   UNL     1       7.029  -4.148  23.273  0.00  0.00    -0.022 A 
ATOM      5  C   UNL     1       6.880  -5.085  22.240  0.00  0.00    +0.011 A 
ATOM      6  C   UNL     1       6.031  -6.186  22.387  0.00  0.00    +0.046 A 
ENDROOT
BRANCH   4   7
ATOM      7  C   UNL     1       7.998  -3.057  23.100  0.00  0.00    +0.048 C 
ATOM      8  C   UNL     1       9.179  -2.922  23.726  0.00  0.00    +0.146 C 
ATOM      9  F   UNL     1       9.560  -3.840  24.650  0.00  0.00    -0.204 F 
BRANCH   8  10
ATOM     10  C   UNL     1      10.113  -1.716  23.417  0.00  0.00    +0.100 C 
ATOM     11  O   UNL     1      10.699  -1.765  22.296  0.00  0.00    -0.542 OA
ATOM     12  O   UNL     1      10.180  -0.819  24.310  0.00  0.00    -0.542 OA
ENDBRANCH   8  10
ENDBRANCH   4   7
BRANCH   1  13
ATOM     13  O   UNL     1       4.514  -7.431  23.770  0.00  0.00    -0.507 OA
ATOM     14  H   UNL     1       4.823  -7.903  24.559  0.00  0.00    +0.292 HD
ENDBRANCH   1  13
TORSDOF 3
ENDMDL
MODEL 8
REMARK VINA RESULT:      -4.9      1.876      5.830
REMARK  Name = 
REMARK  3 active torsions:
REMARK  status: ('A' for Active; 'I' for Inactive)
REMARK    1  A    between atoms: O_1  and  C_2
REMARK    2  A    between atoms: C_5  and  C_6
REMARK    3  A    between atoms: C_7  and  C_9
REMARK                            x       y       z     vdW  Elec       q    Type
REMARK                         _______ _______ _______ _____ _____    ______ ____
ROOT
ATOM      1  C   UNL     1       8.236  -4.893  26.614  0.00  0.00    +0.117 A 
ATOM      2  C   UNL     1       7.585  -3.676  26.753  0.00  0.00    +0.046 A 
ATOM      3  C   UNL     1       7.934  -2.606  25.924  0.00  0.00    +0.011 A 
ATOM      4  C   UNL     1       8.928  -2.751  24.948  0.00  0.00    -0.022 A 
ATOM      5  C   UNL     1       9.570  -3.992  24.823  0.00  0.00    +0.011 A 
ATOM      6  C   UNL     1       9.224  -5.065  25.651  0.00  0.00    +0.046 A 
ENDROOT
BRANCH   4   7
ATOM      7  C   UNL     1       9.389  -1.634  24.112  0.00  0.00    +0.048 C 
ATOM      8  C   UNL     1       9.890  -0.463  24.539  0.00  0.00    +0.146 C 
ATOM      9  F   UNL     1       9.977  -0.212  25.869  0.00  0.00    -0.204 F 
BRANCH   8  10
ATOM     10  C   UNL     1      10.360   0.620  23.524  0.00  0.00    +0.100 C 
ATOM     11  O   UNL     1      10.108   0.363  22.310  0.00  0.00    -0.542 OA
ATOM     12  O   UNL     1      10.935   1.636  24.018  0.00  0.00    -0.542 OA
ENDBRANCH   8  10
ENDBRANCH   4   7
BRANCH   1  13
ATOM     13  O   UNL     1       7.888  -5.907  27.459  0.00  0.00    -0.507 OA
ATOM     14  H   UNL     1       7.152  -5.598  28.010  0.00  0.00    +0.292 HD
ENDBRANCH   1  13
TORSDOF 3
ENDMDL
MODEL 9
REMARK VINA RESULT:      -4.8      2.933      3.543
REMARK  Name = 
REMARK  3 active torsions:
REMARK  status: ('A' for Active; 'I' for Inactive)
REMARK    1  A    between atoms: O_1  and  C_2
REMARK    2  A    between atoms: C_5  and  C_6
REMARK    3  A    between atoms: C_7  and  C_9
REMARK                            x       y       z     vdW  Elec       q    Type
REMARK                         _______ _______ _______ _____ _____    ______ ____
ROOT
ATOM      1  C   UNL     1      10.194  -0.192  24.520  0.00  0.00    +0.117 A 
ATOM      2  C   UNL     1       9.150  -0.801  25.201  0.00  0.00    +0.046 A 
ATOM      3  C   UNL     1       8.320  -1.705  24.532  0.00  0.00    +0.011 A 
ATOM      4  C   UNL     1       8.537  -2.013  23.183  0.00  0.00    -0.022 A 
ATOM      5  C   UNL     1       9.601  -1.388  22.515  0.00  0.00    +0.011 A 
ATOM      6  C   UNL     1      10.433  -0.482  23.181  0.00  0.00    +0.046 A 
ENDROOT
BRANCH   4   7
ATOM      7  C   UNL     1       7.643  -2.890  22.415  0.00  0.00    +0.048 C 
ATOM      8  C   UNL     1       7.469  -4.211  22.586  0.00  0.00    +0.146 C 
ATOM      9  F   UNL     1       8.189  -4.868  23.530  0.00  0.00    -0.204 F 
BRANCH   8  10
ATOM     10  C   UNL     1       6.461  -5.003  21.703  0.00  0.00    +0.100 C 
ATOM     11  O   UNL     1       5.409  -4.371  21.391  0.00  0.00    -0.542 OA
ATOM     12  O   UNL     1       6.801  -6.184  21.390  0.00  0.00    -0.542 OA
ENDBRANCH   8  10
ENDBRANCH   4   7
BRANCH   1  13
ATOM     13  O   UNL     1      10.965   0.706  25.198  0.00  0.00    -0.507 OA
ATOM     14  H   UNL     1      10.628   0.765  26.106  0.00  0.00    +0.292 HD
ENDBRANCH   1  13
TORSDOF 3
ENDMDL
