MODEL 1
REMARK VINA RESULT:      -6.3      0.000      0.000
REMARK  Name = 
REMARK  6 active torsions:
REMARK  status: ('A' for Active; 'I' for Inactive)
REMARK    1  A    between atoms: C_1  and  C_2
REMARK    2  A    between atoms: C_2  and  C_3
REMARK    3  A    between atoms: C_3  and  C_5
REMARK    4  A    between atoms: C_5  and  C_12
REMARK    5  A    between atoms: N_8  and  C_9
REMARK    6  A    between atoms: C_14  and  O_15
REMARK                            x       y       z     vdW  Elec       q    Type
REMARK                         _______ _______ _______ _____ _____    ______ ____
ROOT
ATOM      1  C   UNL     1       9.348   2.907  23.426  0.00  0.00    +0.056 C 
ATOM      2  C   UNL     1       9.714   2.198  22.088  0.00  0.00    +0.034 C 
ATOM      3  C   UNL     1       8.972   0.886  21.842  0.00  0.00    +0.085 C 
ATOM      4  N   UNL     1       9.070  -0.068  22.942  0.00  0.00    -0.305 NA
ATOM      5  C   UNL     1      10.395  -0.676  23.045  0.00  0.00    +0.104 C 
ATOM      6  C   UNL     1       8.632   0.545  24.196  0.00  0.00    +0.085 C 
ATOM      7  C   UNL     1       9.397   1.821  24.550  0.00  0.00    +0.034 C 
ENDROOT
BRANCH   1   8
ATOM      8  C   UNL     1      10.367   4.046  23.715  0.00  0.00    -0.031 A 
ATOM      9  C   UNL     1       9.963   5.251  24.327  0.00  0.00    +0.005 A 
ATOM     10  C   UNL     1      10.853   6.317  24.503  0.00  0.00    +0.004 A 
ATOM     11  C   UNL     1      12.173   6.201  24.085  0.00  0.00    +0.045 A 
ATOM     12  C   UNL     1      12.601   5.010  23.520  0.00  0.00    +0.117 A 
ATOM     13  C   UNL     1      11.725   3.935  23.356  0.00  0.00    +0.050 A 
BRANCH  12  14
ATOM     14  O   UNL     1      13.901   4.936  23.111  0.00  0.00    -0.507 OA
ATOM     15  H   UNL     1      14.019   4.121  22.597  0.00  0.00    +0.292 HD
ENDBRANCH  12  14
ENDBRANCH   1   8
BRANCH   1  16
ATOM     16  C   UNL     1       7.913   3.515  23.421  0.00  0.00    +0.144 C 
ATOM     17  O   UNL     1       7.267   3.619  24.470  0.00  0.00    -0.296 OA
BRANCH  16  19
ATOM     18  C   UNL     1       7.238   5.568  22.088  0.00  0.00    +0.012 C 
ATOM     19  C   UNL     1       7.344   4.049  22.111  0.00  0.00    +0.072 C 
ENDBRANCH  16  19
ENDBRANCH   1  16
TORSDOF 4
ENDMDL
MODEL 2
REMARK VINA RESULT:      -6.1      1.745      3.313
REMARK  Name = 
REMARK  6 active torsions:
REMARK  status: ('A' for Active; 'I' for Inactive)
REMARK    1  A    between atoms: C_1  and  C_2
REMARK    2  A    between atoms: C_2  and  C_3
REMARK    3  A    between atoms: C_3  and  C_5
REMARK    4  A    between atoms: C_5  and  C_12
REMARK    5  A    between atoms: N_8  and  C_9
REMARK    6  A    between atoms: C_14  and  O_15
REMARK                            x       y       z     vdW  Elec       q    Type
REMARK                         _______ _______ _______ _____ _____    ______ ____
ROOT
ATOM      1  C   UNL     1       9.282   2.887  23.508  0.00  0.00    +0.056 C 
ATOM      2  C   UNL     1       8.434   2.652  24.794  0.00  0.00    +0.034 C 
ATOM      3  C   UNL     1       7.215   1.752  24.594  0.00  0.00    +0.085 C 
ATOM      4  N   UNL     1       6.340   2.171  23.504  0.00  0.00    -0.305 NA
ATOM      5  C   UNL     1       5.575   3.373  23.824  0.00  0.00    +0.104 C 
ATOM      6  C   UNL     1       7.097   2.298  22.258  0.00  0.00    +0.085 C 
ATOM      7  C   UNL     1       8.285   3.255  22.362  0.00  0.00    +0.034 C 
ENDROOT
BRANCH   1   8
ATOM      8  C   UNL     1      10.297   4.040  23.749  0.00  0.00    -0.031 A 
ATOM      9  C   UNL     1       9.887   5.272  24.301  0.00  0.00    +0.005 A 
ATOM     10  C   UNL     1      10.774   6.346  24.434  0.00  0.00    +0.004 A 
ATOM     11  C   UNL     1      12.097   6.213  24.030  0.00  0.00    +0.045 A 
ATOM     12  C   UNL     1      12.531   4.997  23.525  0.00  0.00    +0.117 A 
ATOM     13  C   UNL     1      11.657   3.914  23.405  0.00  0.00    +0.050 A 
BRANCH  12  14
ATOM     14  O   UNL     1      13.833   4.907  23.128  0.00  0.00    -0.507 OA
ATOM     15  H   UNL     1      14.331   4.420  23.806  0.00  0.00    +0.292 HD
ENDBRANCH  12  14
ENDBRANCH   1   8
BRANCH   1  16
ATOM     16  C   UNL     1      10.070   1.620  23.057  0.00  0.00    +0.144 C 
ATOM     17  O   UNL     1      10.223   1.364  21.857  0.00  0.00    -0.296 OA
BRANCH  16  19
ATOM     18  C   UNL     1      10.087  -0.651  24.192  0.00  0.00    +0.012 C 
ATOM     19  C   UNL     1      10.713   0.735  24.120  0.00  0.00    +0.072 C 
ENDBRANCH  16  19
ENDBRANCH   1  16
TORSDOF 4
ENDMDL
MODEL 3
REMARK VINA RESULT:      -6.0      5.266      8.791
REMARK  Name = 
REMARK  6 active torsions:
REMARK  status: ('A' for Active; 'I' for Inactive)
REMARK    1  A    between atoms: C_1  and  C_2
REMARK    2  A    between atoms: C_2  and  C_3
REMARK    3  A    between atoms: C_3  and  C_5
REMARK    4  A    between atoms: C_5  and  C_12
REMARK    5  A    between atoms: N_8  and  C_9
REMARK    6  A    between atoms: C_14  and  O_15
REMARK                            x       y       z     vdW  Elec       q    Type
REMARK                         _______ _______ _______ _____ _____    ______ ____
ROOT
ATOM      1  C   UNL     1       8.224  -2.863  24.090  0.00  0.00    +0.056 C 
ATOM      2  C   UNL     1       9.016  -2.359  22.846  0.00  0.00    +0.034 C 
ATOM      3  C   UNL     1      10.110  -1.339  23.161  0.00  0.00    +0.085 C 
ATOM      4  N   UNL     1       9.650  -0.196  23.942  0.00  0.00    -0.305 NA
ATOM      5  C   UNL     1       8.823   0.724  23.164  0.00  0.00    +0.104 C 
ATOM      6  C   UNL     1       8.992  -0.644  25.171  0.00  0.00    +0.085 C 
ATOM      7  C   UNL     1       7.826  -1.602  24.924  0.00  0.00    +0.034 C 
ENDROOT
BRANCH   1   8
ATOM      8  C   UNL     1       6.959  -3.642  23.629  0.00  0.00    -0.031 A 
ATOM      9  C   UNL     1       5.663  -3.188  23.949  0.00  0.00    +0.005 A 
ATOM     10  C   UNL     1       4.525  -3.932  23.621  0.00  0.00    +0.004 A 
ATOM     11  C   UNL     1       4.651  -5.143  22.952  0.00  0.00    +0.045 A 
ATOM     12  C   UNL     1       5.914  -5.587  22.590  0.00  0.00    +0.117 A 
ATOM     13  C   UNL     1       7.054  -4.843  22.898  0.00  0.00    +0.050 A 
BRANCH  12  14
ATOM     14  O   UNL     1       6.000  -6.786  21.945  0.00  0.00    -0.507 OA
ATOM     15  H   UNL     1       6.938  -7.007  21.825  0.00  0.00    +0.292 HD
ENDBRANCH  12  14
ENDBRANCH   1   8
BRANCH   1  16
ATOM     16  C   UNL     1       9.069  -3.791  25.015  0.00  0.00    +0.144 C 
ATOM     17  O   UNL     1      10.092  -4.341  24.594  0.00  0.00    -0.296 OA
BRANCH  16  19
ATOM     18  C   UNL     1       7.910  -5.258  26.732  0.00  0.00    +0.012 C 
ATOM     19  C   UNL     1       8.652  -3.954  26.472  0.00  0.00    +0.072 C 
ENDBRANCH  16  19
ENDBRANCH   1  16
TORSDOF 4
ENDMDL
MODEL 4
REMARK VINA RESULT:      -5.9      4.164      7.590
REMARK  Name = 
REMARK  6 active torsions:
REMARK  status: ('A' for Active; 'I' for Inactive)
REMARK    1  A    between atoms: C_1  and  C_2
REMARK    2  A    between atoms: C_2  and  C_3
REMARK    3  A    between atoms: C_3  and  C_5
REMARK    4  A    between atoms: C_5  and  C_12
REMARK    5  A    between atoms: N_8  and  C_9
REMARK    6  A    between atoms: C_14  and  O_15
REMARK                            x       y       z     vdW  Elec       q    Type
REMARK                         _______ _______ _______ _____ _____    ______ ____
ROOT
ATOM      1  C   UNL     1       8.434  -1.575  23.589  0.00  0.00    +0.056 C 
ATOM      2  C   UNL     1       7.246  -0.571  23.679  0.00  0.00    +0.034 C 
ATOM      3  C   UNL     1       7.602   0.777  24.306  0.00  0.00    +0.085 C 
ATOM      4  N   UNL     1       8.252   0.674  25.608  0.00  0.00    -0.305 NA
ATOM      5  C   UNL     1       7.333   0.266  26.668  0.00  0.00    +0.104 C 
ATOM      6  C   UNL     1       9.434  -0.185  25.525  0.00  0.00    +0.085 C 
ATOM      7  C   UNL     1       9.135  -1.584  24.986  0.00  0.00    +0.034 C 
ENDROOT
BRANCH   1   8
ATOM      8  C   UNL     1       7.900  -2.991  23.230  0.00  0.00    -0.031 A 
ATOM      9  C   UNL     1       8.316  -4.133  23.945  0.00  0.00    +0.005 A 
ATOM     10  C   UNL     1       7.915  -5.420  23.568  0.00  0.00    +0.004 A 
ATOM     11  C   UNL     1       7.077  -5.597  22.475  0.00  0.00    +0.045 A 
ATOM     12  C   UNL     1       6.622  -4.485  21.783  0.00  0.00    +0.117 A 
ATOM     13  C   UNL     1       7.003  -3.196  22.163  0.00  0.00    +0.050 A 
BRANCH  12  14
ATOM     14  O   UNL     1       5.810  -4.699  20.708  0.00  0.00    -0.507 OA
ATOM     15  H   UNL     1       5.779  -3.887  20.176  0.00  0.00    +0.292 HD
ENDBRANCH  12  14
ENDBRANCH   1   8
BRANCH   1  16
ATOM     16  C   UNL     1       9.501  -1.164  22.530  0.00  0.00    +0.144 C 
ATOM     17  O   UNL     1      10.570  -1.778  22.437  0.00  0.00    -0.296 OA
BRANCH  16  19
ATOM     18  C   UNL     1       9.968   1.234  21.839  0.00  0.00    +0.012 C 
ATOM     19  C   UNL     1       9.176  -0.036  21.556  0.00  0.00    +0.072 C 
ENDBRANCH  16  19
ENDBRANCH   1  16
TORSDOF 4
ENDMDL
MODEL 5
REMARK VINA RESULT:      -5.9      5.672      9.059
REMARK  Name = 
REMARK  6 active torsions:
REMARK  status: ('A' for Active; 'I' for Inactive)
REMARK    1  A    between atoms: C_1  and  C_2
REMARK    2  A    between atoms: C_2  and  C_3
REMARK    3  A    between atoms: C_3  and  C_5
REMARK    4  A    between atoms: C_5  and  C_12
REMARK    5  A    between atoms: N_8  and  C_9
REMARK    6  A    between atoms: C_14  and  O_15
REMARK                            x       y       z     vdW  Elec       q    Type
REMARK                         _______ _______ _______ _____ _____    ______ ____
ROOT
ATOM      1  C   UNL     1       6.834  -3.249  23.616  0.00  0.00    +0.056 C 
ATOM      2  C   UNL     1       6.291  -1.813  23.880  0.00  0.00    +0.034 C 
ATOM      3  C   UNL     1       6.897  -0.732  22.986  0.00  0.00    +0.085 C 
ATOM      4  N   UNL     1       8.356  -0.708  22.988  0.00  0.00    -0.305 NA
ATOM      5  C   UNL     1       8.911  -0.185  24.234  0.00  0.00    +0.104 C 
ATOM      6  C   UNL     1       8.892  -2.025  22.641  0.00  0.00    +0.085 C 
ATOM      7  C   UNL     1       8.393  -3.146  23.553  0.00  0.00    +0.034 C 
ENDROOT
BRANCH   1   8
ATOM      8  C   UNL     1       6.390  -4.199  24.765  0.00  0.00    -0.031 A 
ATOM      9  C   UNL     1       5.032  -4.530  24.956  0.00  0.00    +0.005 A 
ATOM     10  C   UNL     1       4.614  -5.307  26.042  0.00  0.00    +0.004 A 
ATOM     11  C   UNL     1       5.543  -5.784  26.958  0.00  0.00    +0.045 A 
ATOM     12  C   UNL     1       6.887  -5.507  26.765  0.00  0.00    +0.117 A 
ATOM     13  C   UNL     1       7.316  -4.747  25.674  0.00  0.00    +0.050 A 
BRANCH  12  14
ATOM     14  O   UNL     1       7.769  -5.983  27.690  0.00  0.00    -0.507 OA
ATOM     15  H   UNL     1       8.379  -6.598  27.250  0.00  0.00    +0.292 HD
ENDBRANCH  12  14
ENDBRANCH   1   8
BRANCH   1  16
ATOM     16  C   UNL     1       6.347  -3.846  22.262  0.00  0.00    +0.144 C 
ATOM     17  O   UNL     1       5.424  -3.317  21.633  0.00  0.00    -0.296 OA
BRANCH  16  19
ATOM     18  C   UNL     1       6.345  -6.366  21.953  0.00  0.00    +0.012 C 
ATOM     19  C   UNL     1       7.075  -5.057  21.687  0.00  0.00    +0.072 C 
ENDBRANCH  16  19
ENDBRANCH   1  16
TORSDOF 4
ENDMDL
MODEL 6
REMARK VINA RESULT:      -5.9      3.501      5.215
REMARK  Name = 
REMARK  6 active torsions:
REMARK  status: ('A' for Active; 'I' for Inactive)
REMARK    1  A    between atoms: C_1  and  C_2
REMARK    2  A    between atoms: C_2  and  C_3
REMARK    3  A    between atoms: C_3  and  C_5
REMARK    4  A    between atoms: C_5  and  C_12
REMARK    5  A    between atoms: N_8  and  C_9
REMARK    6  A    between atoms: C_14  and  O_15
REMARK                            x       y       z     vdW  Elec       q    Type
REMARK                         _______ _______ _______ _____ _____    ______ ____
ROOT
ATOM      1  C   UNL     1       8.188  -1.845  24.286  0.00  0.00    +0.056 C 
ATOM      2  C   UNL     1       8.586  -3.056  23.391  0.00  0.00    +0.034 C 
ATOM      3  C   UNL     1       8.024  -4.399  23.855  0.00  0.00    +0.085 C 
ATOM      4  N   UNL     1       8.306  -4.711  25.252  0.00  0.00    -0.305 NA
ATOM      5  C   UNL     1       9.706  -5.061  25.481  0.00  0.00    +0.104 C 
ATOM      6  C   UNL     1       7.845  -3.630  26.124  0.00  0.00    +0.085 C 
ATOM      7  C   UNL     1       8.440  -2.266  25.770  0.00  0.00    +0.034 C 
ENDROOT
BRANCH   1   8
ATOM      8  C   UNL     1       9.049  -0.606  23.910  0.00  0.00    -0.031 A 
ATOM      9  C   UNL     1      10.023  -0.096  24.794  0.00  0.00    +0.005 A 
ATOM     10  C   UNL     1      10.735   1.073  24.504  0.00  0.00    +0.004 A 
ATOM     11  C   UNL     1      10.502   1.756  23.316  0.00  0.00    +0.045 A 
ATOM     12  C   UNL     1       9.580   1.248  22.414  0.00  0.00    +0.117 A 
ATOM     13  C   UNL     1       8.878   0.073  22.687  0.00  0.00    +0.050 A 
BRANCH  12  14
ATOM     14  O   UNL     1       9.370   1.951  21.264  0.00  0.00    -0.507 OA
ATOM     15  H   UNL     1       8.592   2.520  21.385  0.00  0.00    +0.292 HD
ENDBRANCH  12  14
ENDBRANCH   1   8
BRANCH   1  16
ATOM     16  C   UNL     1       6.683  -1.460  24.155  0.00  0.00    +0.144 C 
ATOM     17  O   UNL     1       5.982  -1.942  23.259  0.00  0.00    -0.296 OA
BRANCH  16  19
ATOM     18  C   UNL     1       5.780   0.861  24.650  0.00  0.00    +0.012 C 
ATOM     19  C   UNL     1       6.068  -0.531  25.197  0.00  0.00    +0.072 C 
ENDBRANCH  16  19
ENDBRANCH   1  16
TORSDOF 4
ENDMDL
MODEL 7
REMARK VINA RESULT:      -5.9      5.245      9.068
REMARK  Name = 
REMARK  6 active torsions:
REMARK  status: ('A' for Active; 'I' for Inactive)
REMARK    1  A    between atoms: C_1  and  C_2
REMARK    2  A    between atoms: C_2  and  C_3
REMARK    3  A    between atoms: C_3  and  C_5
REMARK    4  A    between atoms: C_5  and  C_12
REMARK    5  A    between atoms: N_8  and  C_9
REMARK    6  A    between atoms: C_14  and  O_15
REMARK                            x       y       z     vdW  Elec       q    Type
REMARK                         _______ _______ _______ _____ _____    ______ ____
ROOT
ATOM      1  C   UNL     1       8.049  -3.058  23.831  0.00  0.00    +0.056 C 
ATOM      2  C   UNL     1       8.819  -2.404  22.645  0.00  0.00    +0.034 C 
ATOM      3  C   UNL     1       9.588  -1.136  23.011  0.00  0.00    +0.085 C 
ATOM      4  N   UNL     1       8.781  -0.124  23.684  0.00  0.00    -0.305 NA
ATOM      5  C   UNL     1       7.841   0.539  22.785  0.00  0.00    +0.104 C 
ATOM      6  C   UNL     1       8.129  -0.690  24.865  0.00  0.00    +0.085 C 
ATOM      7  C   UNL     1       7.268  -1.916  24.557  0.00  0.00    +0.034 C 
ENDROOT
BRANCH   1   8
ATOM      8  C   UNL     1       7.071  -4.141  23.292  0.00  0.00    -0.031 A 
ATOM      9  C   UNL     1       7.543  -5.262  22.578  0.00  0.00    +0.005 A 
ATOM     10  C   UNL     1       6.664  -6.190  22.009  0.00  0.00    +0.004 A 
ATOM     11  C   UNL     1       5.291  -6.029  22.150  0.00  0.00    +0.045 A 
ATOM     12  C   UNL     1       4.808  -4.957  22.884  0.00  0.00    +0.117 A 
ATOM     13  C   UNL     1       5.678  -4.036  23.471  0.00  0.00    +0.050 A 
BRANCH  12  14
ATOM     14  O   UNL     1       3.454  -4.825  22.992  0.00  0.00    -0.507 OA
ATOM     15  H   UNL     1       3.172  -4.068  22.451  0.00  0.00    +0.292 HD
ENDBRANCH  12  14
ENDBRANCH   1   8
BRANCH   1  16
ATOM     16  C   UNL     1       8.994  -3.722  24.879  0.00  0.00    +0.144 C 
ATOM     17  O   UNL     1      10.118  -4.119  24.554  0.00  0.00    -0.296 OA
BRANCH  16  19
ATOM     18  C   UNL     1       7.963  -5.172  26.690  0.00  0.00    +0.012 C 
ATOM     19  C   UNL     1       8.538  -3.808  26.331  0.00  0.00    +0.072 C 
ENDBRANCH  16  19
ENDBRANCH   1  16
TORSDOF 4
ENDMDL
MODEL 8
REMARK VINA RESULT:      -5.7      4.213      6.548
REMARK  Name = 
REMARK  6 active torsions:
REMARK  status: ('A' for Active; 'I' for Inactive)
REMARK    1  A    between atoms: C_1  and  C_2
REMARK    2  A    between atoms: C_2  and  C_3
REMARK    3  A    between atoms: C_3  and  C_5
REMARK    4  A    between atoms: C_5  and  C_12
REMARK    5  A    between atoms: N_8  and  C_9
REMARK    6  A    between atoms: C_14  and  O_15
REMARK                            x       y       z     vdW  Elec       q    Type
REMARK                         _______ _______ _______ _____ _____    ______ ____
ROOT
ATOM      1  C   UNL     1       7.089  -2.568  23.332  0.00  0.00    +0.056 C 
ATOM      2  C   UNL     1       5.738  -2.834  22.603  0.00  0.00    +0.034 C 
ATOM      3  C   UNL     1       5.110  -4.193  22.908  0.00  0.00    +0.085 C 
ATOM      4  N   UNL     1       6.008  -5.324  22.698  0.00  0.00    -0.305 NA
ATOM      5  C   UNL     1       6.250  -5.597  21.283  0.00  0.00    +0.104 C 
ATOM      6  C   UNL     1       7.246  -5.145  23.457  0.00  0.00    +0.085 C 
ATOM      7  C   UNL     1       7.976  -3.840  23.136  0.00  0.00    +0.034 C 
ENDROOT
BRANCH   1   8
ATOM      8  C   UNL     1       7.779  -1.315  22.722  0.00  0.00    -0.031 A 
ATOM      9  C   UNL     1       8.994  -1.420  22.014  0.00  0.00    +0.005 A 
ATOM     10  C   UNL     1       9.669  -0.288  21.545  0.00  0.00    +0.004 A 
ATOM     11  C   UNL     1       9.140   0.979  21.759  0.00  0.00    +0.045 A 
ATOM     12  C   UNL     1       7.925   1.102  22.415  0.00  0.00    +0.117 A 
ATOM     13  C   UNL     1       7.236  -0.023  22.871  0.00  0.00    +0.050 A 
BRANCH  12  14
ATOM     14  O   UNL     1       7.442   2.362  22.617  0.00  0.00    -0.507 OA
ATOM     15  H   UNL     1       6.525   2.296  22.930  0.00  0.00    +0.292 HD
ENDBRANCH  12  14
ENDBRANCH   1   8
BRANCH   1  16
ATOM     16  C   UNL     1       6.921  -2.344  24.865  0.00  0.00    +0.144 C 
ATOM     17  O   UNL     1       5.808  -2.114  25.352  0.00  0.00    -0.296 OA
BRANCH  16  19
ATOM     18  C   UNL     1       8.598  -1.154  26.354  0.00  0.00    +0.012 C 
ATOM     19  C   UNL     1       8.142  -2.483  25.768  0.00  0.00    +0.072 C 
ENDBRANCH  16  19
ENDBRANCH   1  16
TORSDOF 4
ENDMDL
MODEL 9
REMARK VINA RESULT:      -5.7      3.959      7.257
REMARK  Name = 
REMARK  6 active torsions:
REMARK  status: ('A' for Active; 'I' for Inactive)
REMARK    1  A    between atoms: C_1  and  C_2
REMARK    2  A    between atoms: C_2  and  C_3
REMARK    3  A    between atoms: C_3  and  C_5
REMARK    4  A    between atoms: C_5  and  C_12
REMARK    5  A    between atoms: N_8  and  C_9
REMARK    6  A    between atoms: C_14  and  O_15
REMARK                            x       y       z     vdW  Elec       q    Type
REMARK                         _______ _______ _______ _____ _____    ______ ____
ROOT
ATOM      1  C   UNL     1       8.682  -1.050  24.616  0.00  0.00    +0.056 C 
ATOM      2  C   UNL     1      10.168  -0.644  24.384  0.00  0.00    +0.034 C 
ATOM      3  C   UNL     1      10.427   0.862  24.427  0.00  0.00    +0.085 C 
ATOM      4  N   UNL     1       9.565   1.639  23.543  0.00  0.00    -0.305 NA
ATOM      5  C   UNL     1       9.911   1.479  22.133  0.00  0.00    +0.104 C 
ATOM      6  C   UNL     1       8.156   1.350  23.814  0.00  0.00    +0.085 C 
ATOM      7  C   UNL     1       7.806  -0.134  23.702  0.00  0.00    +0.034 C 
ENDROOT
BRANCH   1   8
ATOM      8  C   UNL     1       8.483  -2.549  24.250  0.00  0.00    -0.031 A 
ATOM      9  C   UNL     1       7.471  -2.955  23.356  0.00  0.00    +0.005 A 
ATOM     10  C   UNL     1       7.224  -4.308  23.096  0.00  0.00    +0.004 A 
ATOM     11  C   UNL     1       7.991  -5.289  23.711  0.00  0.00    +0.045 A 
ATOM     12  C   UNL     1       9.019  -4.910  24.560  0.00  0.00    +0.117 A 
ATOM     13  C   UNL     1       9.284  -3.562  24.813  0.00  0.00    +0.050 A 
BRANCH  12  14
ATOM     14  O   UNL     1       9.744  -5.901  25.155  0.00  0.00    -0.507 OA
ATOM     15  H   UNL     1       9.178  -6.684  25.252  0.00  0.00    +0.292 HD
ENDBRANCH  12  14
ENDBRANCH   1   8
BRANCH   1  16
ATOM     16  C   UNL     1       8.214  -0.833  26.087  0.00  0.00    +0.144 C 
ATOM     17  O   UNL     1       9.036  -0.737  27.005  0.00  0.00    -0.296 OA
BRANCH  16  19
ATOM     18  C   UNL     1       6.061  -1.965  26.816  0.00  0.00    +0.012 C 
ATOM     19  C   UNL     1       6.724  -0.669  26.368  0.00  0.00    +0.072 C 
ENDBRANCH  16  19
ENDBRANCH   1  16
TORSDOF 4
ENDMDL
