MODEL 1
REMARK VINA RESULT:      -6.7      0.000      0.000
REMARK  Name = 
REMARK  8 active torsions:
REMARK  status: ('A' for Active; 'I' for Inactive)
REMARK    1  A    between atoms: N_8  and  C_9
REMARK    2  A    between atoms: C_12  and  C_14
REMARK    3  A    between atoms: C_14  and  O_15
REMARK    4  A    between atoms: O_15  and  P_16
REMARK    5  A    between atoms: P_16  and  O_17
REMARK    6  A    between atoms: P_16  and  O_18
REMARK    7  A    between atoms: C_20  and  O_22
REMARK    8  A    between atoms: C_23  and  O_25
REMARK                            x       y       z     vdW  Elec       q    Type
REMARK                         _______ _______ _______ _____ _____    ______ ____
ROOT
ATOM      1  C   UNL     1       9.311  -3.116  24.361  0.00  0.00    +0.253 C 
ATOM      2  C   UNL     1       9.298  -4.346  25.290  0.00  0.00    +0.195 C 
ATOM      3  C   UNL     1       7.983  -5.069  24.964  0.00  0.00    +0.178 C 
ATOM      4  C   UNL     1       7.340  -4.191  23.892  0.00  0.00    +0.178 C 
ATOM      5  O   UNL     1       8.423  -3.480  23.271  0.00  0.00    -0.346 OA
ENDROOT
BRANCH   1  17
ATOM      6  N   UNL     1       9.208   1.243  21.289  0.00  0.00    -0.329 N 
ATOM      7  H   UNL     1       9.683   2.123  21.140  0.00  0.00    +0.145 HD
ATOM      8  H   UNL     1       9.614   0.483  20.751  0.00  0.00    +0.145 HD
ATOM      9  C   UNL     1       8.985   0.877  22.575  0.00  0.00    +0.195 A 
ATOM     10  N   UNL     1       8.697   1.888  23.468  0.00  0.00    -0.293 N 
ATOM     11  H   UNL     1       8.629   2.839  23.152  0.00  0.00    +0.172 HD
ATOM     12  C   UNL     1       8.420   1.691  24.814  0.00  0.00    +0.280 A 
ATOM     13  O   UNL     1       8.166   2.624  25.569  0.00  0.00    -0.265 OA
ATOM     14  C   UNL     1       8.488   0.293  25.188  0.00  0.00    +0.172 A 
ATOM     15  N   UNL     1       8.313  -0.312  26.405  0.00  0.00    -0.229 NA
ATOM     16  C   UNL     1       8.547  -1.586  26.168  0.00  0.00    +0.203 A 
ATOM     17  N   UNL     1       8.867  -1.826  24.847  0.00  0.00    -0.285 N 
ATOM     18  C   UNL     1       8.806  -0.622  24.210  0.00  0.00    +0.171 A 
ATOM     19  N   UNL     1       9.052  -0.381  22.904  0.00  0.00    -0.196 NA
ENDBRANCH   1  17
BRANCH   2  20
ATOM     20  O   UNL     1      10.404  -5.219  24.947  0.00  0.00    -0.385 OA
ATOM     21  H   UNL     1      10.419  -5.961  25.578  0.00  0.00    +0.210 HD
ENDBRANCH   2  20
BRANCH   3  22
ATOM     22  O   UNL     1       7.144  -5.212  26.108  0.00  0.00    -0.386 OA
ATOM     23  H   UNL     1       7.722  -5.402  26.870  0.00  0.00    +0.210 HD
ENDBRANCH   3  22
BRANCH   4  24
ATOM     24  C   UNL     1       6.562  -4.961  22.836  0.00  0.00    +0.206 C 
BRANCH  24  25
ATOM     25  O   UNL     1       5.960  -6.106  23.409  0.00  0.00    -0.284 OA
BRANCH  25  26
ATOM     26  P   UNL     1       4.395  -6.001  23.734  0.00  0.00    +0.472 P 
ATOM     27  O   UNL     1       3.584  -5.176  22.800  0.00  0.00    -0.228 OA
BRANCH  26  28
ATOM     28  O   UNL     1       4.363  -5.524  25.253  0.00  0.00    -0.303 OA
ATOM     29  H   UNL     1       5.192  -5.710  25.728  0.00  0.00    +0.222 HD
ENDBRANCH  26  28
BRANCH  26  30
ATOM     30  O   UNL     1       3.951  -7.529  23.818  0.00  0.00    -0.303 OA
ATOM     31  H   UNL     1       2.983  -7.620  23.846  0.00  0.00    +0.222 HD
ENDBRANCH  26  30
ENDBRANCH  25  26
ENDBRANCH  24  25
ENDBRANCH   4  24
TORSDOF 8
ENDMDL
MODEL 2
REMARK VINA RESULT:      -6.7      1.556      2.631
REMARK  Name = 
REMARK  8 active torsions:
REMARK  status: ('A' for Active; 'I' for Inactive)
REMARK    1  A    between atoms: N_8  and  C_9
REMARK    2  A    between atoms: C_12  and  C_14
REMARK    3  A    between atoms: C_14  and  O_15
REMARK    4  A    between atoms: O_15  and  P_16
REMARK    5  A    between atoms: P_16  and  O_17
REMARK    6  A    between atoms: P_16  and  O_18
REMARK    7  A    between atoms: C_20  and  O_22
REMARK    8  A    between atoms: C_23  and  O_25
REMARK                            x       y       z     vdW  Elec       q    Type
REMARK                         _______ _______ _______ _____ _____    ______ ____
ROOT
ATOM      1  C   UNL     1       8.600  -4.411  24.110  0.00  0.00    +0.253 C 
ATOM      2  C   UNL     1       8.978  -4.824  25.546  0.00  0.00    +0.195 C 
ATOM      3  C   UNL     1       7.635  -5.090  26.243  0.00  0.00    +0.178 C 
ATOM      4  C   UNL     1       6.598  -4.792  25.162  0.00  0.00    +0.178 C 
ATOM      5  O   UNL     1       7.278  -4.976  23.910  0.00  0.00    -0.346 OA
ENDROOT
BRANCH   1  17
ATOM      6  N   UNL     1       9.143  -0.477  27.672  0.00  0.00    -0.329 N 
ATOM      7  H   UNL     1       8.612   0.226  28.169  0.00  0.00    +0.145 HD
ATOM      8  H   UNL     1       9.177  -1.364  28.168  0.00  0.00    +0.145 HD
ATOM      9  C   UNL     1       8.850  -0.653  26.360  0.00  0.00    +0.195 A 
ATOM     10  N   UNL     1       8.506   0.474  25.643  0.00  0.00    -0.293 N 
ATOM     11  H   UNL     1       8.509   1.376  26.086  0.00  0.00    +0.172 HD
ATOM     12  C   UNL     1       8.200   0.480  24.289  0.00  0.00    +0.280 A 
ATOM     13  O   UNL     1       7.902   1.511  23.695  0.00  0.00    -0.265 OA
ATOM     14  C   UNL     1       8.262  -0.845  23.709  0.00  0.00    +0.172 A 
ATOM     15  N   UNL     1       8.007  -1.270  22.431  0.00  0.00    -0.229 NA
ATOM     16  C   UNL     1       8.167  -2.575  22.486  0.00  0.00    +0.203 A 
ATOM     17  N   UNL     1       8.513  -3.010  23.750  0.00  0.00    -0.285 N 
ATOM     18  C   UNL     1       8.598  -1.896  24.532  0.00  0.00    +0.171 A 
ATOM     19  N   UNL     1       8.905  -1.849  25.847  0.00  0.00    -0.196 NA
ENDBRANCH   1  17
BRANCH   2  20
ATOM     20  O   UNL     1       9.732  -6.062  25.507  0.00  0.00    -0.385 OA
ATOM     21  H   UNL     1       9.396  -6.606  24.774  0.00  0.00    +0.210 HD
ENDBRANCH   2  20
BRANCH   3  22
ATOM     22  O   UNL     1       7.452  -4.273  27.397  0.00  0.00    -0.386 OA
ATOM     23  H   UNL     1       8.303  -4.249  27.873  0.00  0.00    +0.210 HD
ENDBRANCH   3  22
BRANCH   4  24
ATOM     24  C   UNL     1       5.367  -5.683  25.212  0.00  0.00    +0.206 C 
BRANCH  24  25
ATOM     25  O   UNL     1       4.319  -5.114  24.453  0.00  0.00    -0.284 OA
BRANCH  25  26
ATOM     26  P   UNL     1       3.715  -6.021  23.279  0.00  0.00    +0.472 P 
ATOM     27  O   UNL     1       2.352  -5.661  22.804  0.00  0.00    -0.228 OA
BRANCH  26  28
ATOM     28  O   UNL     1       3.859  -7.503  23.844  0.00  0.00    -0.303 OA
ATOM     29  H   UNL     1       3.296  -7.671  24.620  0.00  0.00    +0.222 HD
ENDBRANCH  26  28
BRANCH  26  30
ATOM     30  O   UNL     1       4.845  -5.943  22.158  0.00  0.00    -0.303 OA
ATOM     31  H   UNL     1       4.773  -6.677  21.524  0.00  0.00    +0.222 HD
ENDBRANCH  26  30
ENDBRANCH  25  26
ENDBRANCH  24  25
ENDBRANCH   4  24
TORSDOF 8
ENDMDL
MODEL 3
REMARK VINA RESULT:      -6.6      3.469      6.835
REMARK  Name = 
REMARK  8 active torsions:
REMARK  status: ('A' for Active; 'I' for Inactive)
REMARK    1  A    between atoms: N_8  and  C_9
REMARK    2  A    between atoms: C_12  and  C_14
REMARK    3  A    between atoms: C_14  and  O_15
REMARK    4  A    between atoms: O_15  and  P_16
REMARK    5  A    between atoms: P_16  and  O_17
REMARK    6  A    between atoms: P_16  and  O_18
REMARK    7  A    between atoms: C_20  and  O_22
REMARK    8  A    between atoms: C_23  and  O_25
REMARK                            x       y       z     vdW  Elec       q    Type
REMARK                         _______ _______ _______ _____ _____    ______ ____
ROOT
ATOM      1  C   UNL     1       9.292  -2.521  23.789  0.00  0.00    +0.253 C 
ATOM      2  C   UNL     1       8.588  -2.021  22.512  0.00  0.00    +0.195 C 
ATOM      3  C   UNL     1       7.954  -0.681  22.914  0.00  0.00    +0.178 C 
ATOM      4  C   UNL     1       8.327  -0.528  24.387  0.00  0.00    +0.178 C 
ATOM      5  O   UNL     1       9.512  -1.318  24.572  0.00  0.00    -0.346 OA
ENDROOT
BRANCH   1  17
ATOM      6  N   UNL     1       5.591  -5.950  22.059  0.00  0.00    -0.329 N 
ATOM      7  H   UNL     1       4.596  -6.131  22.089  0.00  0.00    +0.145 HD
ATOM      8  H   UNL     1       5.855  -5.347  21.283  0.00  0.00    +0.145 HD
ATOM      9  C   UNL     1       6.179  -5.557  23.215  0.00  0.00    +0.195 A 
ATOM     10  N   UNL     1       5.694  -6.116  24.380  0.00  0.00    -0.293 N 
ATOM     11  H   UNL     1       4.960  -6.802  24.345  0.00  0.00    +0.172 HD
ATOM     12  C   UNL     1       6.193  -5.846  25.647  0.00  0.00    +0.280 A 
ATOM     13  O   UNL     1       5.727  -6.370  26.653  0.00  0.00    -0.265 OA
ATOM     14  C   UNL     1       7.278  -4.887  25.615  0.00  0.00    +0.172 A 
ATOM     15  N   UNL     1       8.012  -4.340  26.634  0.00  0.00    -0.229 NA
ATOM     16  C   UNL     1       8.820  -3.493  26.031  0.00  0.00    +0.203 A 
ATOM     17  N   UNL     1       8.635  -3.471  24.663  0.00  0.00    -0.285 N 
ATOM     18  C   UNL     1       7.660  -4.385  24.391  0.00  0.00    +0.171 A 
ATOM     19  N   UNL     1       7.151  -4.693  23.178  0.00  0.00    -0.196 NA
ENDBRANCH   1  17
BRANCH   2  20
ATOM     20  O   UNL     1       9.579  -1.774  21.483  0.00  0.00    -0.385 OA
ATOM     21  H   UNL     1       9.285  -2.204  20.661  0.00  0.00    +0.210 HD
ENDBRANCH   2  20
BRANCH   3  22
ATOM     22  O   UNL     1       6.542  -0.668  22.718  0.00  0.00    -0.386 OA
ATOM     23  H   UNL     1       6.358  -1.171  21.903  0.00  0.00    +0.210 HD
ENDBRANCH   3  22
BRANCH   4  24
ATOM     24  C   UNL     1       8.594   0.905  24.820  0.00  0.00    +0.206 C 
BRANCH  24  25
ATOM     25  O   UNL     1       8.606   1.763  23.695  0.00  0.00    -0.284 OA
BRANCH  25  26
ATOM     26  P   UNL     1      10.014   2.428  23.321  0.00  0.00    +0.472 P 
ATOM     27  O   UNL     1      10.178   3.863  23.674  0.00  0.00    -0.228 OA
BRANCH  26  28
ATOM     28  O   UNL     1      10.183   2.094  21.772  0.00  0.00    -0.303 OA
ATOM     29  H   UNL     1      10.832   1.389  21.604  0.00  0.00    +0.222 HD
ENDBRANCH  26  28
BRANCH  26  30
ATOM     30  O   UNL     1      11.061   1.453  24.023  0.00  0.00    -0.303 OA
ATOM     31  H   UNL     1      11.277   0.692  23.459  0.00  0.00    +0.222 HD
ENDBRANCH  26  30
ENDBRANCH  25  26
ENDBRANCH  24  25
ENDBRANCH   4  24
TORSDOF 8
ENDMDL
MODEL 4
REMARK VINA RESULT:      -6.5      3.441      7.258
REMARK  Name = 
REMARK  8 active torsions:
REMARK  status: ('A' for Active; 'I' for Inactive)
REMARK    1  A    between atoms: N_8  and  C_9
REMARK    2  A    between atoms: C_12  and  C_14
REMARK    3  A    between atoms: C_14  and  O_15
REMARK    4  A    between atoms: O_15  and  P_16
REMARK    5  A    between atoms: P_16  and  O_17
REMARK    6  A    between atoms: P_16  and  O_18
REMARK    7  A    between atoms: C_20  and  O_22
REMARK    8  A    between atoms: C_23  and  O_25
REMARK                            x       y       z     vdW  Elec       q    Type
REMARK                         _______ _______ _______ _____ _____    ______ ____
ROOT
ATOM      1  C   UNL     1       9.184  -2.209  23.446  0.00  0.00    +0.253 C 
ATOM      2  C   UNL     1       9.575  -1.481  22.145  0.00  0.00    +0.195 C 
ATOM      3  C   UNL     1       9.425   0.012  22.471  0.00  0.00    +0.178 C 
ATOM      4  C   UNL     1       8.944   0.021  23.922  0.00  0.00    +0.178 C 
ATOM      5  O   UNL     1       9.393  -1.220  24.488  0.00  0.00    -0.346 OA
ENDROOT
BRANCH   1  17
ATOM      6  N   UNL     1       7.950  -5.845  27.149  0.00  0.00    -0.329 N 
ATOM      7  H   UNL     1       7.703  -6.820  27.256  0.00  0.00    +0.145 HD
ATOM      8  H   UNL     1       8.955  -5.692  27.175  0.00  0.00    +0.145 HD
ATOM      9  C   UNL     1       7.372  -5.176  26.122  0.00  0.00    +0.195 A 
ATOM     10  N   UNL     1       6.071  -5.514  25.813  0.00  0.00    -0.293 N 
ATOM     11  H   UNL     1       5.585  -6.206  26.357  0.00  0.00    +0.172 HD
ATOM     12  C   UNL     1       5.321  -4.915  24.810  0.00  0.00    +0.280 A 
ATOM     13  O   UNL     1       4.164  -5.252  24.575  0.00  0.00    -0.265 OA
ATOM     14  C   UNL     1       6.068  -3.897  24.102  0.00  0.00    +0.172 A 
ATOM     15  N   UNL     1       5.709  -3.105  23.043  0.00  0.00    -0.229 NA
ATOM     16  C   UNL     1       6.795  -2.409  22.778  0.00  0.00    +0.203 A 
ATOM     17  N   UNL     1       7.841  -2.723  23.623  0.00  0.00    -0.285 N 
ATOM     18  C   UNL     1       7.368  -3.663  24.490  0.00  0.00    +0.171 A 
ATOM     19  N   UNL     1       8.052  -4.264  25.488  0.00  0.00    -0.196 NA
ENDBRANCH   1  17
BRANCH   2  20
ATOM     20  O   UNL     1      10.968  -1.751  21.843  0.00  0.00    -0.385 OA
ATOM     21  H   UNL     1      11.149  -1.460  20.933  0.00  0.00    +0.210 HD
ENDBRANCH   2  20
BRANCH   3  22
ATOM     22  O   UNL     1       8.505   0.667  21.602  0.00  0.00    -0.386 OA
ATOM     23  H   UNL     1       9.025   1.070  20.881  0.00  0.00    +0.210 HD
ENDBRANCH   3  22
BRANCH   4  24
ATOM     24  C   UNL     1       9.472   1.183  24.749  0.00  0.00    +0.206 C 
BRANCH  24  25
ATOM     25  O   UNL     1      10.102   2.133  23.912  0.00  0.00    -0.284 OA
BRANCH  25  26
ATOM     26  P   UNL     1       9.405   3.572  23.818  0.00  0.00    +0.472 P 
ATOM     27  O   UNL     1       8.653   4.018  25.021  0.00  0.00    -0.228 OA
BRANCH  26  28
ATOM     28  O   UNL     1       8.541   3.479  22.483  0.00  0.00    -0.303 OA
ATOM     29  H   UNL     1       8.993   3.863  21.711  0.00  0.00    +0.222 HD
ENDBRANCH  26  28
BRANCH  26  30
ATOM     30  O   UNL     1      10.616   4.523  23.407  0.00  0.00    -0.303 OA
ATOM     31  H   UNL     1      11.162   4.127  22.708  0.00  0.00    +0.222 HD
ENDBRANCH  26  30
ENDBRANCH  25  26
ENDBRANCH  24  25
ENDBRANCH   4  24
TORSDOF 8
ENDMDL
MODEL 5
REMARK VINA RESULT:      -6.5      3.971      7.306
REMARK  Name = 
REMARK  8 active torsions:
REMARK  status: ('A' for Active; 'I' for Inactive)
REMARK    1  A    between atoms: N_8  and  C_9
REMARK    2  A    between atoms: C_12  and  C_14
REMARK    3  A    between atoms: C_14  and  O_15
REMARK    4  A    between atoms: O_15  and  P_16
REMARK    5  A    between atoms: P_16  and  O_17
REMARK    6  A    between atoms: P_16  and  O_18
REMARK    7  A    between atoms: C_20  and  O_22
REMARK    8  A    between atoms: C_23  and  O_25
REMARK                            x       y       z     vdW  Elec       q    Type
REMARK                         _______ _______ _______ _____ _____    ______ ____
ROOT
ATOM      1  C   UNL     1       8.133  -5.128  25.779  0.00  0.00    +0.253 C 
ATOM      2  C   UNL     1       9.192  -4.761  24.721  0.00  0.00    +0.195 C 
ATOM      3  C   UNL     1       9.210  -3.225  24.701  0.00  0.00    +0.178 C 
ATOM      4  C   UNL     1       8.152  -2.835  25.732  0.00  0.00    +0.178 C 
ATOM      5  O   UNL     1       8.052  -3.954  26.628  0.00  0.00    -0.346 OA
ENDROOT
BRANCH   1  17
ATOM      6  N   UNL     1       4.600  -7.371  29.086  0.00  0.00    -0.329 N 
ATOM      7  H   UNL     1       4.123  -8.244  29.269  0.00  0.00    +0.145 HD
ATOM      8  H   UNL     1       5.493  -7.305  29.570  0.00  0.00    +0.145 HD
ATOM      9  C   UNL     1       4.709  -6.991  27.790  0.00  0.00    +0.195 A 
ATOM     10  N   UNL     1       3.646  -7.292  26.963  0.00  0.00    -0.293 N 
ATOM     11  H   UNL     1       2.829  -7.745  27.333  0.00  0.00    +0.172 HD
ATOM     12  C   UNL     1       3.579  -6.957  25.618  0.00  0.00    +0.280 A 
ATOM     13  O   UNL     1       2.609  -7.246  24.924  0.00  0.00    -0.265 OA
ATOM     14  C   UNL     1       4.769  -6.266  25.166  0.00  0.00    +0.172 A 
ATOM     15  N   UNL     1       5.108  -5.797  23.924  0.00  0.00    -0.229 NA
ATOM     16  C   UNL     1       6.320  -5.310  24.083  0.00  0.00    +0.203 A 
ATOM     17  N   UNL     1       6.778  -5.447  25.379  0.00  0.00    -0.285 N 
ATOM     18  C   UNL     1       5.771  -6.040  26.082  0.00  0.00    +0.171 A 
ATOM     19  N   UNL     1       5.783  -6.373  27.391  0.00  0.00    -0.196 NA
ENDBRANCH   1  17
BRANCH   2  20
ATOM     20  O   UNL     1      10.491  -5.234  25.157  0.00  0.00    -0.385 OA
ATOM     21  H   UNL     1      10.388  -5.664  26.024  0.00  0.00    +0.210 HD
ENDBRANCH   2  20
BRANCH   3  22
ATOM     22  O   UNL     1       8.917  -2.695  23.411  0.00  0.00    -0.386 OA
ATOM     23  H   UNL     1       9.471  -1.902  23.291  0.00  0.00    +0.210 HD
ENDBRANCH   3  22
BRANCH   4  24
ATOM     24  C   UNL     1       8.480  -1.576  26.519  0.00  0.00    +0.206 C 
BRANCH  24  25
ATOM     25  O   UNL     1       9.374  -0.760  25.788  0.00  0.00    -0.284 OA
BRANCH  25  26
ATOM     26  P   UNL     1       8.743   0.532  25.081  0.00  0.00    +0.472 P 
ATOM     27  O   UNL     1       7.931   0.283  23.860  0.00  0.00    -0.228 OA
BRANCH  26  28
ATOM     28  O   UNL     1       9.999   1.489  24.869  0.00  0.00    -0.303 OA
ATOM     29  H   UNL     1       9.748   2.419  24.733  0.00  0.00    +0.222 HD
ENDBRANCH  26  28
BRANCH  26  30
ATOM     30  O   UNL     1       7.945   1.230  26.272  0.00  0.00    -0.303 OA
ATOM     31  H   UNL     1       8.467   1.938  26.687  0.00  0.00    +0.222 HD
ENDBRANCH  26  30
ENDBRANCH  25  26
ENDBRANCH  24  25
ENDBRANCH   4  24
TORSDOF 8
ENDMDL
MODEL 6
REMARK VINA RESULT:      -6.5      2.368      3.685
REMARK  Name = 
REMARK  8 active torsions:
REMARK  status: ('A' for Active; 'I' for Inactive)
REMARK    1  A    between atoms: N_8  and  C_9
REMARK    2  A    between atoms: C_12  and  C_14
REMARK    3  A    between atoms: C_14  and  O_15
REMARK    4  A    between atoms: O_15  and  P_16
REMARK    5  A    between atoms: P_16  and  O_17
REMARK    6  A    between atoms: P_16  and  O_18
REMARK    7  A    between atoms: C_20  and  O_22
REMARK    8  A    between atoms: C_23  and  O_25
REMARK                            x       y       z     vdW  Elec       q    Type
REMARK                         _______ _______ _______ _____ _____    ______ ____
ROOT
ATOM      1  C   UNL     1       6.725  -2.579  22.873  0.00  0.00    +0.253 C 
ATOM      2  C   UNL     1       6.671  -3.747  21.868  0.00  0.00    +0.195 C 
ATOM      3  C   UNL     1       6.555  -5.007  22.738  0.00  0.00    +0.178 C 
ATOM      4  C   UNL     1       6.569  -4.467  24.167  0.00  0.00    +0.178 C 
ATOM      5  O   UNL     1       6.105  -3.110  24.074  0.00  0.00    -0.346 OA
ENDROOT
BRANCH   1  17
ATOM      6  N   UNL     1       7.125   1.521  26.262  0.00  0.00    -0.329 N 
ATOM      7  H   UNL     1       7.347   2.506  26.296  0.00  0.00    +0.145 HD
ATOM      8  H   UNL     1       6.138   1.349  26.084  0.00  0.00    +0.145 HD
ATOM      9  C   UNL     1       7.913   0.740  25.483  0.00  0.00    +0.195 A 
ATOM     10  N   UNL     1       9.252   1.067  25.429  0.00  0.00    -0.293 N 
ATOM     11  H   UNL     1       9.609   1.833  25.974  0.00  0.00    +0.172 HD
ATOM     12  C   UNL     1      10.203   0.364  24.702  0.00  0.00    +0.280 A 
ATOM     13  O   UNL     1      11.385   0.695  24.688  0.00  0.00    -0.265 OA
ATOM     14  C   UNL     1       9.626  -0.751  23.982  0.00  0.00    +0.172 A 
ATOM     15  N   UNL     1      10.207  -1.663  23.139  0.00  0.00    -0.229 NA
ATOM     16  C   UNL     1       9.203  -2.411  22.731  0.00  0.00    +0.203 A 
ATOM     17  N   UNL     1       7.997  -2.017  23.276  0.00  0.00    -0.285 N 
ATOM     18  C   UNL     1       8.271  -0.965  24.099  0.00  0.00    +0.171 A 
ATOM     19  N   UNL     1       7.386  -0.259  24.836  0.00  0.00    -0.196 NA
ENDBRANCH   1  17
BRANCH   2  20
ATOM     20  O   UNL     1       5.473  -3.630  21.059  0.00  0.00    -0.385 OA
ATOM     21  H   UNL     1       5.668  -3.052  20.301  0.00  0.00    +0.210 HD
ENDBRANCH   2  20
BRANCH   3  22
ATOM     22  O   UNL     1       7.619  -5.926  22.506  0.00  0.00    -0.386 OA
ATOM     23  H   UNL     1       7.216  -6.789  22.293  0.00  0.00    +0.210 HD
ENDBRANCH   3  22
BRANCH   4  24
ATOM     24  C   UNL     1       5.693  -5.242  25.138  0.00  0.00    +0.206 C 
BRANCH  24  25
ATOM     25  O   UNL     1       6.490  -6.064  25.968  0.00  0.00    -0.284 OA
BRANCH  25  26
ATOM     26  P   UNL     1       7.293  -5.325  27.141  0.00  0.00    +0.472 P 
ATOM     27  O   UNL     1       6.790  -3.984  27.539  0.00  0.00    -0.228 OA
BRANCH  26  28
ATOM     28  O   UNL     1       8.802  -5.352  26.632  0.00  0.00    -0.303 OA
ATOM     29  H   UNL     1       8.937  -5.950  25.876  0.00  0.00    +0.222 HD
ENDBRANCH  26  28
BRANCH  26  30
ATOM     30  O   UNL     1       7.280  -6.407  28.311  0.00  0.00    -0.303 OA
ATOM     31  H   UNL     1       6.517  -6.288  28.902  0.00  0.00    +0.222 HD
ENDBRANCH  26  30
ENDBRANCH  25  26
ENDBRANCH  24  25
ENDBRANCH   4  24
TORSDOF 8
ENDMDL
MODEL 7
REMARK VINA RESULT:      -6.5      2.195      3.200
REMARK  Name = 
REMARK  8 active torsions:
REMARK  status: ('A' for Active; 'I' for Inactive)
REMARK    1  A    between atoms: N_8  and  C_9
REMARK    2  A    between atoms: C_12  and  C_14
REMARK    3  A    between atoms: C_14  and  O_15
REMARK    4  A    between atoms: O_15  and  P_16
REMARK    5  A    between atoms: P_16  and  O_17
REMARK    6  A    between atoms: P_16  and  O_18
REMARK    7  A    between atoms: C_20  and  O_22
REMARK    8  A    between atoms: C_23  and  O_25
REMARK                            x       y       z     vdW  Elec       q    Type
REMARK                         _______ _______ _______ _____ _____    ______ ____
ROOT
ATOM      1  C   UNL     1       8.439  -4.587  24.133  0.00  0.00    +0.253 C 
ATOM      2  C   UNL     1       8.979  -4.937  25.534  0.00  0.00    +0.195 C 
ATOM      3  C   UNL     1       7.735  -5.326  26.347  0.00  0.00    +0.178 C 
ATOM      4  C   UNL     1       6.584  -5.151  25.357  0.00  0.00    +0.178 C 
ATOM      5  O   UNL     1       7.169  -5.285  24.052  0.00  0.00    -0.346 OA
ENDROOT
BRANCH   1  17
ATOM      6  N   UNL     1       9.122  -0.536  27.536  0.00  0.00    -0.329 N 
ATOM      7  H   UNL     1       8.605   0.131  28.094  0.00  0.00    +0.145 HD
ATOM      8  H   UNL     1       9.303  -1.404  28.033  0.00  0.00    +0.145 HD
ATOM      9  C   UNL     1       8.666  -0.768  26.281  0.00  0.00    +0.195 A 
ATOM     10  N   UNL     1       8.128   0.307  25.606  0.00  0.00    -0.293 N 
ATOM     11  H   UNL     1       8.113   1.217  26.033  0.00  0.00    +0.172 HD
ATOM     12  C   UNL     1       7.637   0.254  24.308  0.00  0.00    +0.280 A 
ATOM     13  O   UNL     1       7.169   1.241  23.750  0.00  0.00    -0.265 OA
ATOM     14  C   UNL     1       7.735  -1.074  23.740  0.00  0.00    +0.172 A 
ATOM     15  N   UNL     1       7.343  -1.550  22.516  0.00  0.00    -0.229 NA
ATOM     16  C   UNL     1       7.624  -2.835  22.565  0.00  0.00    +0.203 A 
ATOM     17  N   UNL     1       8.180  -3.208  23.772  0.00  0.00    -0.285 N 
ATOM     18  C   UNL     1       8.274  -2.072  24.521  0.00  0.00    +0.171 A 
ATOM     19  N   UNL     1       8.755  -1.967  25.779  0.00  0.00    -0.196 NA
ENDBRANCH   1  17
BRANCH   2  20
ATOM     20  O   UNL     1       9.849  -6.093  25.438  0.00  0.00    -0.385 OA
ATOM     21  H   UNL     1      10.747  -5.827  25.703  0.00  0.00    +0.210 HD
ENDBRANCH   2  20
BRANCH   3  22
ATOM     22  O   UNL     1       7.568  -4.514  27.506  0.00  0.00    -0.386 OA
ATOM     23  H   UNL     1       8.252  -4.781  28.148  0.00  0.00    +0.210 HD
ENDBRANCH   3  22
BRANCH   4  24
ATOM     24  C   UNL     1       5.459  -6.161  25.520  0.00  0.00    +0.206 C 
BRANCH  24  25
ATOM     25  O   UNL     1       5.523  -6.763  26.799  0.00  0.00    -0.284 OA
BRANCH  25  26
ATOM     26  P   UNL     1       4.332  -6.412  27.812  0.00  0.00    +0.472 P 
ATOM     27  O   UNL     1       2.973  -6.310  27.217  0.00  0.00    -0.228 OA
BRANCH  26  28
ATOM     28  O   UNL     1       4.845  -5.095  28.545  0.00  0.00    -0.303 OA
ATOM     29  H   UNL     1       5.154  -4.411  27.926  0.00  0.00    +0.222 HD
ENDBRANCH  26  28
BRANCH  26  30
ATOM     30  O   UNL     1       4.479  -7.538  28.930  0.00  0.00    -0.303 OA
ATOM     31  H   UNL     1       3.750  -7.502  29.573  0.00  0.00    +0.222 HD
ENDBRANCH  26  30
ENDBRANCH  25  26
ENDBRANCH  24  25
ENDBRANCH   4  24
TORSDOF 8
ENDMDL
MODEL 8
REMARK VINA RESULT:      -6.5      3.889      6.888
REMARK  Name = 
REMARK  8 active torsions:
REMARK  status: ('A' for Active; 'I' for Inactive)
REMARK    1  A    between atoms: N_8  and  C_9
REMARK    2  A    between atoms: C_12  and  C_14
REMARK    3  A    between atoms: C_14  and  O_15
REMARK    4  A    between atoms: O_15  and  P_16
REMARK    5  A    between atoms: P_16  and  O_17
REMARK    6  A    between atoms: P_16  and  O_18
REMARK    7  A    between atoms: C_20  and  O_22
REMARK    8  A    between atoms: C_23  and  O_25
REMARK                            x       y       z     vdW  Elec       q    Type
REMARK                         _______ _______ _______ _____ _____    ______ ____
ROOT
ATOM      1  C   UNL     1       7.166  -4.435  23.369  0.00  0.00    +0.253 C 
ATOM      2  C   UNL     1       6.099  -3.462  22.829  0.00  0.00    +0.195 C 
ATOM      3  C   UNL     1       6.842  -2.130  22.645  0.00  0.00    +0.178 C 
ATOM      4  C   UNL     1       8.264  -2.439  23.110  0.00  0.00    +0.178 C 
ATOM      5  O   UNL     1       8.428  -3.856  22.945  0.00  0.00    -0.346 OA
ENDROOT
BRANCH   1  17
ATOM      6  N   UNL     1       3.702  -7.478  26.051  0.00  0.00    -0.329 N 
ATOM      7  H   UNL     1       2.944  -7.423  26.718  0.00  0.00    +0.145 HD
ATOM      8  H   UNL     1       3.381  -7.401  25.089  0.00  0.00    +0.145 HD
ATOM      9  C   UNL     1       4.779  -6.689  26.279  0.00  0.00    +0.195 A 
ATOM     10  N   UNL     1       5.139  -6.493  27.597  0.00  0.00    -0.293 N 
ATOM     11  H   UNL     1       4.629  -6.949  28.334  0.00  0.00    +0.172 HD
ATOM     12  C   UNL     1       6.226  -5.735  28.009  0.00  0.00    +0.280 A 
ATOM     13  O   UNL     1       6.505  -5.593  29.196  0.00  0.00    -0.265 OA
ATOM     14  C   UNL     1       6.940  -5.149  26.894  0.00  0.00    +0.172 A 
ATOM     15  N   UNL     1       8.034  -4.324  26.872  0.00  0.00    -0.229 NA
ATOM     16  C   UNL     1       8.214  -4.061  25.595  0.00  0.00    +0.203 A 
ATOM     17  N   UNL     1       7.278  -4.682  24.792  0.00  0.00    -0.285 N 
ATOM     18  C   UNL     1       6.472  -5.401  25.624  0.00  0.00    +0.171 A 
ATOM     19  N   UNL     1       5.413  -6.163  25.271  0.00  0.00    -0.196 NA
ENDBRANCH   1  17
BRANCH   2  20
ATOM     20  O   UNL     1       5.644  -3.920  21.531  0.00  0.00    -0.385 OA
ATOM     21  H   UNL     1       5.999  -3.323  20.850  0.00  0.00    +0.210 HD
ENDBRANCH   2  20
BRANCH   3  22
ATOM     22  O   UNL     1       6.254  -1.072  23.399  0.00  0.00    -0.386 OA
ATOM     23  H   UNL     1       6.017  -1.436  24.272  0.00  0.00    +0.210 HD
ENDBRANCH   3  22
BRANCH   4  24
ATOM     24  C   UNL     1       9.349  -1.705  22.336  0.00  0.00    +0.206 C 
BRANCH  24  25
ATOM     25  O   UNL     1       8.858  -0.466  21.861  0.00  0.00    -0.284 OA
BRANCH  25  26
ATOM     26  P   UNL     1       9.408   0.847  22.596  0.00  0.00    +0.472 P 
ATOM     27  O   UNL     1      10.608   0.666  23.455  0.00  0.00    -0.228 OA
BRANCH  26  28
ATOM     28  O   UNL     1       8.124   1.416  23.347  0.00  0.00    -0.303 OA
ATOM     29  H   UNL     1       7.985   2.367  23.195  0.00  0.00    +0.222 HD
ENDBRANCH  26  28
BRANCH  26  30
ATOM     30  O   UNL     1       9.610   1.867  21.388  0.00  0.00    -0.303 OA
ATOM     31  H   UNL     1       9.749   2.776  21.705  0.00  0.00    +0.222 HD
ENDBRANCH  26  30
ENDBRANCH  25  26
ENDBRANCH  24  25
ENDBRANCH   4  24
TORSDOF 8
ENDMDL
MODEL 9
REMARK VINA RESULT:      -6.3      2.456      3.444
REMARK  Name = 
REMARK  8 active torsions:
REMARK  status: ('A' for Active; 'I' for Inactive)
REMARK    1  A    between atoms: N_8  and  C_9
REMARK    2  A    between atoms: C_12  and  C_14
REMARK    3  A    between atoms: C_14  and  O_15
REMARK    4  A    between atoms: O_15  and  P_16
REMARK    5  A    between atoms: P_16  and  O_17
REMARK    6  A    between atoms: P_16  and  O_18
REMARK    7  A    between atoms: C_20  and  O_22
REMARK    8  A    between atoms: C_23  and  O_25
REMARK                            x       y       z     vdW  Elec       q    Type
REMARK                         _______ _______ _______ _____ _____    ______ ____
ROOT
ATOM      1  C   UNL     1       6.677  -1.923  22.609  0.00  0.00    +0.253 C 
ATOM      2  C   UNL     1       6.883  -3.396  22.204  0.00  0.00    +0.195 C 
ATOM      3  C   UNL     1       6.899  -4.169  23.530  0.00  0.00    +0.178 C 
ATOM      4  C   UNL     1       6.720  -3.081  24.588  0.00  0.00    +0.178 C 
ATOM      5  O   UNL     1       6.058  -1.995  23.920  0.00  0.00    -0.346 OA
ENDROOT
BRANCH   1  17
ATOM      6  N   UNL     1       6.287   3.353  21.928  0.00  0.00    -0.329 N 
ATOM      7  H   UNL     1       6.527   4.092  21.281  0.00  0.00    +0.145 HD
ATOM      8  H   UNL     1       5.381   2.937  21.728  0.00  0.00    +0.145 HD
ATOM      9  C   UNL     1       7.229   2.405  22.153  0.00  0.00    +0.195 A 
ATOM     10  N   UNL     1       8.543   2.824  22.163  0.00  0.00    -0.293 N 
ATOM     11  H   UNL     1       8.766   3.796  22.039  0.00  0.00    +0.172 HD
ATOM     12  C   UNL     1       9.630   1.994  22.401  0.00  0.00    +0.280 A 
ATOM     13  O   UNL     1      10.782   2.416  22.402  0.00  0.00    -0.265 OA
ATOM     14  C   UNL     1       9.231   0.619  22.619  0.00  0.00    +0.172 A 
ATOM     15  N   UNL     1       9.986  -0.500  22.854  0.00  0.00    -0.229 NA
ATOM     16  C   UNL     1       9.105  -1.476  22.919  0.00  0.00    +0.203 A 
ATOM     17  N   UNL     1       7.811  -1.031  22.733  0.00  0.00    -0.285 N 
ATOM     18  C   UNL     1       7.889   0.320  22.564  0.00  0.00    +0.171 A 
ATOM     19  N   UNL     1       6.862   1.170  22.344  0.00  0.00    -0.196 NA
ENDBRANCH   1  17
BRANCH   2  20
ATOM     20  O   UNL     1       5.747  -3.842  21.421  0.00  0.00    -0.385 OA
ATOM     21  H   UNL     1       5.482  -3.123  20.822  0.00  0.00    +0.210 HD
ENDBRANCH   2  20
BRANCH   3  22
ATOM     22  O   UNL     1       8.109  -4.899  23.718  0.00  0.00    -0.386 OA
ATOM     23  H   UNL     1       8.692  -4.693  22.964  0.00  0.00    +0.210 HD
ENDBRANCH   3  22
BRANCH   4  24
ATOM     24  C   UNL     1       5.905  -3.512  25.797  0.00  0.00    +0.206 C 
BRANCH  24  25
ATOM     25  O   UNL     1       5.739  -4.917  25.801  0.00  0.00    -0.284 OA
BRANCH  25  26
ATOM     26  P   UNL     1       6.323  -5.700  27.070  0.00  0.00    +0.472 P 
ATOM     27  O   UNL     1       5.632  -6.965  27.437  0.00  0.00    -0.228 OA
BRANCH  26  28
ATOM     28  O   UNL     1       6.345  -4.591  28.213  0.00  0.00    -0.303 OA
ATOM     29  H   UNL     1       6.240  -4.963  29.106  0.00  0.00    +0.222 HD
ENDBRANCH  26  28
BRANCH  26  30
ATOM     30  O   UNL     1       7.862  -5.875  26.697  0.00  0.00    -0.303 OA
ATOM     31  H   UNL     1       8.071  -6.795  26.459  0.00  0.00    +0.222 HD
ENDBRANCH  26  30
ENDBRANCH  25  26
ENDBRANCH  24  25
ENDBRANCH   4  24
TORSDOF 8
ENDMDL
