MODEL 1
REMARK VINA RESULT:      -7.6      0.000      0.000
REMARK  Name = 
REMARK  8 active torsions:
REMARK  status: ('A' for Active; 'I' for Inactive)
REMARK    1  A    between atoms: C_1  and  N_2
REMARK    2  A    between atoms: C_5  and  C_6
REMARK    3  A    between atoms: N_8  and  C_28
REMARK    4  A    between atoms: N_11  and  C_12
REMARK    5  A    between atoms: C_18  and  N_19
REMARK    6  A    between atoms: N_19  and  C_20
REMARK    7  A    between atoms: C_30  and  N_31
REMARK    8  A    between atoms: C_32  and  C_33
REMARK                            x       y       z     vdW  Elec       q    Type
REMARK                         _______ _______ _______ _____ _____    ______ ____
ROOT
ATOM      1  C   UNL     1       8.317  -3.261  22.656  0.00  0.00    +0.154 C 
ATOM      2  N   UNL     1       8.125  -1.894  23.131  0.00  0.00    -0.299 N 
ATOM      3  C   UNL     1       7.397  -1.632  24.290  0.00  0.00    +0.120 A 
ATOM      4  C   UNL     1       7.114  -0.326  24.579  0.00  0.00    +0.102 A 
ATOM      5  C   UNL     1       7.558   0.793  23.726  0.00  0.00    +0.075 A 
ATOM      6  N   UNL     1       7.129   2.095  24.074  0.00  0.00    -0.261 N 
ATOM      7  C   UNL     1       6.269   2.351  25.170  0.00  0.00    +0.337 A 
ATOM      8  N   UNL     1       5.958   1.293  26.012  0.00  0.00    -0.257 N 
ATOM      9  O   UNL     1       5.811   3.475  25.416  0.00  0.00    -0.246 OA
ATOM     10  C   UNL     1       8.246   0.495  22.596  0.00  0.00    +0.039 A 
ATOM     11  C   UNL     1       8.548   1.359  21.396  0.00  0.00    +0.051 C 
ATOM     12  C   UNL     1       6.215  -0.038  25.742  0.00  0.00    +0.268 A 
ATOM     13  O   UNL     1       5.661  -0.928  26.390  0.00  0.00    -0.267 OA
ATOM     14  C   UNL     1       8.715  -0.907  22.367  0.00  0.00    +0.257 A 
ATOM     15  O   UNL     1       9.538  -1.143  21.485  0.00  0.00    -0.267 OA
ENDROOT
BRANCH   6  16
ATOM     16  C   UNL     1       7.673   3.323  23.510  0.00  0.00    +0.053 A 
ATOM     17  C   UNL     1       6.937   4.029  22.544  0.00  0.00    +0.026 A 
ATOM     18  C   UNL     1       7.247   5.351  22.235  0.00  0.00    +0.004 A 
ATOM     19  C   UNL     1       8.320   5.975  22.867  0.00  0.00    +0.023 A 
ATOM     20  C   UNL     1       9.135   5.264  23.758  0.00  0.00    +0.035 A 
ATOM     21  C   UNL     1       8.811   3.933  24.072  0.00  0.00    +0.049 A 
BRANCH  20  22
ATOM     22  N   UNL     1      10.219   5.969  24.321  0.00  0.00    -0.286 N 
ATOM     23  H   UNL     1       9.970   6.721  24.967  0.00  0.00    +0.155 HD
ATOM     24  C   UNL     1      11.560   5.792  24.071  0.00  0.00    +0.214 C 
ATOM     25  O   UNL     1      12.056   4.962  23.319  0.00  0.00    -0.276 OA
ATOM     26  C   UNL     1      12.442   6.733  24.861  0.00  0.00    +0.109 C 
ENDBRANCH  20  22
ENDBRANCH   6  16
BRANCH   8  27
ATOM     27  C   UNL     1       5.073   1.565  27.144  0.00  0.00    +0.095 C 
ATOM     28  C   UNL     1       5.216   2.748  28.074  0.00  0.00    +0.027 C 
ATOM     29  C   UNL     1       5.568   1.380  28.561  0.00  0.00    +0.027 C 
ENDBRANCH   8  27
BRANCH   3  30
ATOM     30  N   UNL     1       6.947  -2.706  25.049  0.00  0.00    -0.298 N 
ATOM     31  H   UNL     1       7.297  -2.748  26.003  0.00  0.00    +0.154 HD
BRANCH  30  32
ATOM     32  C   UNL     1       5.988  -3.691  24.734  0.00  0.00    +0.068 A 
ATOM     33  C   UNL     1       6.180  -5.012  25.181  0.00  0.00    +0.145 A 
ATOM     34  F   UNL     1       7.302  -5.323  25.850  0.00  0.00    -0.204 F 
ATOM     35  C   UNL     1       5.234  -6.017  24.974  0.00  0.00    +0.054 A 
ATOM     36  C   UNL     1       4.059  -5.703  24.303  0.00  0.00    +0.016 A 
ATOM     37  I   UNL     1       2.561  -7.131  24.112  0.00  0.00    -0.044 I 
ATOM     38  C   UNL     1       3.867  -4.420  23.787  0.00  0.00    +0.016 A 
ATOM     39  C   UNL     1       4.833  -3.423  23.993  0.00  0.00    +0.027 A 
ENDBRANCH  30  32
ENDBRANCH   3  30
TORSDOF 5
ENDMDL
MODEL 2
REMARK VINA RESULT:      -7.2      3.519      8.557
REMARK  Name = 
REMARK  8 active torsions:
REMARK  status: ('A' for Active; 'I' for Inactive)
REMARK    1  A    between atoms: C_1  and  N_2
REMARK    2  A    between atoms: C_5  and  C_6
REMARK    3  A    between atoms: N_8  and  C_28
REMARK    4  A    between atoms: N_11  and  C_12
REMARK    5  A    between atoms: C_18  and  N_19
REMARK    6  A    between atoms: N_19  and  C_20
REMARK    7  A    between atoms: C_30  and  N_31
REMARK    8  A    between atoms: C_32  and  C_33
REMARK                            x       y       z     vdW  Elec       q    Type
REMARK                         _______ _______ _______ _____ _____    ______ ____
ROOT
ATOM      1  C   UNL     1      10.548  -0.204  23.510  0.00  0.00    +0.154 C 
ATOM      2  N   UNL     1       9.354  -0.845  24.049  0.00  0.00    -0.299 N 
ATOM      3  C   UNL     1       8.525  -0.179  24.951  0.00  0.00    +0.120 A 
ATOM      4  C   UNL     1       7.524  -0.899  25.543  0.00  0.00    +0.102 A 
ATOM      5  C   UNL     1       7.290  -2.327  25.252  0.00  0.00    +0.075 A 
ATOM      6  N   UNL     1       6.284  -2.992  25.991  0.00  0.00    -0.261 N 
ATOM      7  C   UNL     1       5.535  -2.355  27.011  0.00  0.00    +0.337 A 
ATOM      8  N   UNL     1       5.707  -0.989  27.186  0.00  0.00    -0.257 N 
ATOM      9  O   UNL     1       4.727  -2.960  27.728  0.00  0.00    -0.246 OA
ATOM     10  C   UNL     1       8.130  -2.944  24.384  0.00  0.00    +0.039 A 
ATOM     11  C   UNL     1       8.346  -4.416  24.134  0.00  0.00    +0.051 C 
ATOM     12  C   UNL     1       6.717  -0.237  26.617  0.00  0.00    +0.268 A 
ATOM     13  O   UNL     1       6.972   0.893  27.039  0.00  0.00    -0.267 OA
ATOM     14  C   UNL     1       9.108  -2.127  23.599  0.00  0.00    +0.257 A 
ATOM     15  O   UNL     1       9.699  -2.627  22.644  0.00  0.00    -0.267 OA
ENDROOT
BRANCH   6  16
ATOM     16  C   UNL     1       5.748  -4.305  25.661  0.00  0.00    +0.053 A 
ATOM     17  C   UNL     1       6.023  -5.398  26.501  0.00  0.00    +0.026 A 
ATOM     18  C   UNL     1       5.271  -6.568  26.420  0.00  0.00    +0.004 A 
ATOM     19  C   UNL     1       4.254  -6.672  25.474  0.00  0.00    +0.023 A 
ATOM     20  C   UNL     1       4.026  -5.638  24.555  0.00  0.00    +0.035 A 
ATOM     21  C   UNL     1       4.781  -4.457  24.648  0.00  0.00    +0.049 A 
BRANCH  20  22
ATOM     22  N   UNL     1       2.999  -5.849  23.612  0.00  0.00    -0.286 N 
ATOM     23  H   UNL     1       3.302  -6.194  22.697  0.00  0.00    +0.155 HD
ATOM     24  C   UNL     1       1.654  -5.606  23.761  0.00  0.00    +0.214 C 
ATOM     25  O   UNL     1       1.101  -5.177  24.767  0.00  0.00    -0.276 OA
ATOM     26  C   UNL     1       0.845  -5.955  22.532  0.00  0.00    +0.109 C 
ENDBRANCH  20  22
ENDBRANCH   6  16
BRANCH   8  27
ATOM     27  C   UNL     1       4.928  -0.337  28.238  0.00  0.00    +0.095 C 
ATOM     28  C   UNL     1       3.470  -0.618  28.520  0.00  0.00    +0.027 C 
ATOM     29  C   UNL     1       3.862   0.675  27.884  0.00  0.00    +0.027 C 
ENDBRANCH   8  27
BRANCH   3  30
ATOM     30  N   UNL     1       8.798   1.151  25.247  0.00  0.00    -0.298 N 
ATOM     31  H   UNL     1       9.355   1.310  26.083  0.00  0.00    +0.154 HD
BRANCH  30  32
ATOM     32  C   UNL     1       8.512   2.315  24.503  0.00  0.00    +0.068 A 
ATOM     33  C   UNL     1       7.298   2.404  23.796  0.00  0.00    +0.145 A 
ATOM     34  F   UNL     1       6.459   1.355  23.795  0.00  0.00    -0.204 F 
ATOM     35  C   UNL     1       6.917   3.556  23.108  0.00  0.00    +0.054 A 
ATOM     36  C   UNL     1       7.765   4.656  23.120  0.00  0.00    +0.016 A 
ATOM     37  I   UNL     1       7.164   6.439  22.237  0.00  0.00    -0.044 I 
ATOM     38  C   UNL     1       9.007   4.577  23.754  0.00  0.00    +0.016 A 
ATOM     39  C   UNL     1       9.381   3.407  24.433  0.00  0.00    +0.027 A 
ENDBRANCH  30  32
ENDBRANCH   3  30
TORSDOF 5
ENDMDL
MODEL 3
REMARK VINA RESULT:      -7.0      3.894      8.932
REMARK  Name = 
REMARK  8 active torsions:
REMARK  status: ('A' for Active; 'I' for Inactive)
REMARK    1  A    between atoms: C_1  and  N_2
REMARK    2  A    between atoms: C_5  and  C_6
REMARK    3  A    between atoms: N_8  and  C_28
REMARK    4  A    between atoms: N_11  and  C_12
REMARK    5  A    between atoms: C_18  and  N_19
REMARK    6  A    between atoms: N_19  and  C_20
REMARK    7  A    between atoms: C_30  and  N_31
REMARK    8  A    between atoms: C_32  and  C_33
REMARK                            x       y       z     vdW  Elec       q    Type
REMARK                         _______ _______ _______ _____ _____    ______ ____
ROOT
ATOM      1  C   UNL     1       8.347  -0.651  21.884  0.00  0.00    +0.154 C 
ATOM      2  N   UNL     1       7.523  -1.249  22.930  0.00  0.00    -0.299 N 
ATOM      3  C   UNL     1       6.611  -0.481  23.653  0.00  0.00    +0.120 A 
ATOM      4  C   UNL     1       6.001  -1.066  24.727  0.00  0.00    +0.102 A 
ATOM      5  C   UNL     1       6.262  -2.462  25.129  0.00  0.00    +0.075 A 
ATOM      6  N   UNL     1       5.643  -2.933  26.311  0.00  0.00    -0.261 N 
ATOM      7  C   UNL     1       4.828  -2.111  27.128  0.00  0.00    +0.337 A 
ATOM      8  N   UNL     1       4.518  -0.840  26.667  0.00  0.00    -0.257 N 
ATOM      9  O   UNL     1       4.369  -2.490  28.214  0.00  0.00    -0.246 OA
ATOM     10  C   UNL     1       7.171  -3.169  24.413  0.00  0.00    +0.039 A 
ATOM     11  C   UNL     1       7.869  -4.463  24.752  0.00  0.00    +0.051 C 
ATOM     12  C   UNL     1       5.128  -0.214  25.596  0.00  0.00    +0.268 A 
ATOM     13  O   UNL     1       5.007   1.002  25.427  0.00  0.00    -0.267 OA
ATOM     14  C   UNL     1       7.705  -2.602  23.136  0.00  0.00    +0.257 A 
ATOM     15  O   UNL     1       8.331  -3.320  22.359  0.00  0.00    -0.267 OA
ENDROOT
BRANCH   6  16
ATOM     16  C   UNL     1       5.578  -4.332  26.709  0.00  0.00    +0.053 A 
ATOM     17  C   UNL     1       6.385  -4.791  27.764  0.00  0.00    +0.026 A 
ATOM     18  C   UNL     1       6.117  -6.005  28.393  0.00  0.00    +0.004 A 
ATOM     19  C   UNL     1       5.056  -6.792  27.951  0.00  0.00    +0.023 A 
ATOM     20  C   UNL     1       4.299  -6.409  26.835  0.00  0.00    +0.035 A 
ATOM     21  C   UNL     1       4.569  -5.179  26.212  0.00  0.00    +0.049 A 
BRANCH  20  22
ATOM     22  N   UNL     1       3.269  -7.288  26.441  0.00  0.00    -0.286 N 
ATOM     23  H   UNL     1       2.618  -7.566  27.179  0.00  0.00    +0.155 HD
ATOM     24  C   UNL     1       3.065  -7.844  25.200  0.00  0.00    +0.214 C 
ATOM     25  O   UNL     1       3.743  -7.651  24.197  0.00  0.00    -0.276 OA
ATOM     26  C   UNL     1       1.852  -8.744  25.142  0.00  0.00    +0.109 C 
ENDBRANCH  20  22
ENDBRANCH   6  16
BRANCH   8  27
ATOM     27  C   UNL     1       3.673   0.002  27.514  0.00  0.00    +0.095 C 
ATOM     28  C   UNL     1       2.540  -0.515  28.370  0.00  0.00    +0.027 C 
ATOM     29  C   UNL     1       2.234   0.266  27.133  0.00  0.00    +0.027 C 
ENDBRANCH   8  27
BRANCH   3  30
ATOM     30  N   UNL     1       6.422   0.846  23.286  0.00  0.00    -0.298 N 
ATOM     31  H   UNL     1       5.505   1.071  22.907  0.00  0.00    +0.154 HD
BRANCH  30  32
ATOM     32  C   UNL     1       7.272   1.958  23.461  0.00  0.00    +0.068 A 
ATOM     33  C   UNL     1       7.062   3.118  22.690  0.00  0.00    +0.145 A 
ATOM     34  F   UNL     1       6.092   3.123  21.760  0.00  0.00    -0.204 F 
ATOM     35  C   UNL     1       7.812   4.280  22.868  0.00  0.00    +0.054 A 
ATOM     36  C   UNL     1       8.803   4.296  23.842  0.00  0.00    +0.016 A 
ATOM     37  I   UNL     1       9.837   6.054  24.241  0.00  0.00    -0.044 I 
ATOM     38  C   UNL     1       9.083   3.141  24.576  0.00  0.00    +0.016 A 
ATOM     39  C   UNL     1       8.326   1.976  24.378  0.00  0.00    +0.027 A 
ENDBRANCH  30  32
ENDBRANCH   3  30
TORSDOF 5
ENDMDL
MODEL 4
REMARK VINA RESULT:      -6.8      2.509      4.614
REMARK  Name = 
REMARK  8 active torsions:
REMARK  status: ('A' for Active; 'I' for Inactive)
REMARK    1  A    between atoms: C_1  and  N_2
REMARK    2  A    between atoms: C_5  and  C_6
REMARK    3  A    between atoms: N_8  and  C_28
REMARK    4  A    between atoms: N_11  and  C_12
REMARK    5  A    between atoms: C_18  and  N_19
REMARK    6  A    between atoms: N_19  and  C_20
REMARK    7  A    between atoms: C_30  and  N_31
REMARK    8  A    between atoms: C_32  and  C_33
REMARK                            x       y       z     vdW  Elec       q    Type
REMARK                         _______ _______ _______ _____ _____    ______ ____
ROOT
ATOM      1  C   UNL     1       3.237   0.405  27.180  0.00  0.00    +0.154 C 
ATOM      2  N   UNL     1       4.442   0.024  26.451  0.00  0.00    -0.299 N 
ATOM      3  C   UNL     1       5.051  -1.212  26.665  0.00  0.00    +0.120 A 
ATOM      4  C   UNL     1       6.266  -1.430  26.077  0.00  0.00    +0.102 A 
ATOM      5  C   UNL     1       6.934  -0.423  25.230  0.00  0.00    +0.075 A 
ATOM      6  N   UNL     1       8.230  -0.723  24.750  0.00  0.00    -0.261 N 
ATOM      7  C   UNL     1       8.912  -1.919  25.083  0.00  0.00    +0.337 A 
ATOM      8  N   UNL     1       8.216  -2.888  25.791  0.00  0.00    -0.257 N 
ATOM      9  O   UNL     1      10.084  -2.139  24.748  0.00  0.00    -0.246 OA
ATOM     10  C   UNL     1       6.319   0.775  25.064  0.00  0.00    +0.039 A 
ATOM     11  C   UNL     1       6.873   2.077  24.541  0.00  0.00    +0.051 C 
ATOM     12  C   UNL     1       6.996  -2.695  26.411  0.00  0.00    +0.268 A 
ATOM     13  O   UNL     1       6.583  -3.499  27.249  0.00  0.00    -0.267 OA
ATOM     14  C   UNL     1       4.916   0.956  25.549  0.00  0.00    +0.257 A 
ATOM     15  O   UNL     1       4.265   1.937  25.195  0.00  0.00    -0.267 OA
ENDROOT
BRANCH   6  16
ATOM     16  C   UNL     1       8.919   0.025  23.708  0.00  0.00    +0.053 A 
ATOM     17  C   UNL     1       8.599  -0.209  22.359  0.00  0.00    +0.026 A 
ATOM     18  C   UNL     1       8.971   0.697  21.369  0.00  0.00    +0.004 A 
ATOM     19  C   UNL     1       9.698   1.835  21.712  0.00  0.00    +0.023 A 
ATOM     20  C   UNL     1      10.120   2.041  23.033  0.00  0.00    +0.035 A 
ATOM     21  C   UNL     1       9.734   1.128  24.028  0.00  0.00    +0.049 A 
BRANCH  20  22
ATOM     22  N   UNL     1      10.883   3.203  23.277  0.00  0.00    -0.286 N 
ATOM     23  H   UNL     1      11.898   3.078  23.256  0.00  0.00    +0.155 HD
ATOM     24  C   UNL     1      10.425   4.463  23.579  0.00  0.00    +0.214 C 
ATOM     25  O   UNL     1       9.252   4.808  23.669  0.00  0.00    -0.276 OA
ATOM     26  C   UNL     1      11.536   5.470  23.777  0.00  0.00    +0.109 C 
ENDBRANCH  20  22
ENDBRANCH   6  16
BRANCH   8  27
ATOM     27  C   UNL     1       8.925  -4.122  26.128  0.00  0.00    +0.095 C 
ATOM     28  C   UNL     1       9.796  -4.896  25.165  0.00  0.00    +0.027 C 
ATOM     29  C   UNL     1       8.464  -5.446  25.561  0.00  0.00    +0.027 C 
ENDBRANCH   8  27
BRANCH   3  30
ATOM     30  N   UNL     1       4.426  -2.123  27.508  0.00  0.00    -0.298 N 
ATOM     31  H   UNL     1       4.637  -2.024  28.498  0.00  0.00    +0.154 HD
BRANCH  30  32
ATOM     32  C   UNL     1       3.454  -3.102  27.213  0.00  0.00    +0.068 A 
ATOM     33  C   UNL     1       3.203  -3.446  25.870  0.00  0.00    +0.145 A 
ATOM     34  F   UNL     1       3.853  -2.794  24.892  0.00  0.00    -0.204 F 
ATOM     35  C   UNL     1       2.316  -4.461  25.512  0.00  0.00    +0.054 A 
ATOM     36  C   UNL     1       1.655  -5.159  26.515  0.00  0.00    +0.016 A 
ATOM     37  I   UNL     1       0.444  -6.776  26.028  0.00  0.00    -0.044 I 
ATOM     38  C   UNL     1       1.829  -4.797  27.852  0.00  0.00    +0.016 A 
ATOM     39  C   UNL     1       2.717  -3.767  28.197  0.00  0.00    +0.027 A 
ENDBRANCH  30  32
ENDBRANCH   3  30
TORSDOF 5
ENDMDL
MODEL 5
REMARK VINA RESULT:      -6.4      1.979      2.209
REMARK  Name = 
REMARK  8 active torsions:
REMARK  status: ('A' for Active; 'I' for Inactive)
REMARK    1  A    between atoms: C_1  and  N_2
REMARK    2  A    between atoms: C_5  and  C_6
REMARK    3  A    between atoms: N_8  and  C_28
REMARK    4  A    between atoms: N_11  and  C_12
REMARK    5  A    between atoms: C_18  and  N_19
REMARK    6  A    between atoms: N_19  and  C_20
REMARK    7  A    between atoms: C_30  and  N_31
REMARK    8  A    between atoms: C_32  and  C_33
REMARK                            x       y       z     vdW  Elec       q    Type
REMARK                         _______ _______ _______ _____ _____    ______ ____
ROOT
ATOM      1  C   UNL     1       7.540  -2.288  22.463  0.00  0.00    +0.154 C 
ATOM      2  N   UNL     1       7.469  -0.938  23.011  0.00  0.00    -0.299 N 
ATOM      3  C   UNL     1       6.483  -0.587  23.933  0.00  0.00    +0.120 A 
ATOM      4  C   UNL     1       6.373   0.734  24.271  0.00  0.00    +0.102 A 
ATOM      5  C   UNL     1       7.256   1.776  23.713  0.00  0.00    +0.075 A 
ATOM      6  N   UNL     1       6.990   3.120  24.064  0.00  0.00    -0.261 N 
ATOM      7  C   UNL     1       5.900   3.496  24.887  0.00  0.00    +0.337 A 
ATOM      8  N   UNL     1       5.155   2.485  25.479  0.00  0.00    -0.257 N 
ATOM      9  O   UNL     1       5.605   4.677  25.113  0.00  0.00    -0.246 OA
ATOM     10  C   UNL     1       8.189   1.397  22.804  0.00  0.00    +0.039 A 
ATOM     11  C   UNL     1       8.998   2.237  21.847  0.00  0.00    +0.051 C 
ATOM     12  C   UNL     1       5.231   1.146  25.148  0.00  0.00    +0.268 A 
ATOM     13  O   UNL     1       4.350   0.360  25.505  0.00  0.00    -0.267 OA
ATOM     14  C   UNL     1       8.436  -0.059  22.566  0.00  0.00    +0.257 A 
ATOM     15  O   UNL     1       9.431  -0.419  21.939  0.00  0.00    -0.267 OA
ENDROOT
BRANCH   6  16
ATOM     16  C   UNL     1       7.899   4.232  23.823  0.00  0.00    +0.053 A 
ATOM     17  C   UNL     1       7.684   5.077  22.721  0.00  0.00    +0.026 A 
ATOM     18  C   UNL     1       8.303   6.323  22.644  0.00  0.00    +0.004 A 
ATOM     19  C   UNL     1       9.172   6.726  23.655  0.00  0.00    +0.023 A 
ATOM     20  C   UNL     1       9.485   5.862  24.714  0.00  0.00    +0.035 A 
ATOM     21  C   UNL     1       8.850   4.611  24.789  0.00  0.00    +0.049 A 
BRANCH  20  22
ATOM     22  N   UNL     1      10.403   6.344  25.670  0.00  0.00    -0.286 N 
ATOM     23  H   UNL     1      10.006   6.583  26.583  0.00  0.00    +0.155 HD
ATOM     24  C   UNL     1      11.750   6.568  25.508  0.00  0.00    +0.214 C 
ATOM     25  O   UNL     1      12.402   6.364  24.491  0.00  0.00    -0.276 OA
ATOM     26  C   UNL     1      12.422   7.090  26.758  0.00  0.00    +0.109 C 
ENDBRANCH  20  22
ENDBRANCH   6  16
BRANCH   8  27
ATOM     27  C   UNL     1       4.033   2.880  26.330  0.00  0.00    +0.095 C 
ATOM     28  C   UNL     1       4.041   4.079  27.251  0.00  0.00    +0.027 C 
ATOM     29  C   UNL     1       4.114   2.704  27.830  0.00  0.00    +0.027 C 
ENDBRANCH   8  27
BRANCH   3  30
ATOM     30  N   UNL     1       5.631  -1.578  24.404  0.00  0.00    -0.298 N 
ATOM     31  H   UNL     1       4.768  -1.702  23.881  0.00  0.00    +0.154 HD
BRANCH  30  32
ATOM     32  C   UNL     1       5.829  -2.519  25.437  0.00  0.00    +0.068 A 
ATOM     33  C   UNL     1       4.712  -3.102  26.065  0.00  0.00    +0.145 A 
ATOM     34  F   UNL     1       3.478  -2.709  25.710  0.00  0.00    -0.204 F 
ATOM     35  C   UNL     1       4.835  -4.097  27.036  0.00  0.00    +0.054 A 
ATOM     36  C   UNL     1       6.105  -4.528  27.396  0.00  0.00    +0.016 A 
ATOM     37  I   UNL     1       6.324  -6.112  28.724  0.00  0.00    -0.044 I 
ATOM     38  C   UNL     1       7.235  -3.922  26.843  0.00  0.00    +0.016 A 
ATOM     39  C   UNL     1       7.095  -2.915  25.875  0.00  0.00    +0.027 A 
ENDBRANCH  30  32
ENDBRANCH   3  30
TORSDOF 5
ENDMDL
MODEL 6
REMARK VINA RESULT:      -6.4      3.636      7.916
REMARK  Name = 
REMARK  8 active torsions:
REMARK  status: ('A' for Active; 'I' for Inactive)
REMARK    1  A    between atoms: C_1  and  N_2
REMARK    2  A    between atoms: C_5  and  C_6
REMARK    3  A    between atoms: N_8  and  C_28
REMARK    4  A    between atoms: N_11  and  C_12
REMARK    5  A    between atoms: C_18  and  N_19
REMARK    6  A    between atoms: N_19  and  C_20
REMARK    7  A    between atoms: C_30  and  N_31
REMARK    8  A    between atoms: C_32  and  C_33
REMARK                            x       y       z     vdW  Elec       q    Type
REMARK                         _______ _______ _______ _____ _____    ______ ____
ROOT
ATOM      1  C   UNL     1       9.450   4.275  24.152  0.00  0.00    +0.154 C 
ATOM      2  N   UNL     1       8.854   2.980  24.462  0.00  0.00    -0.299 N 
ATOM      3  C   UNL     1       7.648   2.891  25.156  0.00  0.00    +0.120 A 
ATOM      4  C   UNL     1       7.239   1.651  25.560  0.00  0.00    +0.102 A 
ATOM      5  C   UNL     1       8.011   0.425  25.276  0.00  0.00    +0.075 A 
ATOM      6  N   UNL     1       7.537  -0.791  25.821  0.00  0.00    -0.261 N 
ATOM      7  C   UNL     1       6.390  -0.864  26.649  0.00  0.00    +0.337 A 
ATOM      8  N   UNL     1       5.629   0.286  26.808  0.00  0.00    -0.257 N 
ATOM      9  O   UNL     1       6.032  -1.909  27.209  0.00  0.00    -0.246 OA
ATOM     10  C   UNL     1       9.188   0.556  24.616  0.00  0.00    +0.039 A 
ATOM     11  C   UNL     1      10.322  -0.428  24.464  0.00  0.00    +0.051 C 
ATOM     12  C   UNL     1       6.021   1.555  26.427  0.00  0.00    +0.268 A 
ATOM     13  O   UNL     1       5.429   2.549  26.854  0.00  0.00    -0.267 OA
ATOM     14  C   UNL     1       9.553   1.877  24.016  0.00  0.00    +0.257 A 
ATOM     15  O   UNL     1      10.484   1.952  23.216  0.00  0.00    -0.267 OA
ENDROOT
BRANCH   6  16
ATOM     16  C   UNL     1       8.015  -2.111  25.435  0.00  0.00    +0.053 A 
ATOM     17  C   UNL     1       8.651  -2.925  26.388  0.00  0.00    +0.026 A 
ATOM     18  C   UNL     1       8.814  -4.291  26.168  0.00  0.00    +0.004 A 
ATOM     19  C   UNL     1       8.371  -4.855  24.973  0.00  0.00    +0.023 A 
ATOM     20  C   UNL     1       7.828  -4.050  23.962  0.00  0.00    +0.035 A 
ATOM     21  C   UNL     1       7.658  -2.675  24.196  0.00  0.00    +0.049 A 
BRANCH  20  22
ATOM     22  N   UNL     1       7.441  -4.706  22.775  0.00  0.00    -0.286 N 
ATOM     23  H   UNL     1       8.207  -5.062  22.197  0.00  0.00    +0.155 HD
ATOM     24  C   UNL     1       6.169  -4.882  22.285  0.00  0.00    +0.214 C 
ATOM     25  O   UNL     1       5.128  -4.513  22.816  0.00  0.00    -0.276 OA
ATOM     26  C   UNL     1       6.134  -5.638  20.976  0.00  0.00    +0.109 C 
ENDBRANCH  20  22
ENDBRANCH   6  16
BRANCH   8  27
ATOM     27  C   UNL     1       4.444   0.202  27.660  0.00  0.00    +0.095 C 
ATOM     28  C   UNL     1       3.327  -0.800  27.474  0.00  0.00    +0.027 C 
ATOM     29  C   UNL     1       3.094   0.637  27.135  0.00  0.00    +0.027 C 
ENDBRANCH   8  27
BRANCH   3  30
ATOM     30  N   UNL     1       6.966   4.065  25.456  0.00  0.00    -0.298 N 
ATOM     31  H   UNL     1       7.212   4.504  26.340  0.00  0.00    +0.154 HD
BRANCH  30  32
ATOM     32  C   UNL     1       6.058   4.803  24.669  0.00  0.00    +0.068 A 
ATOM     33  C   UNL     1       5.617   4.274  23.441  0.00  0.00    +0.145 A 
ATOM     34  F   UNL     1       6.114   3.102  23.013  0.00  0.00    -0.204 F 
ATOM     35  C   UNL     1       4.659   4.913  22.652  0.00  0.00    +0.054 A 
ATOM     36  C   UNL     1       4.120   6.115  23.094  0.00  0.00    +0.016 A 
ATOM     37  I   UNL     1       2.583   7.017  22.025  0.00  0.00    -0.044 I 
ATOM     38  C   UNL     1       4.586   6.701  24.273  0.00  0.00    +0.016 A 
ATOM     39  C   UNL     1       5.557   6.051  25.050  0.00  0.00    +0.027 A 
ENDBRANCH  30  32
ENDBRANCH   3  30
TORSDOF 5
ENDMDL
MODEL 7
REMARK VINA RESULT:      -6.3      1.908      2.584
REMARK  Name = 
REMARK  8 active torsions:
REMARK  status: ('A' for Active; 'I' for Inactive)
REMARK    1  A    between atoms: C_1  and  N_2
REMARK    2  A    between atoms: C_5  and  C_6
REMARK    3  A    between atoms: N_8  and  C_28
REMARK    4  A    between atoms: N_11  and  C_12
REMARK    5  A    between atoms: C_18  and  N_19
REMARK    6  A    between atoms: N_19  and  C_20
REMARK    7  A    between atoms: C_30  and  N_31
REMARK    8  A    between atoms: C_32  and  C_33
REMARK                            x       y       z     vdW  Elec       q    Type
REMARK                         _______ _______ _______ _____ _____    ______ ____
ROOT
ATOM      1  C   UNL     1       7.233  -4.653  22.982  0.00  0.00    +0.154 C 
ATOM      2  N   UNL     1       7.191  -3.331  23.598  0.00  0.00    -0.299 N 
ATOM      3  C   UNL     1       6.352  -3.069  24.680  0.00  0.00    +0.120 A 
ATOM      4  C   UNL     1       6.238  -1.771  25.094  0.00  0.00    +0.102 A 
ATOM      5  C   UNL     1       6.972  -0.662  24.454  0.00  0.00    +0.075 A 
ATOM      6  N   UNL     1       6.706   0.650  24.907  0.00  0.00    -0.261 N 
ATOM      7  C   UNL     1       5.747   0.936  25.910  0.00  0.00    +0.337 A 
ATOM      8  N   UNL     1       5.153  -0.135  26.563  0.00  0.00    -0.257 N 
ATOM      9  O   UNL     1       5.439   2.090  26.236  0.00  0.00    -0.246 OA
ATOM     10  C   UNL     1       7.762  -0.956  23.391  0.00  0.00    +0.039 A 
ATOM     11  C   UNL     1       8.368  -0.037  22.359  0.00  0.00    +0.051 C 
ATOM     12  C   UNL     1       5.234  -1.455  26.161  0.00  0.00    +0.268 A 
ATOM     13  O   UNL     1       4.459  -2.298  26.616  0.00  0.00    -0.267 OA
ATOM     14  C   UNL     1       8.033  -2.386  23.048  0.00  0.00    +0.257 A 
ATOM     15  O   UNL     1       8.929  -2.668  22.254  0.00  0.00    -0.267 OA
ENDROOT
BRANCH   6  16
ATOM     16  C   UNL     1       7.513   1.817  24.578  0.00  0.00    +0.053 A 
ATOM     17  C   UNL     1       8.883   1.823  24.887  0.00  0.00    +0.026 A 
ATOM     18  C   UNL     1       9.744   2.747  24.300  0.00  0.00    +0.004 A 
ATOM     19  C   UNL     1       9.238   3.701  23.420  0.00  0.00    +0.023 A 
ATOM     20  C   UNL     1       7.861   3.785  23.173  0.00  0.00    +0.035 A 
ATOM     21  C   UNL     1       7.000   2.844  23.762  0.00  0.00    +0.049 A 
BRANCH  20  22
ATOM     22  N   UNL     1       7.438   4.806  22.296  0.00  0.00    -0.286 N 
ATOM     23  H   UNL     1       7.376   4.543  21.309  0.00  0.00    +0.155 HD
ATOM     24  C   UNL     1       7.144   6.113  22.604  0.00  0.00    +0.214 C 
ATOM     25  O   UNL     1       7.177   6.622  23.718  0.00  0.00    -0.276 OA
ATOM     26  C   UNL     1       6.719   6.927  21.402  0.00  0.00    +0.109 C 
ENDBRANCH  20  22
ENDBRANCH   6  16
BRANCH   8  27
ATOM     27  C   UNL     1       4.166   0.167  27.600  0.00  0.00    +0.095 C 
ATOM     28  C   UNL     1       4.401   1.116  28.752  0.00  0.00    +0.027 C 
ATOM     29  C   UNL     1       4.353  -0.355  29.007  0.00  0.00    +0.027 C 
ENDBRANCH   8  27
BRANCH   3  30
ATOM     30  N   UNL     1       5.632  -4.122  25.233  0.00  0.00    -0.298 N 
ATOM     31  H   UNL     1       5.762  -4.267  26.232  0.00  0.00    +0.154 HD
BRANCH  30  32
ATOM     32  C   UNL     1       4.660  -4.956  24.642  0.00  0.00    +0.068 A 
ATOM     33  C   UNL     1       4.601  -6.315  25.005  0.00  0.00    +0.145 A 
ATOM     34  F   UNL     1       5.510  -6.806  25.863  0.00  0.00    -0.204 F 
ATOM     35  C   UNL     1       3.615  -7.176  24.521  0.00  0.00    +0.054 A 
ATOM     36  C   UNL     1       2.656  -6.675  23.650  0.00  0.00    +0.016 A 
ATOM     37  I   UNL     1       1.085  -7.886  23.030  0.00  0.00    -0.044 I 
ATOM     38  C   UNL     1       2.726  -5.349  23.217  0.00  0.00    +0.016 A 
ATOM     39  C   UNL     1       3.730  -4.498  23.704  0.00  0.00    +0.027 A 
ENDBRANCH  30  32
ENDBRANCH   3  30
TORSDOF 5
ENDMDL
MODEL 8
REMARK VINA RESULT:      -6.2      2.165      4.660
REMARK  Name = 
REMARK  8 active torsions:
REMARK  status: ('A' for Active; 'I' for Inactive)
REMARK    1  A    between atoms: C_1  and  N_2
REMARK    2  A    between atoms: C_5  and  C_6
REMARK    3  A    between atoms: N_8  and  C_28
REMARK    4  A    between atoms: N_11  and  C_12
REMARK    5  A    between atoms: C_18  and  N_19
REMARK    6  A    between atoms: N_19  and  C_20
REMARK    7  A    between atoms: C_30  and  N_31
REMARK    8  A    between atoms: C_32  and  C_33
REMARK                            x       y       z     vdW  Elec       q    Type
REMARK                         _______ _______ _______ _____ _____    ______ ____
ROOT
ATOM      1  C   UNL     1       4.483  -2.436  28.030  0.00  0.00    +0.154 C 
ATOM      2  N   UNL     1       5.115  -1.450  27.159  0.00  0.00    -0.299 N 
ATOM      3  C   UNL     1       6.018  -1.839  26.170  0.00  0.00    +0.120 A 
ATOM      4  C   UNL     1       6.697  -0.853  25.510  0.00  0.00    +0.102 A 
ATOM      5  C   UNL     1       6.498   0.582  25.795  0.00  0.00    +0.075 A 
ATOM      6  N   UNL     1       7.321   1.508  25.114  0.00  0.00    -0.261 N 
ATOM      7  C   UNL     1       8.340   1.110  24.214  0.00  0.00    +0.337 A 
ATOM      8  N   UNL     1       8.430  -0.236  23.888  0.00  0.00    -0.257 N 
ATOM      9  O   UNL     1       9.128   1.912  23.695  0.00  0.00    -0.246 OA
ATOM     10  C   UNL     1       5.625   0.917  26.778  0.00  0.00    +0.039 A 
ATOM     11  C   UNL     1       5.447   2.230  27.500  0.00  0.00    +0.051 C 
ATOM     12  C   UNL     1       7.771  -1.257  24.547  0.00  0.00    +0.268 A 
ATOM     13  O   UNL     1       8.117  -2.430  24.391  0.00  0.00    -0.267 OA
ATOM     14  C   UNL     1       4.749  -0.137  27.377  0.00  0.00    +0.257 A 
ATOM     15  O   UNL     1       3.795   0.185  28.083  0.00  0.00    -0.267 OA
ENDROOT
BRANCH   6  16
ATOM     16  C   UNL     1       7.091   2.945  25.075  0.00  0.00    +0.053 A 
ATOM     17  C   UNL     1       7.944   3.804  25.790  0.00  0.00    +0.026 A 
ATOM     18  C   UNL     1       7.975   5.169  25.517  0.00  0.00    +0.004 A 
ATOM     19  C   UNL     1       7.129   5.700  24.546  0.00  0.00    +0.023 A 
ATOM     20  C   UNL     1       6.196   4.885  23.890  0.00  0.00    +0.035 A 
ATOM     21  C   UNL     1       6.175   3.507  24.165  0.00  0.00    +0.049 A 
BRANCH  20  22
ATOM     22  N   UNL     1       5.357   5.517  22.950  0.00  0.00    -0.286 N 
ATOM     23  H   UNL     1       5.674   5.480  21.978  0.00  0.00    +0.155 HD
ATOM     24  C   UNL     1       4.193   6.210  23.189  0.00  0.00    +0.214 C 
ATOM     25  O   UNL     1       3.662   6.382  24.280  0.00  0.00    -0.276 OA
ATOM     26  C   UNL     1       3.555   6.755  21.932  0.00  0.00    +0.109 C 
ENDBRANCH  20  22
ENDBRANCH   6  16
BRANCH   8  27
ATOM     27  C   UNL     1       9.481  -0.639  22.955  0.00  0.00    +0.095 C 
ATOM     28  C   UNL     1       9.774   0.058  21.646  0.00  0.00    +0.027 C 
ATOM     29  C   UNL     1       9.124  -1.288  21.637  0.00  0.00    +0.027 C 
ENDBRANCH   8  27
BRANCH   3  30
ATOM     30  N   UNL     1       6.226  -3.196  25.956  0.00  0.00    -0.298 N 
ATOM     31  H   UNL     1       7.102  -3.569  26.314  0.00  0.00    +0.154 HD
BRANCH  30  32
ATOM     32  C   UNL     1       5.357  -4.165  25.412  0.00  0.00    +0.068 A 
ATOM     33  C   UNL     1       5.571  -5.526  25.701  0.00  0.00    +0.145 A 
ATOM     34  F   UNL     1       6.633  -5.883  26.442  0.00  0.00    -0.204 F 
ATOM     35  C   UNL     1       4.704  -6.528  25.263  0.00  0.00    +0.054 A 
ATOM     36  C   UNL     1       3.589  -6.171  24.515  0.00  0.00    +0.016 A 
ATOM     37  I   UNL     1       2.195  -7.615  23.977  0.00  0.00    -0.044 I 
ATOM     38  C   UNL     1       3.385  -4.838  24.153  0.00  0.00    +0.016 A 
ATOM     39  C   UNL     1       4.272  -3.842  24.592  0.00  0.00    +0.027 A 
ENDBRANCH  30  32
ENDBRANCH   3  30
TORSDOF 5
ENDMDL
MODEL 9
REMARK VINA RESULT:      -6.0      2.393      3.237
REMARK  Name = 
REMARK  8 active torsions:
REMARK  status: ('A' for Active; 'I' for Inactive)
REMARK    1  A    between atoms: C_1  and  N_2
REMARK    2  A    between atoms: C_5  and  C_6
REMARK    3  A    between atoms: N_8  and  C_28
REMARK    4  A    between atoms: N_11  and  C_12
REMARK    5  A    between atoms: C_18  and  N_19
REMARK    6  A    between atoms: N_19  and  C_20
REMARK    7  A    between atoms: C_30  and  N_31
REMARK    8  A    between atoms: C_32  and  C_33
REMARK                            x       y       z     vdW  Elec       q    Type
REMARK                         _______ _______ _______ _____ _____    ______ ____
ROOT
ATOM      1  C   UNL     1       5.067  -4.647  22.559  0.00  0.00    +0.154 C 
ATOM      2  N   UNL     1       5.597  -3.548  23.360  0.00  0.00    -0.299 N 
ATOM      3  C   UNL     1       4.875  -3.029  24.434  0.00  0.00    +0.120 A 
ATOM      4  C   UNL     1       5.352  -1.894  25.029  0.00  0.00    +0.102 A 
ATOM      5  C   UNL     1       6.590  -1.223  24.588  0.00  0.00    +0.075 A 
ATOM      6  N   UNL     1       6.938  -0.005  25.217  0.00  0.00    -0.261 N 
ATOM      7  C   UNL     1       6.131   0.602  26.211  0.00  0.00    +0.337 A 
ATOM      8  N   UNL     1       5.032  -0.106  26.676  0.00  0.00    -0.257 N 
ATOM      9  O   UNL     1       6.380   1.716  26.690  0.00  0.00    -0.246 OA
ATOM     10  C   UNL     1       7.253  -1.748  23.527  0.00  0.00    +0.039 A 
ATOM     11  C   UNL     1       8.331  -1.137  22.666  0.00  0.00    +0.051 C 
ATOM     12  C   UNL     1       4.515  -1.245  26.088  0.00  0.00    +0.268 A 
ATOM     13  O   UNL     1       3.387  -1.646  26.382  0.00  0.00    -0.267 OA
ATOM     14  C   UNL     1       6.842  -3.082  22.989  0.00  0.00    +0.257 A 
ATOM     15  O   UNL     1       7.573  -3.678  22.200  0.00  0.00    -0.267 OA
ENDROOT
BRANCH   6  16
ATOM     16  C   UNL     1       8.235   0.647  25.096  0.00  0.00    +0.053 A 
ATOM     17  C   UNL     1       9.408  -0.098  25.303  0.00  0.00    +0.026 A 
ATOM     18  C   UNL     1      10.644   0.382  24.874  0.00  0.00    +0.004 A 
ATOM     19  C   UNL     1      10.725   1.630  24.260  0.00  0.00    +0.023 A 
ATOM     20  C   UNL     1       9.588   2.439  24.134  0.00  0.00    +0.035 A 
ATOM     21  C   UNL     1       8.343   1.945  24.561  0.00  0.00    +0.049 A 
BRANCH  20  22
ATOM     22  N   UNL     1       9.775   3.701  23.533  0.00  0.00    -0.286 N 
ATOM     23  H   UNL     1      10.148   3.686  22.580  0.00  0.00    +0.155 HD
ATOM     24  C   UNL     1       9.557   4.940  24.088  0.00  0.00    +0.214 C 
ATOM     25  O   UNL     1       9.134   5.166  25.216  0.00  0.00    -0.276 OA
ATOM     26  C   UNL     1       9.866   6.079  23.143  0.00  0.00    +0.109 C 
ENDBRANCH  20  22
ENDBRANCH   6  16
BRANCH   8  27
ATOM     27  C   UNL     1       4.205   0.525  27.704  0.00  0.00    +0.095 C 
ATOM     28  C   UNL     1       4.750   1.200  28.942  0.00  0.00    +0.027 C 
ATOM     29  C   UNL     1       4.057  -0.118  29.065  0.00  0.00    +0.027 C 
ENDBRANCH   8  27
BRANCH   3  30
ATOM     30  N   UNL     1       3.685  -3.648  24.797  0.00  0.00    -0.298 N 
ATOM     31  H   UNL     1       2.905  -3.513  24.158  0.00  0.00    +0.154 HD
BRANCH  30  32
ATOM     32  C   UNL     1       3.420  -4.532  25.864  0.00  0.00    +0.068 A 
ATOM     33  C   UNL     1       4.483  -5.238  26.458  0.00  0.00    +0.145 A 
ATOM     34  F   UNL     1       5.723  -5.103  25.959  0.00  0.00    -0.204 F 
ATOM     35  C   UNL     1       4.304  -6.065  27.568  0.00  0.00    +0.054 A 
ATOM     36  C   UNL     1       3.030  -6.196  28.108  0.00  0.00    +0.016 A 
ATOM     37  I   UNL     1       2.750  -7.294  29.850  0.00  0.00    -0.044 I 
ATOM     38  C   UNL     1       1.943  -5.563  27.501  0.00  0.00    +0.016 A 
ATOM     39  C   UNL     1       2.138  -4.744  26.379  0.00  0.00    +0.027 A 
ENDBRANCH  30  32
ENDBRANCH   3  30
TORSDOF 5
ENDMDL
