MODEL 1
REMARK VINA RESULT:      -6.3      0.000      0.000
REMARK  Name = 
REMARK  13 active torsions:
REMARK  status: ('A' for Active; 'I' for Inactive)
REMARK    1  A    between atoms: C_2  and  C_3
REMARK    2  A    between atoms: C_2  and  N_9
REMARK    3  A    between atoms: C_2  and  C_27
REMARK    4  A    between atoms: C_3  and  C_4
REMARK    5  A    between atoms: C_5  and  C_6
REMARK    6  A    between atoms: C_6  and  O_7
REMARK    7  A    between atoms: O_7  and  C_8
REMARK    8  A    between atoms: N_9  and  S_10
REMARK    9  A    between atoms: S_10  and  C_13
REMARK   10  A    between atoms: C_16  and  C_19
REMARK   11  A    between atoms: C_22  and  O_23
REMARK   12  A    between atoms: O_23  and  C_24
REMARK   13  A    between atoms: C_27  and  O_28
REMARK                            x       y       z     vdW  Elec       q    Type
REMARK                         _______ _______ _______ _____ _____    ______ ____
ROOT
ATOM      1  S   UNL     1       4.394  -6.224  25.153  0.00  0.00    +0.059 S 
ATOM      2  O   UNL     1       3.309  -5.648  25.915  0.00  0.00    -0.153 OA
ATOM      3  O   UNL     1       4.206  -7.319  24.229  0.00  0.00    -0.153 OA
ENDROOT
BRANCH   1   4
ATOM      4  C   UNL     1       5.195  -4.900  24.298  0.00  0.00    +0.105 A 
ATOM      5  C   UNL     1       4.740  -3.594  24.491  0.00  0.00    +0.029 A 
ATOM      6  C   UNL     1       5.441  -2.531  23.926  0.00  0.00    +0.010 A 
ATOM      7  C   UNL     1       6.600  -2.747  23.160  0.00  0.00    -0.018 A 
ATOM      8  C   UNL     1       6.968  -4.086  22.901  0.00  0.00    +0.010 A 
ATOM      9  C   UNL     1       6.272  -5.159  23.460  0.00  0.00    +0.029 A 
BRANCH   7  10
ATOM     10  C   UNL     1       7.457  -1.625  22.717  0.00  0.00    -0.018 A 
ATOM     11  C   UNL     1       7.097  -0.289  22.980  0.00  0.00    +0.012 A 
ATOM     12  C   UNL     1       7.954   0.779  22.686  0.00  0.00    +0.046 A 
ATOM     13  C   UNL     1       9.203   0.533  22.127  0.00  0.00    +0.120 A 
ATOM     14  C   UNL     1       9.574  -0.779  21.840  0.00  0.00    +0.046 A 
ATOM     15  C   UNL     1       8.704  -1.840  22.110  0.00  0.00    +0.012 A 
BRANCH  13  16
ATOM     16  O   UNL     1      10.162   1.475  21.888  0.00  0.00    -0.495 OA
ATOM     17  C   UNL     1      10.316   2.476  22.887  0.00  0.00    +0.277 C 
ENDBRANCH  13  16
ENDBRANCH   7  10
ENDBRANCH   1   4
BRANCH   1  18
ATOM     18  N   UNL     1       5.601  -6.695  26.228  0.00  0.00    -0.175 NA
ATOM     19  H   UNL     1       5.430  -7.631  26.604  0.00  0.00    +0.149 HD
BRANCH  18  20
ATOM     20  C   UNL     1       6.106  -5.681  27.188  0.00  0.00    +0.196 C 
BRANCH  20  21
ATOM     21  C   UNL     1       5.976  -6.225  28.612  0.00  0.00    +0.324 C 
ATOM     22  O   UNL     1       6.210  -5.557  29.612  0.00  0.00    -0.249 OA
BRANCH  21  23
ATOM     23  O   UNL     1       5.558  -7.509  28.693  0.00  0.00    -0.479 OA
ATOM     24  H   UNL     1       5.606  -7.889  29.591  0.00  0.00    +0.295 HD
ENDBRANCH  21  23
ENDBRANCH  20  21
BRANCH  20  25
ATOM     25  C   UNL     1       7.598  -5.382  26.963  0.00  0.00    +0.120 C 
BRANCH  25  26
ATOM     26  C   UNL     1       7.893  -3.962  26.692  0.00  0.00    -0.098 C 
ATOM     27  C   UNL     1       8.245  -2.728  26.456  0.00  0.00    -0.074 C 
BRANCH  27  28
ATOM     28  C   UNL     1       8.655  -1.291  26.179  0.00  0.00    +0.247 C 
BRANCH  28  29
ATOM     29  O   UNL     1       7.976  -0.426  27.081  0.00  0.00    -0.371 OA
ATOM     30  C   UNL     1       6.603  -0.303  26.737  0.00  0.00    +0.195 C 
ENDBRANCH  28  29
ENDBRANCH  27  28
ENDBRANCH  25  26
ENDBRANCH  20  25
ENDBRANCH  18  20
ENDBRANCH   1  18
TORSDOF 11
ENDMDL
MODEL 2
REMARK VINA RESULT:      -6.2      2.894      5.017
REMARK  Name = 
REMARK  13 active torsions:
REMARK  status: ('A' for Active; 'I' for Inactive)
REMARK    1  A    between atoms: C_2  and  C_3
REMARK    2  A    between atoms: C_2  and  N_9
REMARK    3  A    between atoms: C_2  and  C_27
REMARK    4  A    between atoms: C_3  and  C_4
REMARK    5  A    between atoms: C_5  and  C_6
REMARK    6  A    between atoms: C_6  and  O_7
REMARK    7  A    between atoms: O_7  and  C_8
REMARK    8  A    between atoms: N_9  and  S_10
REMARK    9  A    between atoms: S_10  and  C_13
REMARK   10  A    between atoms: C_16  and  C_19
REMARK   11  A    between atoms: C_22  and  O_23
REMARK   12  A    between atoms: O_23  and  C_24
REMARK   13  A    between atoms: C_27  and  O_28
REMARK                            x       y       z     vdW  Elec       q    Type
REMARK                         _______ _______ _______ _____ _____    ______ ____
ROOT
ATOM      1  S   UNL     1       8.523  -4.805  25.287  0.00  0.00    +0.059 S 
ATOM      2  O   UNL     1       9.487  -5.522  24.483  0.00  0.00    -0.153 OA
ATOM      3  O   UNL     1       8.233  -5.155  26.658  0.00  0.00    -0.153 OA
ENDROOT
BRANCH   1   4
ATOM      4  C   UNL     1       8.959  -3.092  25.225  0.00  0.00    +0.105 A 
ATOM      5  C   UNL     1       9.798  -2.643  24.203  0.00  0.00    +0.029 A 
ATOM      6  C   UNL     1      10.046  -1.278  24.068  0.00  0.00    +0.010 A 
ATOM      7  C   UNL     1       9.468  -0.342  24.944  0.00  0.00    -0.018 A 
ATOM      8  C   UNL     1       8.711  -0.844  26.024  0.00  0.00    +0.010 A 
ATOM      9  C   UNL     1       8.458  -2.208  26.172  0.00  0.00    +0.029 A 
BRANCH   7  10
ATOM     10  C   UNL     1       9.567   1.114  24.697  0.00  0.00    -0.018 A 
ATOM     11  C   UNL     1      10.540   1.637  23.823  0.00  0.00    +0.012 A 
ATOM     12  C   UNL     1      10.567   2.994  23.476  0.00  0.00    +0.046 A 
ATOM     13  C   UNL     1       9.611   3.862  23.991  0.00  0.00    +0.120 A 
ATOM     14  C   UNL     1       8.651   3.371  24.872  0.00  0.00    +0.046 A 
ATOM     15  C   UNL     1       8.643   2.021  25.238  0.00  0.00    +0.012 A 
BRANCH  13  16
ATOM     16  O   UNL     1       9.473   5.178  23.652  0.00  0.00    -0.495 OA
ATOM     17  C   UNL     1      10.637   5.983  23.793  0.00  0.00    +0.277 C 
ENDBRANCH  13  16
ENDBRANCH   7  10
ENDBRANCH   1   4
BRANCH   1  18
ATOM     18  N   UNL     1       7.053  -4.796  24.464  0.00  0.00    -0.175 NA
ATOM     19  H   UNL     1       6.628  -5.726  24.437  0.00  0.00    +0.149 HD
BRANCH  18  20
ATOM     20  C   UNL     1       6.963  -3.994  23.218  0.00  0.00    +0.196 C 
BRANCH  20  21
ATOM     21  C   UNL     1       6.548  -4.904  22.060  0.00  0.00    +0.324 C 
ATOM     22  O   UNL     1       5.707  -4.590  21.227  0.00  0.00    -0.249 OA
BRANCH  21  23
ATOM     23  O   UNL     1       7.200  -6.087  22.008  0.00  0.00    -0.479 OA
ATOM     24  H   UNL     1       7.969  -6.146  22.607  0.00  0.00    +0.295 HD
ENDBRANCH  21  23
ENDBRANCH  20  21
BRANCH  20  25
ATOM     25  C   UNL     1       5.888  -2.898  23.327  0.00  0.00    +0.120 C 
BRANCH  25  26
ATOM     26  C   UNL     1       6.376  -1.542  23.009  0.00  0.00    -0.098 C 
ATOM     27  C   UNL     1       6.749  -0.343  22.655  0.00  0.00    -0.074 C 
BRANCH  27  28
ATOM     28  C   UNL     1       7.182   1.054  22.242  0.00  0.00    +0.247 C 
BRANCH  28  29
ATOM     29  O   UNL     1       6.137   1.975  22.531  0.00  0.00    -0.371 OA
ATOM     30  C   UNL     1       6.470   3.283  22.087  0.00  0.00    +0.195 C 
ENDBRANCH  28  29
ENDBRANCH  27  28
ENDBRANCH  25  26
ENDBRANCH  20  25
ENDBRANCH  18  20
ENDBRANCH   1  18
TORSDOF 11
ENDMDL
MODEL 3
REMARK VINA RESULT:      -6.2      1.874      2.955
REMARK  Name = 
REMARK  13 active torsions:
REMARK  status: ('A' for Active; 'I' for Inactive)
REMARK    1  A    between atoms: C_2  and  C_3
REMARK    2  A    between atoms: C_2  and  N_9
REMARK    3  A    between atoms: C_2  and  C_27
REMARK    4  A    between atoms: C_3  and  C_4
REMARK    5  A    between atoms: C_5  and  C_6
REMARK    6  A    between atoms: C_6  and  O_7
REMARK    7  A    between atoms: O_7  and  C_8
REMARK    8  A    between atoms: N_9  and  S_10
REMARK    9  A    between atoms: S_10  and  C_13
REMARK   10  A    between atoms: C_16  and  C_19
REMARK   11  A    between atoms: C_22  and  O_23
REMARK   12  A    between atoms: O_23  and  C_24
REMARK   13  A    between atoms: C_27  and  O_28
REMARK                            x       y       z     vdW  Elec       q    Type
REMARK                         _______ _______ _______ _____ _____    ______ ____
ROOT
ATOM      1  S   UNL     1       5.992  -4.909  22.216  0.00  0.00    +0.059 S 
ATOM      2  O   UNL     1       4.571  -4.647  22.220  0.00  0.00    -0.153 OA
ATOM      3  O   UNL     1       6.678  -5.489  21.085  0.00  0.00    -0.153 OA
ENDROOT
BRANCH   1   4
ATOM      4  C   UNL     1       6.804  -3.399  22.651  0.00  0.00    +0.105 A 
ATOM      5  C   UNL     1       8.199  -3.355  22.651  0.00  0.00    +0.029 A 
ATOM      6  C   UNL     1       8.849  -2.141  22.866  0.00  0.00    +0.010 A 
ATOM      7  C   UNL     1       8.125  -0.956  23.086  0.00  0.00    -0.018 A 
ATOM      8  C   UNL     1       6.720  -1.060  23.182  0.00  0.00    +0.010 A 
ATOM      9  C   UNL     1       6.059  -2.271  22.971  0.00  0.00    +0.029 A 
BRANCH   7  10
ATOM     10  C   UNL     1       8.793   0.365  23.124  0.00  0.00    -0.018 A 
ATOM     11  C   UNL     1       8.789   1.146  24.295  0.00  0.00    +0.012 A 
ATOM     12  C   UNL     1       9.523   2.335  24.392  0.00  0.00    +0.046 A 
ATOM     13  C   UNL     1      10.290   2.768  23.316  0.00  0.00    +0.120 A 
ATOM     14  C   UNL     1      10.294   2.021  22.140  0.00  0.00    +0.046 A 
ATOM     15  C   UNL     1       9.538   0.849  22.038  0.00  0.00    +0.012 A 
BRANCH  13  16
ATOM     16  O   UNL     1      11.122   3.850  23.321  0.00  0.00    -0.495 OA
ATOM     17  C   UNL     1      10.552   5.072  23.772  0.00  0.00    +0.277 C 
ENDBRANCH  13  16
ENDBRANCH   7  10
ENDBRANCH   1   4
BRANCH   1  18
ATOM     18  N   UNL     1       6.355  -5.869  23.551  0.00  0.00    -0.175 NA
ATOM     19  H   UNL     1       6.477  -6.851  23.290  0.00  0.00    +0.149 HD
BRANCH  18  20
ATOM     20  C   UNL     1       5.614  -5.610  24.811  0.00  0.00    +0.196 C 
BRANCH  20  21
ATOM     21  C   UNL     1       4.702  -6.801  25.116  0.00  0.00    +0.324 C 
ATOM     22  O   UNL     1       4.390  -7.135  26.252  0.00  0.00    -0.249 OA
BRANCH  21  23
ATOM     23  O   UNL     1       4.243  -7.455  24.026  0.00  0.00    -0.479 OA
ATOM     24  H   UNL     1       3.609  -6.941  23.489  0.00  0.00    +0.295 HD
ENDBRANCH  21  23
ENDBRANCH  20  21
BRANCH  20  25
ATOM     25  C   UNL     1       6.568  -5.465  26.009  0.00  0.00    +0.120 C 
BRANCH  25  26
ATOM     26  C   UNL     1       7.109  -4.104  26.187  0.00  0.00    -0.098 C 
ATOM     27  C   UNL     1       7.563  -2.906  26.434  0.00  0.00    -0.074 C 
BRANCH  27  28
ATOM     28  C   UNL     1       8.092  -1.511  26.723  0.00  0.00    +0.247 C 
BRANCH  28  29
ATOM     29  O   UNL     1       7.004  -0.598  26.785  0.00  0.00    -0.371 OA
ATOM     30  C   UNL     1       7.260   0.442  27.719  0.00  0.00    +0.195 C 
ENDBRANCH  28  29
ENDBRANCH  27  28
ENDBRANCH  25  26
ENDBRANCH  20  25
ENDBRANCH  18  20
ENDBRANCH   1  18
TORSDOF 11
ENDMDL
MODEL 4
REMARK VINA RESULT:      -6.1      2.924      4.730
REMARK  Name = 
REMARK  13 active torsions:
REMARK  status: ('A' for Active; 'I' for Inactive)
REMARK    1  A    between atoms: C_2  and  C_3
REMARK    2  A    between atoms: C_2  and  N_9
REMARK    3  A    between atoms: C_2  and  C_27
REMARK    4  A    between atoms: C_3  and  C_4
REMARK    5  A    between atoms: C_5  and  C_6
REMARK    6  A    between atoms: C_6  and  O_7
REMARK    7  A    between atoms: O_7  and  C_8
REMARK    8  A    between atoms: N_9  and  S_10
REMARK    9  A    between atoms: S_10  and  C_13
REMARK   10  A    between atoms: C_16  and  C_19
REMARK   11  A    between atoms: C_22  and  O_23
REMARK   12  A    between atoms: O_23  and  C_24
REMARK   13  A    between atoms: C_27  and  O_28
REMARK                            x       y       z     vdW  Elec       q    Type
REMARK                         _______ _______ _______ _____ _____    ______ ____
ROOT
ATOM      1  S   UNL     1       8.377  -4.829  25.211  0.00  0.00    +0.059 S 
ATOM      2  O   UNL     1       9.323  -5.573  24.411  0.00  0.00    -0.153 OA
ATOM      3  O   UNL     1       8.078  -5.165  26.584  0.00  0.00    -0.153 OA
ENDROOT
BRANCH   1   4
ATOM      4  C   UNL     1       8.855  -3.128  25.140  0.00  0.00    +0.105 A 
ATOM      5  C   UNL     1       9.628  -2.685  24.065  0.00  0.00    +0.029 A 
ATOM      6  C   UNL     1       9.903  -1.325  23.930  0.00  0.00    +0.010 A 
ATOM      7  C   UNL     1       9.418  -0.388  24.860  0.00  0.00    -0.018 A 
ATOM      8  C   UNL     1       8.730  -0.886  25.987  0.00  0.00    +0.010 A 
ATOM      9  C   UNL     1       8.450  -2.246  26.134  0.00  0.00    +0.029 A 
BRANCH   7  10
ATOM     10  C   UNL     1       9.539   1.069  24.626  0.00  0.00    -0.018 A 
ATOM     11  C   UNL     1      10.593   1.595  23.854  0.00  0.00    +0.012 A 
ATOM     12  C   UNL     1      10.652   2.952  23.513  0.00  0.00    +0.046 A 
ATOM     13  C   UNL     1       9.649   3.818  23.932  0.00  0.00    +0.120 A 
ATOM     14  C   UNL     1       8.607   3.324  24.714  0.00  0.00    +0.046 A 
ATOM     15  C   UNL     1       8.565   1.974  25.075  0.00  0.00    +0.012 A 
BRANCH  13  16
ATOM     16  O   UNL     1       9.543   5.134  23.584  0.00  0.00    -0.495 OA
ATOM     17  C   UNL     1      10.660   5.955  23.902  0.00  0.00    +0.277 C 
ENDBRANCH  13  16
ENDBRANCH   7  10
ENDBRANCH   1   4
BRANCH   1  18
ATOM     18  N   UNL     1       6.909  -4.788  24.388  0.00  0.00    -0.175 NA
ATOM     19  H   UNL     1       6.380  -5.655  24.512  0.00  0.00    +0.149 HD
BRANCH  18  20
ATOM     20  C   UNL     1       6.895  -4.199  23.025  0.00  0.00    +0.196 C 
BRANCH  20  21
ATOM     21  C   UNL     1       6.701  -5.312  21.994  0.00  0.00    +0.324 C 
ATOM     22  O   UNL     1       5.827  -5.290  21.136  0.00  0.00    -0.249 OA
BRANCH  21  23
ATOM     23  O   UNL     1       7.588  -6.329  22.084  0.00  0.00    -0.479 OA
ATOM     24  H   UNL     1       7.181  -7.216  22.073  0.00  0.00    +0.295 HD
ENDBRANCH  21  23
ENDBRANCH  20  21
BRANCH  20  25
ATOM     25  C   UNL     1       5.724  -3.219  22.844  0.00  0.00    +0.120 C 
BRANCH  25  26
ATOM     26  C   UNL     1       5.364  -2.477  24.068  0.00  0.00    -0.098 C 
ATOM     27  C   UNL     1       5.088  -1.889  25.199  0.00  0.00    -0.074 C 
BRANCH  27  28
ATOM     28  C   UNL     1       4.767  -1.204  26.518  0.00  0.00    +0.247 C 
BRANCH  28  29
ATOM     29  O   UNL     1       4.127   0.039  26.259  0.00  0.00    -0.371 OA
ATOM     30  C   UNL     1       5.075   1.047  25.937  0.00  0.00    +0.195 C 
ENDBRANCH  28  29
ENDBRANCH  27  28
ENDBRANCH  25  26
ENDBRANCH  20  25
ENDBRANCH  18  20
ENDBRANCH   1  18
TORSDOF 11
ENDMDL
MODEL 5
REMARK VINA RESULT:      -6.0      2.130      3.077
REMARK  Name = 
REMARK  13 active torsions:
REMARK  status: ('A' for Active; 'I' for Inactive)
REMARK    1  A    between atoms: C_2  and  C_3
REMARK    2  A    between atoms: C_2  and  N_9
REMARK    3  A    between atoms: C_2  and  C_27
REMARK    4  A    between atoms: C_3  and  C_4
REMARK    5  A    between atoms: C_5  and  C_6
REMARK    6  A    between atoms: C_6  and  O_7
REMARK    7  A    between atoms: O_7  and  C_8
REMARK    8  A    between atoms: N_9  and  S_10
REMARK    9  A    between atoms: S_10  and  C_13
REMARK   10  A    between atoms: C_16  and  C_19
REMARK   11  A    between atoms: C_22  and  O_23
REMARK   12  A    between atoms: O_23  and  C_24
REMARK   13  A    between atoms: C_27  and  O_28
REMARK                            x       y       z     vdW  Elec       q    Type
REMARK                         _______ _______ _______ _____ _____    ______ ____
ROOT
ATOM      1  S   UNL     1       6.843  -4.618  22.860  0.00  0.00    +0.059 S 
ATOM      2  O   UNL     1       5.447  -4.600  23.231  0.00  0.00    -0.153 OA
ATOM      3  O   UNL     1       7.342  -5.355  21.722  0.00  0.00    -0.153 OA
ENDROOT
BRANCH   1   4
ATOM      4  C   UNL     1       7.367  -2.935  22.711  0.00  0.00    +0.105 A 
ATOM      5  C   UNL     1       6.451  -1.914  22.973  0.00  0.00    +0.029 A 
ATOM      6  C   UNL     1       6.883  -0.589  22.985  0.00  0.00    +0.010 A 
ATOM      7  C   UNL     1       8.227  -0.259  22.736  0.00  0.00    -0.018 A 
ATOM      8  C   UNL     1       9.099  -1.309  22.374  0.00  0.00    +0.010 A 
ATOM      9  C   UNL     1       8.677  -2.639  22.356  0.00  0.00    +0.029 A 
BRANCH   7  10
ATOM     10  C   UNL     1       8.736   1.117  22.933  0.00  0.00    -0.018 A 
ATOM     11  C   UNL     1       7.853   2.194  23.145  0.00  0.00    +0.012 A 
ATOM     12  C   UNL     1       8.317   3.477  23.463  0.00  0.00    +0.046 A 
ATOM     13  C   UNL     1       9.681   3.712  23.585  0.00  0.00    +0.120 A 
ATOM     14  C   UNL     1      10.574   2.667  23.360  0.00  0.00    +0.046 A 
ATOM     15  C   UNL     1      10.109   1.394  23.017  0.00  0.00    +0.012 A 
BRANCH  13  16
ATOM     16  O   UNL     1      10.249   4.888  23.985  0.00  0.00    -0.495 OA
ATOM     17  C   UNL     1      11.591   5.106  23.565  0.00  0.00    +0.277 C 
ENDBRANCH  13  16
ENDBRANCH   7  10
ENDBRANCH   1   4
BRANCH   1  18
ATOM     18  N   UNL     1       7.737  -5.120  24.195  0.00  0.00    -0.175 NA
ATOM     19  H   UNL     1       7.905  -6.129  24.182  0.00  0.00    +0.149 HD
BRANCH  18  20
ATOM     20  C   UNL     1       7.403  -4.525  25.515  0.00  0.00    +0.196 C 
BRANCH  20  21
ATOM     21  C   UNL     1       7.042  -5.642  26.496  0.00  0.00    +0.324 C 
ATOM     22  O   UNL     1       6.030  -6.324  26.396  0.00  0.00    -0.249 OA
BRANCH  21  23
ATOM     23  O   UNL     1       7.943  -5.839  27.485  0.00  0.00    -0.479 OA
ATOM     24  H   UNL     1       8.466  -6.659  27.391  0.00  0.00    +0.295 HD
ENDBRANCH  21  23
ENDBRANCH  20  21
BRANCH  20  25
ATOM     25  C   UNL     1       8.604  -3.777  26.118  0.00  0.00    +0.120 C 
BRANCH  25  26
ATOM     26  C   UNL     1       8.418  -2.316  26.213  0.00  0.00    -0.098 C 
ATOM     27  C   UNL     1       8.199  -1.040  26.370  0.00  0.00    -0.074 C 
BRANCH  27  28
ATOM     28  C   UNL     1       7.943   0.447  26.555  0.00  0.00    +0.247 C 
BRANCH  28  29
ATOM     29  O   UNL     1       6.617   0.751  26.142  0.00  0.00    -0.371 OA
ATOM     30  C   UNL     1       6.236   2.054  26.562  0.00  0.00    +0.195 C 
ENDBRANCH  28  29
ENDBRANCH  27  28
ENDBRANCH  25  26
ENDBRANCH  20  25
ENDBRANCH  18  20
ENDBRANCH   1  18
TORSDOF 11
ENDMDL
MODEL 6
REMARK VINA RESULT:      -6.0      3.131      5.800
REMARK  Name = 
REMARK  13 active torsions:
REMARK  status: ('A' for Active; 'I' for Inactive)
REMARK    1  A    between atoms: C_2  and  C_3
REMARK    2  A    between atoms: C_2  and  N_9
REMARK    3  A    between atoms: C_2  and  C_27
REMARK    4  A    between atoms: C_3  and  C_4
REMARK    5  A    between atoms: C_5  and  C_6
REMARK    6  A    between atoms: C_6  and  O_7
REMARK    7  A    between atoms: O_7  and  C_8
REMARK    8  A    between atoms: N_9  and  S_10
REMARK    9  A    between atoms: S_10  and  C_13
REMARK   10  A    between atoms: C_16  and  C_19
REMARK   11  A    between atoms: C_22  and  O_23
REMARK   12  A    between atoms: O_23  and  C_24
REMARK   13  A    between atoms: C_27  and  O_28
REMARK                            x       y       z     vdW  Elec       q    Type
REMARK                         _______ _______ _______ _____ _____    ______ ____
ROOT
ATOM      1  S   UNL     1       8.682  -4.542  24.868  0.00  0.00    +0.059 S 
ATOM      2  O   UNL     1       9.939  -5.255  24.884  0.00  0.00    -0.153 OA
ATOM      3  O   UNL     1       7.652  -4.749  25.860  0.00  0.00    -0.153 OA
ENDROOT
BRANCH   1   4
ATOM      4  C   UNL     1       9.059  -2.816  24.802  0.00  0.00    +0.105 A 
ATOM      5  C   UNL     1       9.845  -2.333  23.754  0.00  0.00    +0.029 A 
ATOM      6  C   UNL     1      10.043  -0.960  23.619  0.00  0.00    +0.010 A 
ATOM      7  C   UNL     1       9.466  -0.048  24.521  0.00  0.00    -0.018 A 
ATOM      8  C   UNL     1       8.765  -0.581  25.625  0.00  0.00    +0.010 A 
ATOM      9  C   UNL     1       8.563  -1.954  25.772  0.00  0.00    +0.029 A 
BRANCH   7  10
ATOM     10  C   UNL     1       9.508   1.412  24.280  0.00  0.00    -0.018 A 
ATOM     11  C   UNL     1       8.562   2.272  24.870  0.00  0.00    +0.012 A 
ATOM     12  C   UNL     1       8.662   3.665  24.760  0.00  0.00    +0.046 A 
ATOM     13  C   UNL     1       9.722   4.233  24.062  0.00  0.00    +0.120 A 
ATOM     14  C   UNL     1      10.659   3.401  23.454  0.00  0.00    +0.046 A 
ATOM     15  C   UNL     1      10.540   2.010  23.542  0.00  0.00    +0.012 A 
BRANCH  13  16
ATOM     16  O   UNL     1       9.983   5.570  23.969  0.00  0.00    -0.495 OA
ATOM     17  C   UNL     1      11.354   5.931  23.862  0.00  0.00    +0.277 C 
ENDBRANCH  13  16
ENDBRANCH   7  10
ENDBRANCH   1   4
BRANCH   1  18
ATOM     18  N   UNL     1       7.963  -4.776  23.363  0.00  0.00    -0.175 NA
ATOM     19  H   UNL     1       8.539  -4.401  22.606  0.00  0.00    +0.149 HD
BRANCH  18  20
ATOM     20  C   UNL     1       6.499  -4.548  23.253  0.00  0.00    +0.196 C 
BRANCH  20  21
ATOM     21  C   UNL     1       6.239  -3.389  22.288  0.00  0.00    +0.324 C 
ATOM     22  O   UNL     1       6.500  -2.222  22.553  0.00  0.00    -0.249 OA
BRANCH  21  23
ATOM     23  O   UNL     1       5.712  -3.752  21.097  0.00  0.00    -0.479 OA
ATOM     24  H   UNL     1       4.798  -3.439  20.953  0.00  0.00    +0.295 HD
ENDBRANCH  21  23
ENDBRANCH  20  21
BRANCH  20  25
ATOM     25  C   UNL     1       5.777  -5.777  22.674  0.00  0.00    +0.120 C 
BRANCH  25  26
ATOM     26  C   UNL     1       4.775  -6.370  23.581  0.00  0.00    -0.098 C 
ATOM     27  C   UNL     1       3.950  -6.964  24.398  0.00  0.00    -0.074 C 
BRANCH  27  28
ATOM     28  C   UNL     1       2.989  -7.656  25.350  0.00  0.00    +0.247 C 
BRANCH  28  29
ATOM     29  O   UNL     1       2.521  -8.859  24.754  0.00  0.00    -0.371 OA
ATOM     30  C   UNL     1       1.489  -8.596  23.812  0.00  0.00    +0.195 C 
ENDBRANCH  28  29
ENDBRANCH  27  28
ENDBRANCH  25  26
ENDBRANCH  20  25
ENDBRANCH  18  20
ENDBRANCH   1  18
TORSDOF 11
ENDMDL
MODEL 7
REMARK VINA RESULT:      -5.9      2.813      5.244
REMARK  Name = 
REMARK  13 active torsions:
REMARK  status: ('A' for Active; 'I' for Inactive)
REMARK    1  A    between atoms: C_2  and  C_3
REMARK    2  A    between atoms: C_2  and  N_9
REMARK    3  A    between atoms: C_2  and  C_27
REMARK    4  A    between atoms: C_3  and  C_4
REMARK    5  A    between atoms: C_5  and  C_6
REMARK    6  A    between atoms: C_6  and  O_7
REMARK    7  A    between atoms: O_7  and  C_8
REMARK    8  A    between atoms: N_9  and  S_10
REMARK    9  A    between atoms: S_10  and  C_13
REMARK   10  A    between atoms: C_16  and  C_19
REMARK   11  A    between atoms: C_22  and  O_23
REMARK   12  A    between atoms: O_23  and  C_24
REMARK   13  A    between atoms: C_27  and  O_28
REMARK                            x       y       z     vdW  Elec       q    Type
REMARK                         _______ _______ _______ _____ _____    ______ ____
ROOT
ATOM      1  S   UNL     1       8.888  -4.536  25.267  0.00  0.00    +0.059 S 
ATOM      2  O   UNL     1      10.148  -5.231  25.132  0.00  0.00    -0.153 OA
ATOM      3  O   UNL     1       8.012  -4.717  26.401  0.00  0.00    -0.153 OA
ENDROOT
BRANCH   1   4
ATOM      4  C   UNL     1       9.221  -2.808  25.085  0.00  0.00    +0.105 A 
ATOM      5  C   UNL     1       9.927  -2.368  23.964  0.00  0.00    +0.029 A 
ATOM      6  C   UNL     1      10.083  -1.001  23.743  0.00  0.00    +0.010 A 
ATOM      7  C   UNL     1       9.545  -0.053  24.631  0.00  0.00    -0.018 A 
ATOM      8  C   UNL     1       8.929  -0.538  25.805  0.00  0.00    +0.010 A 
ATOM      9  C   UNL     1       8.768  -1.905  26.038  0.00  0.00    +0.029 A 
BRANCH   7  10
ATOM     10  C   UNL     1       9.538   1.392  24.310  0.00  0.00    -0.018 A 
ATOM     11  C   UNL     1       8.544   2.246  24.827  0.00  0.00    +0.012 A 
ATOM     12  C   UNL     1       8.594   3.633  24.643  0.00  0.00    +0.046 A 
ATOM     13  C   UNL     1       9.649   4.204  23.941  0.00  0.00    +0.120 A 
ATOM     14  C   UNL     1      10.634   3.377  23.403  0.00  0.00    +0.046 A 
ATOM     15  C   UNL     1      10.566   1.990  23.566  0.00  0.00    +0.012 A 
BRANCH  13  16
ATOM     16  O   UNL     1       9.861   5.543  23.780  0.00  0.00    -0.495 OA
ATOM     17  C   UNL     1       8.718   6.318  23.439  0.00  0.00    +0.277 C 
ENDBRANCH  13  16
ENDBRANCH   7  10
ENDBRANCH   1   4
BRANCH   1  18
ATOM     18  N   UNL     1       7.970  -4.838  23.888  0.00  0.00    -0.175 NA
ATOM     19  H   UNL     1       8.487  -4.619  23.033  0.00  0.00    +0.149 HD
BRANCH  18  20
ATOM     20  C   UNL     1       6.538  -4.445  23.911  0.00  0.00    +0.196 C 
BRANCH  20  21
ATOM     21  C   UNL     1       6.215  -3.635  22.654  0.00  0.00    +0.324 C 
ATOM     22  O   UNL     1       7.027  -2.907  22.096  0.00  0.00    -0.249 OA
BRANCH  21  23
ATOM     23  O   UNL     1       4.959  -3.798  22.182  0.00  0.00    -0.479 OA
ATOM     24  H   UNL     1       4.836  -4.605  21.645  0.00  0.00    +0.295 HD
ENDBRANCH  21  23
ENDBRANCH  20  21
BRANCH  20  25
ATOM     25  C   UNL     1       5.613  -5.674  23.895  0.00  0.00    +0.120 C 
BRANCH  25  26
ATOM     26  C   UNL     1       5.197  -6.133  25.235  0.00  0.00    -0.098 C 
ATOM     27  C   UNL     1       4.856  -6.454  26.452  0.00  0.00    -0.074 C 
BRANCH  27  28
ATOM     28  C   UNL     1       4.457  -6.829  27.870  0.00  0.00    +0.247 C 
BRANCH  28  29
ATOM     29  O   UNL     1       5.553  -7.466  28.514  0.00  0.00    -0.371 OA
ATOM     30  C   UNL     1       6.311  -6.536  29.275  0.00  0.00    +0.195 C 
ENDBRANCH  28  29
ENDBRANCH  27  28
ENDBRANCH  25  26
ENDBRANCH  20  25
ENDBRANCH  18  20
ENDBRANCH   1  18
TORSDOF 11
ENDMDL
MODEL 8
REMARK VINA RESULT:      -5.9      3.071      7.745
REMARK  Name = 
REMARK  13 active torsions:
REMARK  status: ('A' for Active; 'I' for Inactive)
REMARK    1  A    between atoms: C_2  and  C_3
REMARK    2  A    between atoms: C_2  and  N_9
REMARK    3  A    between atoms: C_2  and  C_27
REMARK    4  A    between atoms: C_3  and  C_4
REMARK    5  A    between atoms: C_5  and  C_6
REMARK    6  A    between atoms: C_6  and  O_7
REMARK    7  A    between atoms: O_7  and  C_8
REMARK    8  A    between atoms: N_9  and  S_10
REMARK    9  A    between atoms: S_10  and  C_13
REMARK   10  A    between atoms: C_16  and  C_19
REMARK   11  A    between atoms: C_22  and  O_23
REMARK   12  A    between atoms: O_23  and  C_24
REMARK   13  A    between atoms: C_27  and  O_28
REMARK                            x       y       z     vdW  Elec       q    Type
REMARK                         _______ _______ _______ _____ _____    ______ ____
ROOT
ATOM      1  S   UNL     1       9.823  -1.388  23.153  0.00  0.00    +0.059 S 
ATOM      2  O   UNL     1      10.118  -0.775  24.428  0.00  0.00    -0.153 OA
ATOM      3  O   UNL     1      10.851  -1.841  22.245  0.00  0.00    -0.153 OA
ENDROOT
BRANCH   1   4
ATOM      4  C   UNL     1       8.715  -2.731  23.461  0.00  0.00    +0.105 A 
ATOM      5  C   UNL     1       8.762  -3.379  24.697  0.00  0.00    +0.029 A 
ATOM      6  C   UNL     1       7.811  -4.352  25.000  0.00  0.00    +0.010 A 
ATOM      7  C   UNL     1       6.803  -4.697  24.082  0.00  0.00    -0.018 A 
ATOM      8  C   UNL     1       6.852  -4.095  22.806  0.00  0.00    +0.010 A 
ATOM      9  C   UNL     1       7.801  -3.121  22.490  0.00  0.00    +0.029 A 
BRANCH   7  10
ATOM     10  C   UNL     1       5.680  -5.584  24.461  0.00  0.00    -0.018 A 
ATOM     11  C   UNL     1       5.585  -6.118  25.761  0.00  0.00    +0.012 A 
ATOM     12  C   UNL     1       4.466  -6.851  26.177  0.00  0.00    +0.046 A 
ATOM     13  C   UNL     1       3.407  -7.060  25.301  0.00  0.00    +0.120 A 
ATOM     14  C   UNL     1       3.488  -6.557  24.004  0.00  0.00    +0.046 A 
ATOM     15  C   UNL     1       4.618  -5.849  23.584  0.00  0.00    +0.012 A 
BRANCH  13  16
ATOM     16  O   UNL     1       2.226  -7.668  25.617  0.00  0.00    -0.495 OA
ATOM     17  C   UNL     1       1.927  -8.859  24.898  0.00  0.00    +0.277 C 
ENDBRANCH  13  16
ENDBRANCH   7  10
ENDBRANCH   1   4
BRANCH   1  18
ATOM     18  N   UNL     1       8.831  -0.342  22.282  0.00  0.00    -0.175 NA
ATOM     19  H   UNL     1       9.165  -0.211  21.324  0.00  0.00    +0.149 HD
BRANCH  18  20
ATOM     20  C   UNL     1       8.329   0.872  22.975  0.00  0.00    +0.196 C 
BRANCH  20  21
ATOM     21  C   UNL     1       8.681   2.110  22.147  0.00  0.00    +0.324 C 
ATOM     22  O   UNL     1       7.924   3.063  22.007  0.00  0.00    -0.249 OA
BRANCH  21  23
ATOM     23  O   UNL     1       9.912   2.086  21.589  0.00  0.00    -0.479 OA
ATOM     24  H   UNL     1       9.908   2.116  20.613  0.00  0.00    +0.295 HD
ENDBRANCH  21  23
ENDBRANCH  20  21
BRANCH  20  25
ATOM     25  C   UNL     1       6.797   0.852  23.113  0.00  0.00    +0.120 C 
BRANCH  25  26
ATOM     26  C   UNL     1       6.292  -0.130  24.092  0.00  0.00    -0.098 C 
ATOM     27  C   UNL     1       5.761  -0.965  24.941  0.00  0.00    -0.074 C 
BRANCH  27  28
ATOM     28  C   UNL     1       5.141  -1.938  25.930  0.00  0.00    +0.247 C 
BRANCH  28  29
ATOM     29  O   UNL     1       3.741  -2.024  25.691  0.00  0.00    -0.371 OA
ATOM     30  C   UNL     1       3.219  -3.264  26.148  0.00  0.00    +0.195 C 
ENDBRANCH  28  29
ENDBRANCH  27  28
ENDBRANCH  25  26
ENDBRANCH  20  25
ENDBRANCH  18  20
ENDBRANCH   1  18
TORSDOF 11
ENDMDL
MODEL 9
REMARK VINA RESULT:      -5.8      2.588      4.269
REMARK  Name = 
REMARK  13 active torsions:
REMARK  status: ('A' for Active; 'I' for Inactive)
REMARK    1  A    between atoms: C_2  and  C_3
REMARK    2  A    between atoms: C_2  and  N_9
REMARK    3  A    between atoms: C_2  and  C_27
REMARK    4  A    between atoms: C_3  and  C_4
REMARK    5  A    between atoms: C_5  and  C_6
REMARK    6  A    between atoms: C_6  and  O_7
REMARK    7  A    between atoms: O_7  and  C_8
REMARK    8  A    between atoms: N_9  and  S_10
REMARK    9  A    between atoms: S_10  and  C_13
REMARK   10  A    between atoms: C_16  and  C_19
REMARK   11  A    between atoms: C_22  and  O_23
REMARK   12  A    between atoms: O_23  and  C_24
REMARK   13  A    between atoms: C_27  and  O_28
REMARK                            x       y       z     vdW  Elec       q    Type
REMARK                         _______ _______ _______ _____ _____    ______ ____
ROOT
ATOM      1  S   UNL     1       8.891  -4.592  25.595  0.00  0.00    +0.059 S 
ATOM      2  O   UNL     1       8.458  -5.395  24.474  0.00  0.00    -0.153 OA
ATOM      3  O   UNL     1      10.122  -4.844  26.309  0.00  0.00    -0.153 OA
ENDROOT
BRANCH   1   4
ATOM      4  C   UNL     1       8.886  -2.905  25.065  0.00  0.00    +0.105 A 
ATOM      5  C   UNL     1       8.195  -1.958  25.823  0.00  0.00    +0.029 A 
ATOM      6  C   UNL     1       8.288  -0.608  25.489  0.00  0.00    +0.010 A 
ATOM      7  C   UNL     1       9.065  -0.180  24.397  0.00  0.00    -0.018 A 
ATOM      8  C   UNL     1       9.663  -1.175  23.595  0.00  0.00    +0.010 A 
ATOM      9  C   UNL     1       9.575  -2.530  23.918  0.00  0.00    +0.029 A 
BRANCH   7  10
ATOM     10  C   UNL     1       9.326   1.256  24.149  0.00  0.00    -0.018 A 
ATOM     11  C   UNL     1       8.548   2.253  24.767  0.00  0.00    +0.012 A 
ATOM     12  C   UNL     1       8.860   3.613  24.648  0.00  0.00    +0.046 A 
ATOM     13  C   UNL     1       9.970   4.009  23.910  0.00  0.00    +0.120 A 
ATOM     14  C   UNL     1      10.744   3.042  23.274  0.00  0.00    +0.046 A 
ATOM     15  C   UNL     1      10.413   1.687  23.372  0.00  0.00    +0.012 A 
BRANCH  13  16
ATOM     16  O   UNL     1      10.433   5.290  23.802  0.00  0.00    -0.495 OA
ATOM     17  C   UNL     1       9.463   6.277  23.475  0.00  0.00    +0.277 C 
ENDBRANCH  13  16
ENDBRANCH   7  10
ENDBRANCH   1   4
BRANCH   1  18
ATOM     18  N   UNL     1       7.658  -4.577  26.741  0.00  0.00    -0.175 NA
ATOM     19  H   UNL     1       8.025  -4.626  27.694  0.00  0.00    +0.149 HD
BRANCH  18  20
ATOM     20  C   UNL     1       6.443  -5.384  26.460  0.00  0.00    +0.196 C 
BRANCH  20  21
ATOM     21  C   UNL     1       6.005  -6.101  27.739  0.00  0.00    +0.324 C 
ATOM     22  O   UNL     1       5.367  -7.146  27.739  0.00  0.00    -0.249 OA
BRANCH  21  23
ATOM     23  O   UNL     1       6.396  -5.501  28.886  0.00  0.00    -0.479 OA
ATOM     24  H   UNL     1       6.389  -4.525  28.849  0.00  0.00    +0.295 HD
ENDBRANCH  21  23
ENDBRANCH  20  21
BRANCH  20  25
ATOM     25  C   UNL     1       5.264  -4.498  26.024  0.00  0.00    +0.120 C 
BRANCH  25  26
ATOM     26  C   UNL     1       5.358  -4.011  24.634  0.00  0.00    -0.098 C 
ATOM     27  C   UNL     1       5.522  -3.540  23.429  0.00  0.00    -0.074 C 
BRANCH  27  28
ATOM     28  C   UNL     1       5.715  -2.991  22.024  0.00  0.00    +0.247 C 
BRANCH  28  29
ATOM     29  O   UNL     1       5.552  -4.044  21.082  0.00  0.00    -0.371 OA
ATOM     30  C   UNL     1       6.425  -5.127  21.368  0.00  0.00    +0.195 C 
ENDBRANCH  28  29
ENDBRANCH  27  28
ENDBRANCH  25  26
ENDBRANCH  20  25
ENDBRANCH  18  20
ENDBRANCH   1  18
TORSDOF 11
ENDMDL
