MODEL 1
REMARK VINA RESULT:      -7.3      0.000      0.000
REMARK  Name = 
REMARK  6 active torsions:
REMARK  status: ('A' for Active; 'I' for Inactive)
REMARK    1  A    between atoms: C_1  and  C_2
REMARK    2  A    between atoms: C_2  and  N_3
REMARK    3  A    between atoms: C_5  and  C_6
REMARK    4  A    between atoms: C_6  and  O_7
REMARK    5  A    between atoms: C_15  and  N_16
REMARK    6  A    between atoms: C_20  and  C_21
REMARK                            x       y       z     vdW  Elec       q    Type
REMARK                         _______ _______ _______ _____ _____    ______ ____
ROOT
ATOM      1  N   UNL     1       8.204  -1.565  26.113  0.00  0.00    -0.344 N 
ATOM      2  C   UNL     1       8.481  -1.210  24.766  0.00  0.00    +0.090 A 
ATOM      3  C   UNL     1       8.585  -2.235  23.804  0.00  0.00    +0.052 A 
ATOM      4  C   UNL     1       8.869  -1.957  22.465  0.00  0.00    +0.054 A 
ATOM      5  C   UNL     1       9.048  -0.640  22.055  0.00  0.00    +0.148 A 
ATOM      6  C   UNL     1       8.957   0.446  22.942  0.00  0.00    +0.103 A 
ATOM      7  F   UNL     1       9.272  -0.437  20.747  0.00  0.00    -0.203 F 
ATOM      8  C   UNL     1       8.403  -3.652  24.202  0.00  0.00    +0.204 A 
ATOM      9  O   UNL     1       8.490  -4.569  23.386  0.00  0.00    -0.286 OA
ATOM     10  C   UNL     1       8.116  -3.952  25.616  0.00  0.00    +0.122 A 
ATOM     11  C   UNL     1       8.671   0.113  24.292  0.00  0.00    +0.171 A 
ATOM     12  F   UNL     1       8.638   1.129  25.173  0.00  0.00    -0.201 F 
ATOM     13  C   UNL     1       8.047  -2.906  26.447  0.00  0.00    +0.105 A 
ENDROOT
BRANCH   6  14
ATOM     14  N   UNL     1       9.157   1.758  22.539  0.00  0.00    -0.323 N 
ATOM     15  C   UNL     1      10.482   2.402  22.549  0.00  0.00    +0.123 C 
ATOM     16  C   UNL     1      10.465   3.657  23.476  0.00  0.00    +0.068 C 
ATOM     17  C   UNL     1      11.791   4.410  23.373  0.00  0.00    +0.025 C 
ATOM     18  N   UNL     1       9.362   4.601  23.179  0.00  0.00    -0.311 NA
ATOM     19  H   UNL     1       9.341   5.330  23.892  0.00  0.00    +0.122 HD
ATOM     20  C   UNL     1       8.071   3.883  23.186  0.00  0.00    +0.100 C 
ATOM     21  C   UNL     1       8.055   2.679  22.223  0.00  0.00    +0.120 C 
ENDBRANCH   6  14
BRANCH   1  23
ATOM     22  C   UNL     1       6.800  -0.126  27.544  0.00  0.00    +0.027 C 
ATOM     23  C   UNL     1       8.219  -0.542  27.177  0.00  0.00    +0.118 C 
ENDBRANCH   1  23
BRANCH  10  24
ATOM     24  C   UNL     1       7.922  -5.316  26.150  0.00  0.00    +0.342 C 
ATOM     25  O   UNL     1       6.891  -5.685  26.696  0.00  0.00    -0.245 OA
BRANCH  24  26
ATOM     26  O   UNL     1       8.981  -6.138  25.988  0.00  0.00    -0.477 OA
ATOM     27  H   UNL     1       8.828  -6.870  25.343  0.00  0.00    +0.295 HD
ENDBRANCH  24  26
ENDBRANCH  10  24
TORSDOF 4
ENDMDL
MODEL 2
REMARK VINA RESULT:      -7.2      2.426      4.242
REMARK  Name = 
REMARK  6 active torsions:
REMARK  status: ('A' for Active; 'I' for Inactive)
REMARK    1  A    between atoms: C_1  and  C_2
REMARK    2  A    between atoms: C_2  and  N_3
REMARK    3  A    between atoms: C_5  and  C_6
REMARK    4  A    between atoms: C_6  and  O_7
REMARK    5  A    between atoms: C_15  and  N_16
REMARK    6  A    between atoms: C_20  and  C_21
REMARK                            x       y       z     vdW  Elec       q    Type
REMARK                         _______ _______ _______ _____ _____    ______ ____
ROOT
ATOM      1  N   UNL     1       6.156  -4.453  23.623  0.00  0.00    -0.344 N 
ATOM      2  C   UNL     1       6.834  -3.424  24.328  0.00  0.00    +0.090 A 
ATOM      3  C   UNL     1       6.874  -3.482  25.736  0.00  0.00    +0.052 A 
ATOM      4  C   UNL     1       7.512  -2.496  26.492  0.00  0.00    +0.054 A 
ATOM      5  C   UNL     1       8.133  -1.428  25.853  0.00  0.00    +0.148 A 
ATOM      6  C   UNL     1       8.150  -1.291  24.455  0.00  0.00    +0.103 A 
ATOM      7  F   UNL     1       8.768  -0.540  26.634  0.00  0.00    -0.203 F 
ATOM      8  C   UNL     1       6.220  -4.603  26.455  0.00  0.00    +0.204 A 
ATOM      9  O   UNL     1       6.236  -4.680  27.682  0.00  0.00    -0.286 OA
ATOM     10  C   UNL     1       5.535  -5.639  25.662  0.00  0.00    +0.122 A 
ATOM     11  C   UNL     1       7.486  -2.315  23.730  0.00  0.00    +0.171 A 
ATOM     12  F   UNL     1       7.435  -2.176  22.393  0.00  0.00    -0.201 F 
ATOM     13  C   UNL     1       5.550  -5.483  24.333  0.00  0.00    +0.105 A 
ENDROOT
BRANCH   6  14
ATOM     14  N   UNL     1       8.751  -0.216  23.817  0.00  0.00    -0.323 N 
ATOM     15  C   UNL     1       8.102   1.101  23.692  0.00  0.00    +0.123 C 
ATOM     16  C   UNL     1       7.939   1.481  22.187  0.00  0.00    +0.068 C 
ATOM     17  C   UNL     1       7.403   2.906  22.054  0.00  0.00    +0.025 C 
ATOM     18  N   UNL     1       9.195   1.375  21.408  0.00  0.00    -0.311 NA
ATOM     19  H   UNL     1       8.992   1.521  20.419  0.00  0.00    +0.122 HD
ATOM     20  C   UNL     1       9.784   0.031  21.584  0.00  0.00    +0.100 C 
ATOM     21  C   UNL     1      10.011  -0.327  23.067  0.00  0.00    +0.120 C 
ENDBRANCH   6  14
BRANCH   1  23
ATOM     22  C   UNL     1       6.480  -5.628  21.476  0.00  0.00    +0.027 C 
ATOM     23  C   UNL     1       5.972  -4.365  22.160  0.00  0.00    +0.118 C 
ENDBRANCH   1  23
BRANCH  10  24
ATOM     24  C   UNL     1       4.837  -6.803  26.247  0.00  0.00    +0.342 C 
ATOM     25  O   UNL     1       3.905  -7.374  25.699  0.00  0.00    -0.245 OA
BRANCH  24  26
ATOM     26  O   UNL     1       5.314  -7.196  27.448  0.00  0.00    -0.477 OA
ATOM     27  H   UNL     1       4.682  -7.063  28.196  0.00  0.00    +0.295 HD
ENDBRANCH  24  26
ENDBRANCH  10  24
TORSDOF 4
ENDMDL
MODEL 3
REMARK VINA RESULT:      -7.2      2.405      3.187
REMARK  Name = 
REMARK  6 active torsions:
REMARK  status: ('A' for Active; 'I' for Inactive)
REMARK    1  A    between atoms: C_1  and  C_2
REMARK    2  A    between atoms: C_2  and  N_3
REMARK    3  A    between atoms: C_5  and  C_6
REMARK    4  A    between atoms: C_6  and  O_7
REMARK    5  A    between atoms: C_15  and  N_16
REMARK    6  A    between atoms: C_20  and  C_21
REMARK                            x       y       z     vdW  Elec       q    Type
REMARK                         _______ _______ _______ _____ _____    ______ ____
ROOT
ATOM      1  N   UNL     1       7.616  -4.212  25.534  0.00  0.00    -0.344 N 
ATOM      2  C   UNL     1       7.461  -3.068  24.707  0.00  0.00    +0.090 A 
ATOM      3  C   UNL     1       6.384  -3.031  23.798  0.00  0.00    +0.052 A 
ATOM      4  C   UNL     1       6.182  -1.943  22.946  0.00  0.00    +0.054 A 
ATOM      5  C   UNL     1       7.052  -0.858  22.991  0.00  0.00    +0.148 A 
ATOM      6  C   UNL     1       8.147  -0.805  23.869  0.00  0.00    +0.103 A 
ATOM      7  F   UNL     1       6.775   0.175  22.180  0.00  0.00    -0.203 F 
ATOM      8  C   UNL     1       5.437  -4.169  23.718  0.00  0.00    +0.204 A 
ATOM      9  O   UNL     1       4.490  -4.168  22.932  0.00  0.00    -0.286 OA
ATOM     10  C   UNL     1       5.654  -5.326  24.605  0.00  0.00    +0.122 A 
ATOM     11  C   UNL     1       8.314  -1.935  24.712  0.00  0.00    +0.171 A 
ATOM     12  F   UNL     1       9.389  -1.935  25.519  0.00  0.00    -0.201 F 
ATOM     13  C   UNL     1       6.710  -5.261  25.424  0.00  0.00    +0.105 A 
ENDROOT
BRANCH   6  14
ATOM     14  N   UNL     1       9.028   0.267  23.900  0.00  0.00    -0.323 N 
ATOM     15  C   UNL     1       8.823   1.441  24.768  0.00  0.00    +0.123 C 
ATOM     16  C   UNL     1       8.720   2.737  23.905  0.00  0.00    +0.068 C 
ATOM     17  C   UNL     1       8.656   3.970  24.806  0.00  0.00    +0.025 C 
ATOM     18  N   UNL     1       9.840   2.907  22.951  0.00  0.00    -0.311 NA
ATOM     19  H   UNL     1       9.648   3.704  22.344  0.00  0.00    +0.122 HD
ATOM     20  C   UNL     1       9.982   1.693  22.121  0.00  0.00    +0.100 C 
ATOM     21  C   UNL     1      10.152   0.413  22.964  0.00  0.00    +0.120 C 
ENDBRANCH   6  14
BRANCH   1  23
ATOM     22  C   UNL     1       9.879  -5.181  25.715  0.00  0.00    +0.027 C 
ATOM     23  C   UNL     1       8.800  -4.355  26.404  0.00  0.00    +0.118 C 
ENDBRANCH   1  23
BRANCH  10  24
ATOM     24  C   UNL     1       4.795  -6.528  24.624  0.00  0.00    +0.342 C 
ATOM     25  O   UNL     1       4.161  -6.887  25.606  0.00  0.00    -0.245 OA
BRANCH  24  26
ATOM     26  O   UNL     1       4.759  -7.209  23.458  0.00  0.00    -0.477 OA
ATOM     27  H   UNL     1       4.980  -8.168  23.545  0.00  0.00    +0.295 HD
ENDBRANCH  24  26
ENDBRANCH  10  24
TORSDOF 4
ENDMDL
MODEL 4
REMARK VINA RESULT:      -7.1      2.067      3.751
REMARK  Name = 
REMARK  6 active torsions:
REMARK  status: ('A' for Active; 'I' for Inactive)
REMARK    1  A    between atoms: C_1  and  C_2
REMARK    2  A    between atoms: C_2  and  N_3
REMARK    3  A    between atoms: C_5  and  C_6
REMARK    4  A    between atoms: C_6  and  O_7
REMARK    5  A    between atoms: C_15  and  N_16
REMARK    6  A    between atoms: C_20  and  C_21
REMARK                            x       y       z     vdW  Elec       q    Type
REMARK                         _______ _______ _______ _____ _____    ______ ____
ROOT
ATOM      1  N   UNL     1       6.802  -4.485  23.427  0.00  0.00    -0.344 N 
ATOM      2  C   UNL     1       7.567  -3.419  23.972  0.00  0.00    +0.090 A 
ATOM      3  C   UNL     1       7.644  -3.289  25.373  0.00  0.00    +0.052 A 
ATOM      4  C   UNL     1       8.366  -2.256  25.974  0.00  0.00    +0.054 A 
ATOM      5  C   UNL     1       9.038  -1.331  25.183  0.00  0.00    +0.148 A 
ATOM      6  C   UNL     1       9.023  -1.385  23.780  0.00  0.00    +0.103 A 
ATOM      7  F   UNL     1       9.753  -0.391  25.823  0.00  0.00    -0.203 F 
ATOM      8  C   UNL     1       6.938  -4.255  26.251  0.00  0.00    +0.204 A 
ATOM      9  O   UNL     1       6.984  -4.166  27.477  0.00  0.00    -0.286 OA
ATOM     10  C   UNL     1       6.163  -5.339  25.622  0.00  0.00    +0.122 A 
ATOM     11  C   UNL     1       8.272  -2.449  23.214  0.00  0.00    +0.171 A 
ATOM     12  F   UNL     1       8.192  -2.489  21.873  0.00  0.00    -0.201 F 
ATOM     13  C   UNL     1       6.150  -5.365  24.284  0.00  0.00    +0.105 A 
ENDROOT
BRANCH   6  14
ATOM     14  N   UNL     1       9.675  -0.451  22.988  0.00  0.00    -0.323 N 
ATOM     15  C   UNL     1      10.524   0.615  23.550  0.00  0.00    +0.123 C 
ATOM     16  C   UNL     1       9.970   2.016  23.142  0.00  0.00    +0.068 C 
ATOM     17  C   UNL     1      10.927   3.117  23.597  0.00  0.00    +0.025 C 
ATOM     18  N   UNL     1       9.739   2.163  21.686  0.00  0.00    -0.311 NA
ATOM     19  H   UNL     1       9.270   3.051  21.507  0.00  0.00    +0.122 HD
ATOM     20  C   UNL     1       8.884   1.061  21.199  0.00  0.00    +0.100 C 
ATOM     21  C   UNL     1       9.457  -0.330  21.539  0.00  0.00    +0.120 C 
ENDBRANCH   6  14
BRANCH   1  23
ATOM     22  C   UNL     1       6.812  -6.009  21.485  0.00  0.00    +0.027 C 
ATOM     23  C   UNL     1       6.582  -4.583  21.970  0.00  0.00    +0.118 C 
ENDBRANCH   1  23
BRANCH  10  24
ATOM     24  C   UNL     1       5.408  -6.361  26.374  0.00  0.00    +0.342 C 
ATOM     25  O   UNL     1       4.332  -6.812  26.004  0.00  0.00    -0.245 OA
BRANCH  24  26
ATOM     26  O   UNL     1       6.003  -6.770  27.516  0.00  0.00    -0.477 OA
ATOM     27  H   UNL     1       5.610  -6.384  28.336  0.00  0.00    +0.295 HD
ENDBRANCH  24  26
ENDBRANCH  10  24
TORSDOF 4
ENDMDL
MODEL 5
REMARK VINA RESULT:      -6.8      1.664      2.047
REMARK  Name = 
REMARK  6 active torsions:
REMARK  status: ('A' for Active; 'I' for Inactive)
REMARK    1  A    between atoms: C_1  and  C_2
REMARK    2  A    between atoms: C_2  and  N_3
REMARK    3  A    between atoms: C_5  and  C_6
REMARK    4  A    between atoms: C_6  and  O_7
REMARK    5  A    between atoms: C_15  and  N_16
REMARK    6  A    between atoms: C_20  and  C_21
REMARK                            x       y       z     vdW  Elec       q    Type
REMARK                         _______ _______ _______ _____ _____    ______ ____
ROOT
ATOM      1  N   UNL     1       8.080  -0.692  25.901  0.00  0.00    -0.344 N 
ATOM      2  C   UNL     1       8.644   0.044  24.826  0.00  0.00    +0.090 A 
ATOM      3  C   UNL     1       9.437  -0.638  23.881  0.00  0.00    +0.052 A 
ATOM      4  C   UNL     1      10.033   0.028  22.808  0.00  0.00    +0.054 A 
ATOM      5  C   UNL     1       9.842   1.397  22.651  0.00  0.00    +0.148 A 
ATOM      6  C   UNL     1       9.064   2.157  23.539  0.00  0.00    +0.103 A 
ATOM      7  F   UNL     1      10.404   1.968  21.573  0.00  0.00    -0.203 F 
ATOM      8  C   UNL     1       9.666  -2.097  24.015  0.00  0.00    +0.204 A 
ATOM      9  O   UNL     1      10.355  -2.720  23.208  0.00  0.00    -0.286 OA
ATOM     10  C   UNL     1       9.050  -2.802  25.153  0.00  0.00    +0.122 A 
ATOM     11  C   UNL     1       8.482   1.438  24.616  0.00  0.00    +0.171 A 
ATOM     12  F   UNL     1       7.782   2.152  25.514  0.00  0.00    -0.201 F 
ATOM     13  C   UNL     1       8.324  -2.058  25.995  0.00  0.00    +0.105 A 
ENDROOT
BRANCH   6  14
ATOM     14  N   UNL     1       8.890   3.526  23.396  0.00  0.00    -0.323 N 
ATOM     15  C   UNL     1       9.809   4.513  23.991  0.00  0.00    +0.123 C 
ATOM     16  C   UNL     1       9.035   5.445  24.975  0.00  0.00    +0.068 C 
ATOM     17  C   UNL     1       9.951   6.559  25.480  0.00  0.00    +0.025 C 
ATOM     18  N   UNL     1       7.825   6.061  24.383  0.00  0.00    -0.311 NA
ATOM     19  H   UNL     1       7.309   6.557  25.109  0.00  0.00    +0.122 HD
ATOM     20  C   UNL     1       6.957   5.012  23.808  0.00  0.00    +0.100 C 
ATOM     21  C   UNL     1       7.695   4.126  22.784  0.00  0.00    +0.120 C 
ENDBRANCH   6  14
BRANCH   1  23
ATOM     22  C   UNL     1       5.872  -0.344  26.949  0.00  0.00    +0.027 C 
ATOM     23  C   UNL     1       7.356  -0.001  26.986  0.00  0.00    +0.118 C 
ENDBRANCH   1  23
BRANCH  10  24
ATOM     24  C   UNL     1       9.202  -4.249  25.412  0.00  0.00    +0.342 C 
ATOM     25  O   UNL     1       9.418  -4.715  26.522  0.00  0.00    -0.245 OA
BRANCH  24  26
ATOM     26  O   UNL     1       9.082  -5.030  24.316  0.00  0.00    -0.477 OA
ATOM     27  H   UNL     1       9.153  -4.538  23.462  0.00  0.00    +0.295 HD
ENDBRANCH  24  26
ENDBRANCH  10  24
TORSDOF 4
ENDMDL
MODEL 6
REMARK VINA RESULT:      -6.8      3.880      6.854
REMARK  Name = 
REMARK  6 active torsions:
REMARK  status: ('A' for Active; 'I' for Inactive)
REMARK    1  A    between atoms: C_1  and  C_2
REMARK    2  A    between atoms: C_2  and  N_3
REMARK    3  A    between atoms: C_5  and  C_6
REMARK    4  A    between atoms: C_6  and  O_7
REMARK    5  A    between atoms: C_15  and  N_16
REMARK    6  A    between atoms: C_20  and  C_21
REMARK                            x       y       z     vdW  Elec       q    Type
REMARK                         _______ _______ _______ _____ _____    ______ ____
ROOT
ATOM      1  N   UNL     1       7.780   1.636  25.310  0.00  0.00    -0.344 N 
ATOM      2  C   UNL     1       8.544   0.686  24.582  0.00  0.00    +0.090 A 
ATOM      3  C   UNL     1       9.599   1.147  23.769  0.00  0.00    +0.052 A 
ATOM      4  C   UNL     1      10.380   0.269  23.015  0.00  0.00    +0.054 A 
ATOM      5  C   UNL     1      10.127  -1.098  23.064  0.00  0.00    +0.148 A 
ATOM      6  C   UNL     1       9.101  -1.648  23.849  0.00  0.00    +0.103 A 
ATOM      7  F   UNL     1      10.944  -1.892  22.352  0.00  0.00    -0.203 F 
ATOM      8  C   UNL     1       9.899   2.598  23.688  0.00  0.00    +0.204 A 
ATOM      9  O   UNL     1      10.811   3.031  22.985  0.00  0.00    -0.286 OA
ATOM     10  C   UNL     1       9.069   3.530  24.471  0.00  0.00    +0.122 A 
ATOM     11  C   UNL     1       8.332  -0.716  24.595  0.00  0.00    +0.171 A 
ATOM     12  F   UNL     1       7.305  -1.211  25.308  0.00  0.00    -0.201 F 
ATOM     13  C   UNL     1       8.088   2.988  25.203  0.00  0.00    +0.105 A 
ENDROOT
BRANCH   6  14
ATOM     14  N   UNL     1       8.833  -3.009  23.883  0.00  0.00    -0.323 N 
ATOM     15  C   UNL     1       7.791  -3.637  23.051  0.00  0.00    +0.123 C 
ATOM     16  C   UNL     1       6.731  -4.340  23.955  0.00  0.00    +0.068 C 
ATOM     17  C   UNL     1       5.733  -5.115  23.097  0.00  0.00    +0.025 C 
ATOM     18  N   UNL     1       7.319  -5.267  24.950  0.00  0.00    -0.311 NA
ATOM     19  H   UNL     1       6.587  -5.597  25.578  0.00  0.00    +0.122 HD
ATOM     20  C   UNL     1       8.352  -4.567  25.741  0.00  0.00    +0.100 C 
ATOM     21  C   UNL     1       9.442  -3.925  24.859  0.00  0.00    +0.120 C 
ENDBRANCH   6  14
BRANCH   1  23
ATOM     22  C   UNL     1       5.313   1.555  25.299  0.00  0.00    +0.027 C 
ATOM     23  C   UNL     1       6.584   1.216  26.068  0.00  0.00    +0.118 C 
ENDBRANCH   1  23
BRANCH  10  24
ATOM     24  C   UNL     1       9.250   4.996  24.477  0.00  0.00    +0.342 C 
ATOM     25  O   UNL     1       9.142   5.684  25.483  0.00  0.00    -0.245 OA
BRANCH  24  26
ATOM     26  O   UNL     1       9.553   5.528  23.272  0.00  0.00    -0.477 OA
ATOM     27  H   UNL     1      10.179   6.291  23.314  0.00  0.00    +0.295 HD
ENDBRANCH  24  26
ENDBRANCH  10  24
TORSDOF 4
ENDMDL
MODEL 7
REMARK VINA RESULT:      -6.7      4.145      7.029
REMARK  Name = 
REMARK  6 active torsions:
REMARK  status: ('A' for Active; 'I' for Inactive)
REMARK    1  A    between atoms: C_1  and  C_2
REMARK    2  A    between atoms: C_2  and  N_3
REMARK    3  A    between atoms: C_5  and  C_6
REMARK    4  A    between atoms: C_6  and  O_7
REMARK    5  A    between atoms: C_15  and  N_16
REMARK    6  A    between atoms: C_20  and  C_21
REMARK                            x       y       z     vdW  Elec       q    Type
REMARK                         _______ _______ _______ _____ _____    ______ ____
ROOT
ATOM      1  N   UNL     1       7.959   3.134  25.186  0.00  0.00    -0.344 N 
ATOM      2  C   UNL     1       8.581   1.984  24.633  0.00  0.00    +0.090 A 
ATOM      3  C   UNL     1       9.756   2.150  23.871  0.00  0.00    +0.052 A 
ATOM      4  C   UNL     1      10.410   1.063  23.287  0.00  0.00    +0.054 A 
ATOM      5  C   UNL     1       9.906  -0.221  23.459  0.00  0.00    +0.148 A 
ATOM      6  C   UNL     1       8.746  -0.484  24.206  0.00  0.00    +0.103 A 
ATOM      7  F   UNL     1      10.608  -1.227  22.911  0.00  0.00    -0.203 F 
ATOM      8  C   UNL     1      10.323   3.505  23.662  0.00  0.00    +0.204 A 
ATOM      9  O   UNL     1      11.344   3.682  23.000  0.00  0.00    -0.286 OA
ATOM     10  C   UNL     1       9.629   4.656  24.265  0.00  0.00    +0.122 A 
ATOM     11  C   UNL     1       8.113   0.652  24.777  0.00  0.00    +0.171 A 
ATOM     12  F   UNL     1       6.968   0.436  25.446  0.00  0.00    -0.201 F 
ATOM     13  C   UNL     1       8.518   4.387  24.962  0.00  0.00    +0.105 A 
ENDROOT
BRANCH   6  14
ATOM     14  N   UNL     1       8.230  -1.762  24.361  0.00  0.00    -0.323 N 
ATOM     15  C   UNL     1       8.763  -2.722  25.345  0.00  0.00    +0.123 C 
ATOM     16  C   UNL     1       9.269  -4.009  24.621  0.00  0.00    +0.068 C 
ATOM     17  C   UNL     1       9.685  -5.064  25.646  0.00  0.00    +0.025 C 
ATOM     18  N   UNL     1       8.272  -4.608  23.705  0.00  0.00    -0.311 NA
ATOM     19  H   UNL     1       8.707  -5.368  23.182  0.00  0.00    +0.122 HD
ATOM     20  C   UNL     1       7.786  -3.587  22.754  0.00  0.00    +0.100 C 
ATOM     21  C   UNL     1       7.221  -2.338  23.460  0.00  0.00    +0.120 C 
ENDBRANCH   6  14
BRANCH   1  23
ATOM     22  C   UNL     1       6.812   3.309  27.364  0.00  0.00    +0.027 C 
ATOM     23  C   UNL     1       6.658   3.025  25.876  0.00  0.00    +0.118 C 
ENDBRANCH   1  23
BRANCH  10  24
ATOM     24  C   UNL     1      10.077   6.057  24.131  0.00  0.00    +0.342 C 
ATOM     25  O   UNL     1       9.320   6.987  23.888  0.00  0.00    -0.245 OA
BRANCH  24  26
ATOM     26  O   UNL     1      11.405   6.239  24.300  0.00  0.00    -0.477 OA
ATOM     27  H   UNL     1      11.711   6.133  25.234  0.00  0.00    +0.295 HD
ENDBRANCH  24  26
ENDBRANCH  10  24
TORSDOF 4
ENDMDL
MODEL 8
REMARK VINA RESULT:      -6.6      3.382      6.973
REMARK  Name = 
REMARK  6 active torsions:
REMARK  status: ('A' for Active; 'I' for Inactive)
REMARK    1  A    between atoms: C_1  and  C_2
REMARK    2  A    between atoms: C_2  and  N_3
REMARK    3  A    between atoms: C_5  and  C_6
REMARK    4  A    between atoms: C_6  and  O_7
REMARK    5  A    between atoms: C_15  and  N_16
REMARK    6  A    between atoms: C_20  and  C_21
REMARK                            x       y       z     vdW  Elec       q    Type
REMARK                         _______ _______ _______ _____ _____    ______ ____
ROOT
ATOM      1  N   UNL     1       8.343   0.056  25.376  0.00  0.00    -0.344 N 
ATOM      2  C   UNL     1       8.164  -1.214  24.767  0.00  0.00    +0.090 A 
ATOM      3  C   UNL     1       8.674  -1.420  23.468  0.00  0.00    +0.052 A 
ATOM      4  C   UNL     1       8.519  -2.640  22.806  0.00  0.00    +0.054 A 
ATOM      5  C   UNL     1       7.857  -3.689  23.434  0.00  0.00    +0.148 A 
ATOM      6  C   UNL     1       7.322  -3.578  24.728  0.00  0.00    +0.103 A 
ATOM      7  F   UNL     1       7.784  -4.850  22.763  0.00  0.00    -0.203 F 
ATOM      8  C   UNL     1       9.384  -0.325  22.764  0.00  0.00    +0.204 A 
ATOM      9  O   UNL     1       9.837  -0.473  21.630  0.00  0.00    -0.286 OA
ATOM     10  C   UNL     1       9.537   0.969  23.453  0.00  0.00    +0.122 A 
ATOM     11  C   UNL     1       7.499  -2.318  25.360  0.00  0.00    +0.171 A 
ATOM     12  F   UNL     1       6.945  -2.165  26.575  0.00  0.00    -0.201 F 
ATOM     13  C   UNL     1       9.009   1.059  24.680  0.00  0.00    +0.105 A 
ENDROOT
BRANCH   6  14
ATOM     14  N   UNL     1       6.642  -4.616  25.348  0.00  0.00    -0.323 N 
ATOM     15  C   UNL     1       5.203  -4.859  25.146  0.00  0.00    +0.123 C 
ATOM     16  C   UNL     1       4.445  -4.774  26.508  0.00  0.00    +0.068 C 
ATOM     17  C   UNL     1       2.980  -5.170  26.325  0.00  0.00    +0.025 C 
ATOM     18  N   UNL     1       5.034  -5.622  27.570  0.00  0.00    -0.311 NA
ATOM     19  H   UNL     1       4.566  -5.428  28.455  0.00  0.00    +0.122 HD
ATOM     20  C   UNL     1       6.474  -5.322  27.712  0.00  0.00    +0.100 C 
ATOM     21  C   UNL     1       7.245  -5.468  26.384  0.00  0.00    +0.120 C 
ENDBRANCH   6  14
BRANCH   1  23
ATOM     22  C   UNL     1       6.493   1.254  26.487  0.00  0.00    +0.027 C 
ATOM     23  C   UNL     1       7.713   0.361  26.675  0.00  0.00    +0.118 C 
ENDBRANCH   1  23
BRANCH  10  24
ATOM     24  C   UNL     1      10.213   2.144  22.868  0.00  0.00    +0.342 C 
ATOM     25  O   UNL     1      10.900   2.920  23.518  0.00  0.00    -0.245 OA
BRANCH  24  26
ATOM     26  O   UNL     1      10.016   2.299  21.540  0.00  0.00    -0.477 OA
ATOM     27  H   UNL     1       9.241   2.868  21.311  0.00  0.00    +0.295 HD
ENDBRANCH  24  26
ENDBRANCH  10  24
TORSDOF 4
ENDMDL
MODEL 9
REMARK VINA RESULT:      -6.6      3.798      7.210
REMARK  Name = 
REMARK  6 active torsions:
REMARK  status: ('A' for Active; 'I' for Inactive)
REMARK    1  A    between atoms: C_1  and  C_2
REMARK    2  A    between atoms: C_2  and  N_3
REMARK    3  A    between atoms: C_5  and  C_6
REMARK    4  A    between atoms: C_6  and  O_7
REMARK    5  A    between atoms: C_15  and  N_16
REMARK    6  A    between atoms: C_20  and  C_21
REMARK                            x       y       z     vdW  Elec       q    Type
REMARK                         _______ _______ _______ _____ _____    ______ ____
ROOT
ATOM      1  N   UNL     1       6.934   0.496  24.269  0.00  0.00    -0.344 N 
ATOM      2  C   UNL     1       7.044  -0.893  23.994  0.00  0.00    +0.090 A 
ATOM      3  C   UNL     1       8.180  -1.358  23.301  0.00  0.00    +0.052 A 
ATOM      4  C   UNL     1       8.345  -2.709  22.986  0.00  0.00    +0.054 A 
ATOM      5  C   UNL     1       7.375  -3.630  23.367  0.00  0.00    +0.148 A 
ATOM      6  C   UNL     1       6.215  -3.260  24.066  0.00  0.00    +0.103 A 
ATOM      7  F   UNL     1       7.616  -4.919  23.076  0.00  0.00    -0.203 F 
ATOM      8  C   UNL     1       9.234  -0.405  22.875  0.00  0.00    +0.204 A 
ATOM      9  O   UNL     1      10.235  -0.780  22.266  0.00  0.00    -0.286 OA
ATOM     10  C   UNL     1       9.059   1.023  23.193  0.00  0.00    +0.122 A 
ATOM     11  C   UNL     1       6.089  -1.877  24.360  0.00  0.00    +0.171 A 
ATOM     12  F   UNL     1       4.959  -1.487  24.975  0.00  0.00    -0.201 F 
ATOM     13  C   UNL     1       7.941   1.357  23.847  0.00  0.00    +0.105 A 
ENDROOT
BRANCH   6  14
ATOM     14  N   UNL     1       5.237  -4.175  24.429  0.00  0.00    -0.323 N 
ATOM     15  C   UNL     1       5.098  -4.690  25.803  0.00  0.00    +0.123 C 
ATOM     16  C   UNL     1       5.255  -6.243  25.815  0.00  0.00    +0.068 C 
ATOM     17  C   UNL     1       4.966  -6.794  27.210  0.00  0.00    +0.025 C 
ATOM     18  N   UNL     1       4.380  -6.937  24.842  0.00  0.00    -0.311 NA
ATOM     19  H   UNL     1       4.618  -7.928  24.820  0.00  0.00    +0.122 HD
ATOM     20  C   UNL     1       4.575  -6.366  23.493  0.00  0.00    +0.100 C 
ATOM     21  C   UNL     1       4.356  -4.840  23.457  0.00  0.00    +0.120 C 
ENDBRANCH   6  14
BRANCH   1  23
ATOM     22  C   UNL     1       5.225   2.269  24.098  0.00  0.00    +0.027 C 
ATOM     23  C   UNL     1       5.704   1.047  24.871  0.00  0.00    +0.118 C 
ENDBRANCH   1  23
BRANCH  10  24
ATOM     24  C   UNL     1      10.024   2.079  22.822  0.00  0.00    +0.342 C 
ATOM     25  O   UNL     1      10.587   2.793  23.639  0.00  0.00    -0.245 OA
BRANCH  24  26
ATOM     26  O   UNL     1      10.243   2.195  21.494  0.00  0.00    -0.477 OA
ATOM     27  H   UNL     1       9.891   1.442  20.959  0.00  0.00    +0.295 HD
ENDBRANCH  24  26
ENDBRANCH  10  24
TORSDOF 4
ENDMDL
