MODEL 1
REMARK VINA RESULT:      -6.0      0.000      0.000
REMARK  Name = 
REMARK  5 active torsions:
REMARK  status: ('A' for Active; 'I' for Inactive)
REMARK    1  A    between atoms: C_1  and  N_2
REMARK    2  A    between atoms: C_4  and  C_7
REMARK    3  A    between atoms: C_11  and  C_17
REMARK    4  A    between atoms: C_14  and  C_15
REMARK    5  A    between atoms: C_17  and  O_18
REMARK                            x       y       z     vdW  Elec       q    Type
REMARK                         _______ _______ _______ _____ _____    ______ ____
ROOT
ATOM      1  C   UNK     1       6.497  -4.074  24.317  0.00  0.00    +0.137 C 
ATOM      2  C   UNK     1       6.053  -4.633  22.986  0.00  0.00    +0.025 C 
ATOM      3  C   UNK     1       5.412  -5.781  22.702  0.00  0.00    +0.080 C 
ATOM      4  N   UNK     1       4.890  -6.780  23.494  0.00  0.00    -0.314 N 
ATOM      5  H   UNK     1       4.219  -7.374  22.991  0.00  0.00    +0.152 HD
ATOM      6  C   UNK     1       4.606  -6.757  24.854  0.00  0.00    +0.122 C 
ATOM      7  C   UNK     1       5.237  -6.074  25.823  0.00  0.00    +0.072 C 
ATOM      8  S   UNK     1       6.779  -5.324  25.626  0.00  0.00    -0.116 S 
ENDROOT
BRANCH   1  13
ATOM      9  C   UNK     1      10.183  -0.646  24.235  0.00  0.00    +0.174 C 
ATOM     10  N   UNK     1       9.376  -1.834  24.166  0.00  0.00    -0.254 N 
ATOM     11  N   UNK     1       9.949  -3.040  24.025  0.00  0.00    -0.066 NA
ATOM     12  N   UNK     1       8.984  -3.949  24.053  0.00  0.00    -0.133 NA
ATOM     13  C   UNK     1       7.784  -3.298  24.207  0.00  0.00    +0.100 A 
ATOM     14  C   UNK     1       8.024  -1.938  24.277  0.00  0.00    +0.134 A 
ENDBRANCH   1  13
BRANCH   2  15
ATOM     15  C   UNK     1       6.286  -3.750  21.796  0.00  0.00    +0.257 C 
ATOM     16  O   UNK     1       5.653  -3.836  20.750  0.00  0.00    -0.296 OA
ENDBRANCH   2  15
BRANCH   6  17
ATOM     17  C   UNK     1       3.423  -7.604  25.250  0.00  0.00    +0.352 C 
ATOM     18  O   UNK     1       2.883  -8.359  24.453  0.00  0.00    -0.244 OA
BRANCH  17  19
ATOM     19  O   UNK     1       3.075  -7.552  26.553  0.00  0.00    -0.476 OA
ATOM     20  H   UNK     1       3.259  -8.363  27.063  0.00  0.00    +0.295 HD
ENDBRANCH  17  19
ENDBRANCH   6  17
TORSDOF 4
ENDMDL
MODEL 2
REMARK VINA RESULT:      -5.8      2.316      2.958
REMARK  Name = 
REMARK  5 active torsions:
REMARK  status: ('A' for Active; 'I' for Inactive)
REMARK    1  A    between atoms: C_1  and  N_2
REMARK    2  A    between atoms: C_4  and  C_7
REMARK    3  A    between atoms: C_11  and  C_17
REMARK    4  A    between atoms: C_14  and  C_15
REMARK    5  A    between atoms: C_17  and  O_18
REMARK                            x       y       z     vdW  Elec       q    Type
REMARK                         _______ _______ _______ _____ _____    ______ ____
ROOT
ATOM      1  C   UNK     1       7.928  -3.566  23.342  0.00  0.00    +0.137 C 
ATOM      2  C   UNK     1       7.947  -4.364  24.624  0.00  0.00    +0.025 C 
ATOM      3  C   UNK     1       6.959  -5.042  25.234  0.00  0.00    +0.080 C 
ATOM      4  N   UNK     1       5.652  -5.300  24.887  0.00  0.00    -0.314 N 
ATOM      5  H   UNK     1       5.247  -6.079  25.423  0.00  0.00    +0.152 HD
ATOM      6  C   UNK     1       5.039  -5.184  23.645  0.00  0.00    +0.122 C 
ATOM      7  C   UNK     1       5.314  -4.312  22.662  0.00  0.00    +0.072 C 
ATOM      8  S   UNK     1       6.287  -2.902  22.868  0.00  0.00    -0.116 S 
ENDROOT
BRANCH   1  13
ATOM      9  C   UNK     1      10.441   0.664  24.411  0.00  0.00    +0.174 C 
ATOM     10  N   UNK     1       9.936  -0.559  23.846  0.00  0.00    -0.254 N 
ATOM     11  N   UNK     1      10.605  -1.183  22.864  0.00  0.00    -0.066 NA
ATOM     12  N   UNK     1       9.953  -2.303  22.582  0.00  0.00    -0.133 NA
ATOM     13  C   UNK     1       8.850  -2.375  23.399  0.00  0.00    +0.100 A 
ATOM     14  C   UNK     1       8.828  -1.258  24.213  0.00  0.00    +0.134 A 
ENDBRANCH   1  13
BRANCH   2  15
ATOM     15  C   UNK     1       9.284  -4.494  25.293  0.00  0.00    +0.257 C 
ATOM     16  O   UNK     1      10.182  -5.221  24.885  0.00  0.00    -0.296 OA
ENDBRANCH   2  15
BRANCH   6  17
ATOM     17  C   UNK     1       3.943  -6.192  23.403  0.00  0.00    +0.352 C 
ATOM     18  O   UNK     1       2.963  -5.918  22.724  0.00  0.00    -0.244 OA
BRANCH  17  19
ATOM     19  O   UNK     1       4.169  -7.430  23.889  0.00  0.00    -0.476 OA
ATOM     20  H   UNK     1       4.134  -7.506  24.860  0.00  0.00    +0.295 HD
ENDBRANCH  17  19
ENDBRANCH   6  17
TORSDOF 4
ENDMDL
MODEL 3
REMARK VINA RESULT:      -5.8      3.640      7.064
REMARK  Name = 
REMARK  5 active torsions:
REMARK  status: ('A' for Active; 'I' for Inactive)
REMARK    1  A    between atoms: C_1  and  N_2
REMARK    2  A    between atoms: C_4  and  C_7
REMARK    3  A    between atoms: C_11  and  C_17
REMARK    4  A    between atoms: C_14  and  C_15
REMARK    5  A    between atoms: C_17  and  O_18
REMARK                            x       y       z     vdW  Elec       q    Type
REMARK                         _______ _______ _______ _____ _____    ______ ____
ROOT
ATOM      1  C   UNK     1       8.919  -2.099  24.942  0.00  0.00    +0.137 C 
ATOM      2  C   UNK     1       8.246  -2.075  23.591  0.00  0.00    +0.025 C 
ATOM      3  C   UNK     1       8.053  -1.051  22.740  0.00  0.00    +0.080 C 
ATOM      4  N   UNK     1       8.446   0.269  22.764  0.00  0.00    -0.314 N 
ATOM      5  H   UNK     1       8.385   0.716  21.840  0.00  0.00    +0.152 HD
ATOM      6  C   UNK     1       9.425   0.875  23.542  0.00  0.00    +0.122 C 
ATOM      7  C   UNK     1       9.814   0.552  24.786  0.00  0.00    +0.072 C 
ATOM      8  S   UNK     1       8.928  -0.498  25.831  0.00  0.00    -0.116 S 
ENDROOT
BRANCH   1  13
ATOM      9  C   UNK     1       5.879  -4.809  27.902  0.00  0.00    +0.174 C 
ATOM     10  N   UNK     1       6.979  -4.257  27.158  0.00  0.00    -0.254 N 
ATOM     11  N   UNK     1       8.139  -4.924  27.059  0.00  0.00    -0.066 NA
ATOM     12  N   UNK     1       8.943  -4.220  26.275  0.00  0.00    -0.133 NA
ATOM     13  C   UNK     1       8.274  -3.086  25.882  0.00  0.00    +0.100 A 
ATOM     14  C   UNK     1       7.012  -3.098  26.447  0.00  0.00    +0.134 A 
ENDBRANCH   1  13
BRANCH   2  15
ATOM     15  C   UNK     1       7.783  -3.402  23.067  0.00  0.00    +0.257 C 
ATOM     16  O   UNK     1       6.891  -3.534  22.239  0.00  0.00    -0.296 OA
ENDBRANCH   2  15
BRANCH   6  17
ATOM     17  C   UNK     1      10.127   2.024  22.863  0.00  0.00    +0.352 C 
ATOM     18  O   UNK     1      10.827   2.806  23.493  0.00  0.00    -0.244 OA
BRANCH  17  19
ATOM     19  O   UNK     1      10.020   2.064  21.519  0.00  0.00    -0.476 OA
ATOM     20  H   UNK     1       9.245   2.549  21.180  0.00  0.00    +0.295 HD
ENDBRANCH  17  19
ENDBRANCH   6  17
TORSDOF 4
ENDMDL
MODEL 4
REMARK VINA RESULT:      -5.7      3.442      7.056
REMARK  Name = 
REMARK  5 active torsions:
REMARK  status: ('A' for Active; 'I' for Inactive)
REMARK    1  A    between atoms: C_1  and  N_2
REMARK    2  A    between atoms: C_4  and  C_7
REMARK    3  A    between atoms: C_11  and  C_17
REMARK    4  A    between atoms: C_14  and  C_15
REMARK    5  A    between atoms: C_17  and  O_18
REMARK                            x       y       z     vdW  Elec       q    Type
REMARK                         _______ _______ _______ _____ _____    ______ ____
ROOT
ATOM      1  C   UNK     1       7.594  -2.686  24.131  0.00  0.00    +0.137 C 
ATOM      2  C   UNK     1       9.079  -2.955  24.195  0.00  0.00    +0.025 C 
ATOM      3  C   UNK     1      10.103  -2.283  23.638  0.00  0.00    +0.080 C 
ATOM      4  N   UNK     1      10.166  -1.120  22.903  0.00  0.00    -0.314 N 
ATOM      5  H   UNK     1      11.115  -0.725  22.870  0.00  0.00    +0.152 HD
ATOM      6  C   UNK     1       9.210  -0.122  22.764  0.00  0.00    +0.122 C 
ATOM      7  C   UNK     1       7.873  -0.243  22.787  0.00  0.00    +0.072 C 
ATOM      8  S   UNK     1       7.040  -1.749  22.658  0.00  0.00    -0.116 S 
ENDROOT
BRANCH   1  13
ATOM      9  C   UNK     1       4.559  -6.584  25.104  0.00  0.00    +0.174 C 
ATOM     10  N   UNK     1       5.487  -5.640  24.542  0.00  0.00    -0.254 N 
ATOM     11  N   UNK     1       5.889  -5.756  23.266  0.00  0.00    -0.066 NA
ATOM     12  N   UNK     1       6.683  -4.728  23.001  0.00  0.00    -0.133 NA
ATOM     13  C   UNK     1       6.786  -3.959  24.134  0.00  0.00    +0.100 A 
ATOM     14  C   UNK     1       6.023  -4.538  25.132  0.00  0.00    +0.134 A 
ENDBRANCH   1  13
BRANCH   2  15
ATOM     15  C   UNK     1       9.500  -4.097  25.071  0.00  0.00    +0.257 C 
ATOM     16  O   UNK     1       9.929  -5.161  24.644  0.00  0.00    -0.296 OA
ENDBRANCH   2  15
BRANCH   6  17
ATOM     17  C   UNK     1       9.786   1.261  22.584  0.00  0.00    +0.352 C 
ATOM     18  O   UNK     1      10.479   1.782  23.448  0.00  0.00    -0.244 OA
BRANCH  17  19
ATOM     19  O   UNK     1       9.576   1.830  21.378  0.00  0.00    -0.476 OA
ATOM     20  H   UNK     1      10.260   1.644  20.709  0.00  0.00    +0.295 HD
ENDBRANCH  17  19
ENDBRANCH   6  17
TORSDOF 4
ENDMDL
MODEL 5
REMARK VINA RESULT:      -5.7      3.478      4.454
REMARK  Name = 
REMARK  5 active torsions:
REMARK  status: ('A' for Active; 'I' for Inactive)
REMARK    1  A    between atoms: C_1  and  N_2
REMARK    2  A    between atoms: C_4  and  C_7
REMARK    3  A    between atoms: C_11  and  C_17
REMARK    4  A    between atoms: C_14  and  C_15
REMARK    5  A    between atoms: C_17  and  O_18
REMARK                            x       y       z     vdW  Elec       q    Type
REMARK                         _______ _______ _______ _____ _____    ______ ____
ROOT
ATOM      1  C   UNK     1       7.984  -1.123  24.507  0.00  0.00    +0.137 C 
ATOM      2  C   UNK     1       8.914  -2.126  23.867  0.00  0.00    +0.025 C 
ATOM      3  C   UNK     1       9.266  -3.359  24.274  0.00  0.00    +0.080 C 
ATOM      4  N   UNK     1       8.867  -4.141  25.335  0.00  0.00    -0.314 N 
ATOM      5  H   UNK     1       9.108  -5.133  25.207  0.00  0.00    +0.152 HD
ATOM      6  C   UNK     1       7.748  -4.005  26.147  0.00  0.00    +0.122 C 
ATOM      7  C   UNK     1       7.120  -2.877  26.514  0.00  0.00    +0.072 C 
ATOM      8  S   UNK     1       7.786  -1.296  26.320  0.00  0.00    -0.116 S 
ENDROOT
BRANCH   1  13
ATOM      9  C   UNK     1       8.504   3.745  23.330  0.00  0.00    +0.174 C 
ATOM     10  N   UNK     1       8.671   2.388  23.776  0.00  0.00    -0.254 N 
ATOM     11  N   UNK     1       9.742   2.037  24.506  0.00  0.00    -0.066 NA
ATOM     12  N   UNK     1       9.608   0.757  24.826  0.00  0.00    -0.133 NA
ATOM     13  C   UNK     1       8.435   0.298  24.278  0.00  0.00    +0.100 A 
ATOM     14  C   UNK     1       7.827   1.337  23.598  0.00  0.00    +0.134 A 
ENDBRANCH   1  13
BRANCH   2  15
ATOM     15  C   UNK     1       9.481  -1.735  22.535  0.00  0.00    +0.257 C 
ATOM     16  O   UNK     1      10.675  -1.779  22.264  0.00  0.00    -0.296 OA
ENDBRANCH   2  15
BRANCH   6  17
ATOM     17  C   UNK     1       7.187  -5.314  26.647  0.00  0.00    +0.352 C 
ATOM     18  O   UNK     1       6.198  -5.821  26.135  0.00  0.00    -0.244 OA
BRANCH  17  19
ATOM     19  O   UNK     1       7.906  -5.929  27.609  0.00  0.00    -0.476 OA
ATOM     20  H   UNK     1       7.736  -5.615  28.516  0.00  0.00    +0.295 HD
ENDBRANCH  17  19
ENDBRANCH   6  17
TORSDOF 4
ENDMDL
MODEL 6
REMARK VINA RESULT:      -5.7      4.628      6.794
REMARK  Name = 
REMARK  5 active torsions:
REMARK  status: ('A' for Active; 'I' for Inactive)
REMARK    1  A    between atoms: C_1  and  N_2
REMARK    2  A    between atoms: C_4  and  C_7
REMARK    3  A    between atoms: C_11  and  C_17
REMARK    4  A    between atoms: C_14  and  C_15
REMARK    5  A    between atoms: C_17  and  O_18
REMARK                            x       y       z     vdW  Elec       q    Type
REMARK                         _______ _______ _______ _____ _____    ______ ____
ROOT
ATOM      1  C   UNK     1       9.307   1.367  23.761  0.00  0.00    +0.137 C 
ATOM      2  C   UNK     1       8.949   0.854  22.387  0.00  0.00    +0.025 C 
ATOM      3  C   UNK     1       9.026  -0.391  21.883  0.00  0.00    +0.080 C 
ATOM      4  N   UNK     1       9.376  -1.602  22.437  0.00  0.00    -0.314 N 
ATOM      5  H   UNK     1       9.061  -2.401  21.871  0.00  0.00    +0.152 HD
ATOM      6  C   UNK     1       9.472  -1.954  23.778  0.00  0.00    +0.122 C 
ATOM      7  C   UNK     1       9.818  -1.177  24.817  0.00  0.00    +0.072 C 
ATOM      8  S   UNK     1      10.558   0.374  24.658  0.00  0.00    -0.116 S 
ENDROOT
BRANCH   1  13
ATOM      9  C   UNK     1      10.202   6.310  24.107  0.00  0.00    +0.174 C 
ATOM     10  N   UNK     1      10.248   4.894  23.860  0.00  0.00    -0.254 N 
ATOM     11  N   UNK     1      11.384   4.310  23.447  0.00  0.00    -0.066 NA
ATOM     12  N   UNK     1      11.158   3.006  23.360  0.00  0.00    -0.133 NA
ATOM     13  C   UNK     1       9.853   2.772  23.720  0.00  0.00    +0.100 A 
ATOM     14  C   UNK     1       9.258   3.979  24.039  0.00  0.00    +0.134 A 
ENDBRANCH   1  13
BRANCH   2  15
ATOM     15  C   UNK     1       8.340   1.857  21.453  0.00  0.00    +0.257 C 
ATOM     16  O   UNK     1       7.180   2.242  21.527  0.00  0.00    -0.296 OA
ENDBRANCH   2  15
BRANCH   6  17
ATOM     17  C   UNK     1       9.118  -3.392  24.064  0.00  0.00    +0.352 C 
ATOM     18  O   UNK     1       9.911  -4.147  24.611  0.00  0.00    -0.244 OA
BRANCH  17  19
ATOM     19  O   UNK     1       7.849  -3.751  23.778  0.00  0.00    -0.476 OA
ATOM     20  H   UNK     1       7.163  -3.136  24.097  0.00  0.00    +0.295 HD
ENDBRANCH  17  19
ENDBRANCH   6  17
TORSDOF 4
ENDMDL
MODEL 7
REMARK VINA RESULT:      -5.6      3.942      7.576
REMARK  Name = 
REMARK  5 active torsions:
REMARK  status: ('A' for Active; 'I' for Inactive)
REMARK    1  A    between atoms: C_1  and  N_2
REMARK    2  A    between atoms: C_4  and  C_7
REMARK    3  A    between atoms: C_11  and  C_17
REMARK    4  A    between atoms: C_14  and  C_15
REMARK    5  A    between atoms: C_17  and  O_18
REMARK                            x       y       z     vdW  Elec       q    Type
REMARK                         _______ _______ _______ _____ _____    ______ ____
ROOT
ATOM      1  C   UNK     1       8.102  -1.446  22.989  0.00  0.00    +0.137 C 
ATOM      2  C   UNK     1       7.680  -0.844  24.307  0.00  0.00    +0.025 C 
ATOM      3  C   UNK     1       8.186   0.206  24.979  0.00  0.00    +0.080 C 
ATOM      4  N   UNK     1       9.181   1.111  24.683  0.00  0.00    -0.314 N 
ATOM      5  H   UNK     1       9.134   1.955  25.268  0.00  0.00    +0.152 HD
ATOM      6  C   UNK     1       9.768   1.393  23.455  0.00  0.00    +0.122 C 
ATOM      7  C   UNK     1       9.974   0.561  22.422  0.00  0.00    +0.072 C 
ATOM      8  S   UNK     1       9.852  -1.158  22.530  0.00  0.00    -0.116 S 
ENDROOT
BRANCH   1  13
ATOM      9  C   UNK     1       6.838  -6.228  22.047  0.00  0.00    +0.174 C 
ATOM     10  N   UNK     1       7.375  -5.000  22.567  0.00  0.00    -0.254 N 
ATOM     11  N   UNK     1       8.346  -5.019  23.494  0.00  0.00    -0.066 NA
ATOM     12  N   UNK     1       8.689  -3.762  23.742  0.00  0.00    -0.133 NA
ATOM     13  C   UNK     1       7.913  -2.942  22.960  0.00  0.00    +0.100 A 
ATOM     14  C   UNK     1       7.062  -3.727  22.203  0.00  0.00    +0.134 A 
ENDBRANCH   1  13
BRANCH   2  15
ATOM     15  C   UNK     1       6.463  -1.448  24.942  0.00  0.00    +0.257 C 
ATOM     16  O   UNK     1       5.326  -1.025  24.776  0.00  0.00    -0.296 OA
ENDBRANCH   2  15
BRANCH   6  17
ATOM     17  C   UNK     1      10.199   2.830  23.295  0.00  0.00    +0.352 C 
ATOM     18  O   UNK     1      11.358   3.173  23.484  0.00  0.00    -0.244 OA
BRANCH  17  19
ATOM     19  O   UNK     1       9.256   3.676  22.830  0.00  0.00    -0.476 OA
ATOM     20  H   UNK     1       9.247   3.794  21.862  0.00  0.00    +0.295 HD
ENDBRANCH  17  19
ENDBRANCH   6  17
TORSDOF 4
ENDMDL
MODEL 8
REMARK VINA RESULT:      -5.6      2.954      6.586
REMARK  Name = 
REMARK  5 active torsions:
REMARK  status: ('A' for Active; 'I' for Inactive)
REMARK    1  A    between atoms: C_1  and  N_2
REMARK    2  A    between atoms: C_4  and  C_7
REMARK    3  A    between atoms: C_11  and  C_17
REMARK    4  A    between atoms: C_14  and  C_15
REMARK    5  A    between atoms: C_17  and  O_18
REMARK                            x       y       z     vdW  Elec       q    Type
REMARK                         _______ _______ _______ _____ _____    ______ ____
ROOT
ATOM      1  C   UNK     1       5.388  -3.733  23.977  0.00  0.00    +0.137 C 
ATOM      2  C   UNK     1       6.422  -4.605  24.648  0.00  0.00    +0.025 C 
ATOM      3  C   UNK     1       7.755  -4.653  24.475  0.00  0.00    +0.080 C 
ATOM      4  N   UNK     1       8.624  -3.906  23.711  0.00  0.00    -0.314 N 
ATOM      5  H   UNK     1       9.602  -4.005  24.015  0.00  0.00    +0.152 HD
ATOM      6  C   UNK     1       8.417  -2.673  23.107  0.00  0.00    +0.122 C 
ATOM      7  C   UNK     1       7.273  -2.171  22.613  0.00  0.00    +0.072 C 
ATOM      8  S   UNK     1       5.857  -3.112  22.318  0.00  0.00    -0.116 S 
ENDROOT
BRANCH   1  13
ATOM      9  C   UNK     1       0.635  -5.393  24.055  0.00  0.00    +0.174 C 
ATOM     10  N   UNK     1       2.036  -5.172  23.816  0.00  0.00    -0.254 N 
ATOM     11  N   UNK     1       2.671  -5.826  22.831  0.00  0.00    -0.066 NA
ATOM     12  N   UNK     1       3.923  -5.388  22.800  0.00  0.00    -0.133 NA
ATOM     13  C   UNK     1       4.074  -4.448  23.790  0.00  0.00    +0.100 A 
ATOM     14  C   UNK     1       2.869  -4.304  24.452  0.00  0.00    +0.134 A 
ENDBRANCH   1  13
BRANCH   2  15
ATOM     15  C   UNK     1       5.911  -5.510  25.729  0.00  0.00    +0.257 C 
ATOM     16  O   UNK     1       6.631  -6.057  26.556  0.00  0.00    -0.296 OA
ENDBRANCH   2  15
BRANCH   6  17
ATOM     17  C   UNK     1       9.652  -1.810  23.029  0.00  0.00    +0.352 C 
ATOM     18  O   UNK     1      10.151  -1.318  24.033  0.00  0.00    -0.244 OA
BRANCH  17  19
ATOM     19  O   UNK     1      10.221  -1.710  21.810  0.00  0.00    -0.476 OA
ATOM     20  H   UNK     1      11.173  -1.917  21.779  0.00  0.00    +0.295 HD
ENDBRANCH  17  19
ENDBRANCH   6  17
TORSDOF 4
ENDMDL
MODEL 9
REMARK VINA RESULT:      -5.6      3.545      6.661
REMARK  Name = 
REMARK  5 active torsions:
REMARK  status: ('A' for Active; 'I' for Inactive)
REMARK    1  A    between atoms: C_1  and  N_2
REMARK    2  A    between atoms: C_4  and  C_7
REMARK    3  A    between atoms: C_11  and  C_17
REMARK    4  A    between atoms: C_14  and  C_15
REMARK    5  A    between atoms: C_17  and  O_18
REMARK                            x       y       z     vdW  Elec       q    Type
REMARK                         _______ _______ _______ _____ _____    ______ ____
ROOT
ATOM      1  C   UNK     1       8.571  -3.111  25.661  0.00  0.00    +0.137 C 
ATOM      2  C   UNK     1       8.281  -3.337  24.196  0.00  0.00    +0.025 C 
ATOM      3  C   UNK     1       8.291  -2.467  23.170  0.00  0.00    +0.080 C 
ATOM      4  N   UNK     1       8.624  -1.134  23.080  0.00  0.00    -0.314 N 
ATOM      5  H   UNK     1       8.798  -0.835  22.111  0.00  0.00    +0.152 HD
ATOM      6  C   UNK     1       9.342  -0.351  23.975  0.00  0.00    +0.122 C 
ATOM      7  C   UNK     1       9.395  -0.456  25.313  0.00  0.00    +0.072 C 
ATOM      8  S   UNK     1       8.295  -1.399  26.250  0.00  0.00    -0.116 S 
ENDROOT
BRANCH   1  13
ATOM      9  C   UNK     1       4.949  -5.425  28.284  0.00  0.00    +0.174 C 
ATOM     10  N   UNK     1       6.182  -4.992  27.683  0.00  0.00    -0.254 N 
ATOM     11  N   UNK     1       7.295  -5.733  27.799  0.00  0.00    -0.066 NA
ATOM     12  N   UNK     1       8.252  -5.133  27.104  0.00  0.00    -0.133 NA
ATOM     13  C   UNK     1       7.728  -3.991  26.549  0.00  0.00    +0.100 A 
ATOM     14  C   UNK     1       6.399  -3.889  26.918  0.00  0.00    +0.134 A 
ENDBRANCH   1  13
BRANCH   2  15
ATOM     15  C   UNK     1       8.014  -4.757  23.794  0.00  0.00    +0.257 C 
ATOM     16  O   UNK     1       7.437  -5.075  22.761  0.00  0.00    -0.296 OA
ENDBRANCH   2  15
BRANCH   6  17
ATOM     17  C   UNK     1      10.165   0.732  23.324  0.00  0.00    +0.352 C 
ATOM     18  O   UNK     1      10.167   0.890  22.110  0.00  0.00    -0.244 OA
BRANCH  17  19
ATOM     19  O   UNK     1      10.804   1.570  24.167  0.00  0.00    -0.476 OA
ATOM     20  H   UNK     1      10.970   1.212  25.059  0.00  0.00    +0.295 HD
ENDBRANCH  17  19
ENDBRANCH   6  17
TORSDOF 4
ENDMDL
