MODEL 1
REMARK VINA RESULT:      -6.2      0.000      0.000
REMARK  Name = 
REMARK  12 active torsions:
REMARK  status: ('A' for Active; 'I' for Inactive)
REMARK    1  A    between atoms: O_1  and  C_2
REMARK    2  A    between atoms: C_2  and  C_3
REMARK    3  A    between atoms: C_6  and  O_8
REMARK    4  A    between atoms: O_8  and  C_9
REMARK    5  A    between atoms: C_11  and  O_13
REMARK    6  A    between atoms: C_14  and  O_16
REMARK    7  A    between atoms: C_17  and  O_19
REMARK    8  A    between atoms: C_21  and  C_23
REMARK    9  A    between atoms: C_23  and  O_24
REMARK   10  A    between atoms: C_25  and  O_27
REMARK   11  A    between atoms: C_28  and  O_30
REMARK   12  A    between atoms: C_31  and  O_33
REMARK                            x       y       z     vdW  Elec       q    Type
REMARK                         _______ _______ _______ _____ _____    ______ ____
ROOT
ATOM      1  O   UNL     1       8.195  -3.226  24.754  0.00  0.00    -0.340 OA
ENDROOT
BRANCH   1   6
ATOM      2  C   UNL     1       6.297  -5.209  24.372  0.00  0.00    +0.178 C 
ATOM      3  C   UNL     1       6.252  -5.828  25.784  0.00  0.00    +0.177 C 
ATOM      4  C   UNL     1       7.404  -5.316  26.664  0.00  0.00    +0.179 C 
ATOM      5  C   UNL     1       8.729  -5.412  25.912  0.00  0.00    +0.201 C 
ATOM      6  C   UNL     1       8.598  -4.590  24.610  0.00  0.00    +0.282 C 
ATOM      7  O   UNL     1       7.614  -5.242  23.786  0.00  0.00    -0.341 OA
BRANCH   3   8
ATOM      8  O   UNL     1       5.012  -5.478  26.413  0.00  0.00    -0.386 OA
ATOM      9  H   UNL     1       4.365  -6.157  26.139  0.00  0.00    +0.210 HD
ENDBRANCH   3   8
BRANCH   4  10
ATOM     10  O   UNL     1       7.443  -6.067  27.888  0.00  0.00    -0.386 OA
ATOM     11  H   UNL     1       6.837  -6.827  27.792  0.00  0.00    +0.210 HD
ENDBRANCH   4  10
BRANCH   5  12
ATOM     12  O   UNL     1       9.836  -5.033  26.735  0.00  0.00    -0.384 OA
ATOM     13  H   UNL     1      10.470  -5.766  26.811  0.00  0.00    +0.210 HD
ENDBRANCH   5  12
BRANCH   2  14
ATOM     14  C   UNL     1       5.333  -5.918  23.407  0.00  0.00    +0.190 C 
BRANCH  14  15
ATOM     15  O   UNL     1       4.876  -7.159  23.948  0.00  0.00    -0.392 OA
ATOM     16  H   UNL     1       5.622  -7.780  23.855  0.00  0.00    +0.210 HD
ENDBRANCH  14  15
ENDBRANCH   2  14
ENDBRANCH   1   6
BRANCH   1  17
ATOM     17  C   UNL     1       9.131  -2.188  24.449  0.00  0.00    +0.183 C 
ATOM     18  C   UNL     1       8.559  -0.850  24.977  0.00  0.00    +0.178 C 
ATOM     19  O   UNL     1       7.421  -0.409  24.209  0.00  0.00    -0.341 OA
ATOM     20  C   UNL     1       7.712  -0.259  22.817  0.00  0.00    +0.279 C 
ATOM     21  C   UNL     1       8.177  -1.583  22.195  0.00  0.00    +0.201 C 
ATOM     22  C   UNL     1       9.427  -2.079  22.939  0.00  0.00    +0.179 C 
BRANCH  20  23
ATOM     23  O   UNL     1       8.710   0.736  22.620  0.00  0.00    -0.365 OA
ATOM     24  H   UNL     1       9.372   0.599  23.322  0.00  0.00    +0.213 HD
ENDBRANCH  20  23
BRANCH  21  25
ATOM     25  O   UNL     1       7.125  -2.552  22.236  0.00  0.00    -0.384 OA
ATOM     26  H   UNL     1       7.152  -3.049  21.392  0.00  0.00    +0.210 HD
ENDBRANCH  21  25
BRANCH  22  27
ATOM     27  O   UNL     1      10.561  -1.230  22.738  0.00  0.00    -0.386 OA
ATOM     28  H   UNL     1      11.276  -1.530  23.339  0.00  0.00    +0.210 HD
ENDBRANCH  22  27
BRANCH  18  29
ATOM     29  C   UNL     1       8.109  -0.964  26.441  0.00  0.00    +0.190 C 
BRANCH  29  30
ATOM     30  O   UNL     1       9.157  -0.526  27.304  0.00  0.00    -0.392 OA
ATOM     31  H   UNL     1       9.140   0.449  27.270  0.00  0.00    +0.210 HD
ENDBRANCH  29  30
ENDBRANCH  18  29
ENDBRANCH   1  17
TORSDOF 12
ENDMDL
MODEL 2
REMARK VINA RESULT:      -6.0      1.835      6.135
REMARK  Name = 
REMARK  12 active torsions:
REMARK  status: ('A' for Active; 'I' for Inactive)
REMARK    1  A    between atoms: O_1  and  C_2
REMARK    2  A    between atoms: C_2  and  C_3
REMARK    3  A    between atoms: C_6  and  O_8
REMARK    4  A    between atoms: O_8  and  C_9
REMARK    5  A    between atoms: C_11  and  O_13
REMARK    6  A    between atoms: C_14  and  O_16
REMARK    7  A    between atoms: C_17  and  O_19
REMARK    8  A    between atoms: C_21  and  C_23
REMARK    9  A    between atoms: C_23  and  O_24
REMARK   10  A    between atoms: C_25  and  O_27
REMARK   11  A    between atoms: C_28  and  O_30
REMARK   12  A    between atoms: C_31  and  O_33
REMARK                            x       y       z     vdW  Elec       q    Type
REMARK                         _______ _______ _______ _____ _____    ______ ____
ROOT
ATOM      1  O   UNL     1       8.423  -2.248  23.821  0.00  0.00    -0.340 OA
ENDROOT
BRANCH   1   6
ATOM      2  C   UNL     1       8.221   0.407  24.589  0.00  0.00    +0.178 C 
ATOM      3  C   UNL     1       8.294   1.101  23.213  0.00  0.00    +0.177 C 
ATOM      4  C   UNL     1       8.712   0.121  22.105  0.00  0.00    +0.179 C 
ATOM      5  C   UNL     1       9.937  -0.678  22.539  0.00  0.00    +0.201 C 
ATOM      6  C   UNL     1       9.586  -1.417  23.849  0.00  0.00    +0.282 C 
ATOM      7  O   UNL     1       9.372  -0.417  24.863  0.00  0.00    -0.341 OA
BRANCH   3   8
ATOM      8  O   UNL     1       7.003   1.633  22.884  0.00  0.00    -0.386 OA
ATOM      9  H   UNL     1       6.926   2.480  23.365  0.00  0.00    +0.210 HD
ENDBRANCH   3   8
BRANCH   4  10
ATOM     10  O   UNL     1       8.964   0.848  20.892  0.00  0.00    -0.386 OA
ATOM     11  H   UNL     1       9.847   1.259  20.969  0.00  0.00    +0.210 HD
ENDBRANCH   4  10
BRANCH   5  12
ATOM     12  O   UNL     1      10.412  -1.532  21.494  0.00  0.00    -0.384 OA
ATOM     13  H   UNL     1      10.485  -1.041  20.658  0.00  0.00    +0.210 HD
ENDBRANCH   5  12
BRANCH   2  14
ATOM     14  C   UNL     1       8.084   1.423  25.734  0.00  0.00    +0.190 C 
BRANCH  14  15
ATOM     15  O   UNL     1       8.547   2.716  25.340  0.00  0.00    -0.392 OA
ATOM     16  H   UNL     1       9.235   2.558  24.667  0.00  0.00    +0.210 HD
ENDBRANCH  14  15
ENDBRANCH   2  14
ENDBRANCH   1   6
BRANCH   1  17
ATOM     17  C   UNL     1       8.583  -3.670  23.867  0.00  0.00    +0.183 C 
ATOM     18  C   UNL     1       7.175  -4.314  23.896  0.00  0.00    +0.178 C 
ATOM     19  O   UNL     1       6.504  -4.086  25.152  0.00  0.00    -0.341 OA
ATOM     20  C   UNL     1       7.246  -4.567  26.276  0.00  0.00    +0.279 C 
ATOM     21  C   UNL     1       8.616  -3.883  26.378  0.00  0.00    +0.201 C 
ATOM     22  C   UNL     1       9.406  -4.137  25.084  0.00  0.00    +0.179 C 
BRANCH  20  23
ATOM     23  O   UNL     1       7.423  -5.976  26.191  0.00  0.00    -0.365 OA
ATOM     24  H   UNL     1       6.803  -6.287  25.507  0.00  0.00    +0.213 HD
ENDBRANCH  20  23
BRANCH  21  25
ATOM     25  O   UNL     1       8.459  -2.483  26.629  0.00  0.00    -0.384 OA
ATOM     26  H   UNL     1       8.073  -2.387  27.524  0.00  0.00    +0.210 HD
ENDBRANCH  21  25
BRANCH  22  27
ATOM     27  O   UNL     1       9.761  -5.512  24.917  0.00  0.00    -0.386 OA
ATOM     28  H   UNL     1       9.117  -5.920  24.300  0.00  0.00    +0.210 HD
ENDBRANCH  22  27
BRANCH  18  29
ATOM     29  C   UNL     1       6.273  -3.757  22.785  0.00  0.00    +0.190 C 
BRANCH  29  30
ATOM     30  O   UNL     1       5.722  -2.506  23.191  0.00  0.00    -0.392 OA
ATOM     31  H   UNL     1       5.476  -2.043  22.368  0.00  0.00    +0.210 HD
ENDBRANCH  29  30
ENDBRANCH  18  29
ENDBRANCH   1  17
TORSDOF 12
ENDMDL
MODEL 3
REMARK VINA RESULT:      -6.0      1.841      4.057
REMARK  Name = 
REMARK  12 active torsions:
REMARK  status: ('A' for Active; 'I' for Inactive)
REMARK    1  A    between atoms: O_1  and  C_2
REMARK    2  A    between atoms: C_2  and  C_3
REMARK    3  A    between atoms: C_6  and  O_8
REMARK    4  A    between atoms: O_8  and  C_9
REMARK    5  A    between atoms: C_11  and  O_13
REMARK    6  A    between atoms: C_14  and  O_16
REMARK    7  A    between atoms: C_17  and  O_19
REMARK    8  A    between atoms: C_21  and  C_23
REMARK    9  A    between atoms: C_23  and  O_24
REMARK   10  A    between atoms: C_25  and  O_27
REMARK   11  A    between atoms: C_28  and  O_30
REMARK   12  A    between atoms: C_31  and  O_33
REMARK                            x       y       z     vdW  Elec       q    Type
REMARK                         _______ _______ _______ _____ _____    ______ ____
ROOT
ATOM      1  O   UNL     1       7.720  -1.725  23.501  0.00  0.00    -0.340 OA
ENDROOT
BRANCH   1   6
ATOM      2  C   UNL     1       7.929  -3.895  25.211  0.00  0.00    +0.178 C 
ATOM      3  C   UNL     1       7.827  -5.057  24.202  0.00  0.00    +0.177 C 
ATOM      4  C   UNL     1       7.391  -4.565  22.812  0.00  0.00    +0.179 C 
ATOM      5  C   UNL     1       6.176  -3.649  22.933  0.00  0.00    +0.201 C 
ATOM      6  C   UNL     1       6.555  -2.473  23.861  0.00  0.00    +0.282 C 
ATOM      7  O   UNL     1       6.786  -3.018  25.174  0.00  0.00    -0.341 OA
BRANCH   3   8
ATOM      8  O   UNL     1       9.110  -5.687  24.076  0.00  0.00    -0.386 OA
ATOM      9  H   UNL     1       9.522  -5.310  23.274  0.00  0.00    +0.210 HD
ENDBRANCH   3   8
BRANCH   4  10
ATOM     10  O   UNL     1       7.113  -5.692  21.969  0.00  0.00    -0.386 OA
ATOM     11  H   UNL     1       6.202  -5.595  21.630  0.00  0.00    +0.210 HD
ENDBRANCH   4  10
BRANCH   5  12
ATOM     12  O   UNL     1       5.684  -3.248  21.651  0.00  0.00    -0.384 OA
ATOM     13  H   UNL     1       6.291  -2.612  21.236  0.00  0.00    +0.210 HD
ENDBRANCH   5  12
BRANCH   2  14
ATOM     14  C   UNL     1       8.085  -4.405  26.653  0.00  0.00    +0.190 C 
BRANCH  14  15
ATOM     15  O   UNL     1       8.191  -5.829  26.693  0.00  0.00    -0.392 OA
ATOM     16  H   UNL     1       7.292  -6.166  26.524  0.00  0.00    +0.210 HD
ENDBRANCH  14  15
ENDBRANCH   2  14
ENDBRANCH   1   6
BRANCH   1  17
ATOM     17  C   UNL     1       7.585  -0.333  23.197  0.00  0.00    +0.183 C 
ATOM     18  C   UNL     1       8.908   0.150  22.552  0.00  0.00    +0.178 C 
ATOM     19  O   UNL     1       9.988   0.194  23.508  0.00  0.00    -0.341 OA
ATOM     20  C   UNL     1       9.703   1.026  24.635  0.00  0.00    +0.279 C 
ATOM     21  C   UNL     1       8.462   0.535  25.395  0.00  0.00    +0.201 C 
ATOM     22  C   UNL     1       7.258   0.518  24.440  0.00  0.00    +0.179 C 
BRANCH  20  23
ATOM     23  O   UNL     1       9.506   2.374  24.224  0.00  0.00    -0.365 OA
ATOM     24  H   UNL     1       9.111   2.331  23.334  0.00  0.00    +0.213 HD
ENDBRANCH  20  23
BRANCH  21  25
ATOM     25  O   UNL     1       8.701  -0.758  25.959  0.00  0.00    -0.384 OA
ATOM     26  H   UNL     1       9.439  -0.668  26.596  0.00  0.00    +0.210 HD
ENDBRANCH  21  25
BRANCH  22  27
ATOM     27  O   UNL     1       6.865   1.830  24.026  0.00  0.00    -0.386 OA
ATOM     28  H   UNL     1       6.926   2.425  24.804  0.00  0.00    +0.210 HD
ENDBRANCH  22  27
BRANCH  18  29
ATOM     29  C   UNL     1       9.348  -0.768  21.403  0.00  0.00    +0.190 C 
BRANCH  29  30
ATOM     30  O   UNL     1      10.333  -1.688  21.869  0.00  0.00    -0.392 OA
ATOM     31  H   UNL     1       9.983  -2.576  21.667  0.00  0.00    +0.210 HD
ENDBRANCH  29  30
ENDBRANCH  18  29
ENDBRANCH   1  17
TORSDOF 12
ENDMDL
MODEL 4
REMARK VINA RESULT:      -5.9      2.300      6.346
REMARK  Name = 
REMARK  12 active torsions:
REMARK  status: ('A' for Active; 'I' for Inactive)
REMARK    1  A    between atoms: O_1  and  C_2
REMARK    2  A    between atoms: C_2  and  C_3
REMARK    3  A    between atoms: C_6  and  O_8
REMARK    4  A    between atoms: O_8  and  C_9
REMARK    5  A    between atoms: C_11  and  O_13
REMARK    6  A    between atoms: C_14  and  O_16
REMARK    7  A    between atoms: C_17  and  O_19
REMARK    8  A    between atoms: C_21  and  C_23
REMARK    9  A    between atoms: C_23  and  O_24
REMARK   10  A    between atoms: C_25  and  O_27
REMARK   11  A    between atoms: C_28  and  O_30
REMARK   12  A    between atoms: C_31  and  O_33
REMARK                            x       y       z     vdW  Elec       q    Type
REMARK                         _______ _______ _______ _____ _____    ______ ____
ROOT
ATOM      1  O   UNL     1       7.833  -0.760  23.875  0.00  0.00    -0.340 OA
ENDROOT
BRANCH   1   6
ATOM      2  C   UNL     1       7.244   1.728  22.806  0.00  0.00    +0.178 C 
ATOM      3  C   UNL     1       8.648   2.365  22.793  0.00  0.00    +0.177 C 
ATOM      4  C   UNL     1       9.660   1.526  23.590  0.00  0.00    +0.179 C 
ATOM      5  C   UNL     1       9.084   1.157  24.954  0.00  0.00    +0.201 C 
ATOM      6  C   UNL     1       7.763   0.389  24.723  0.00  0.00    +0.282 C 
ATOM      7  O   UNL     1       6.831   1.308  24.122  0.00  0.00    -0.341 OA
BRANCH   3   8
ATOM      8  O   UNL     1       9.109   2.463  21.438  0.00  0.00    -0.386 OA
ATOM      9  H   UNL     1      10.080   2.567  21.486  0.00  0.00    +0.210 HD
ENDBRANCH   3   8
BRANCH   4  10
ATOM     10  O   UNL     1      10.890   2.254  23.722  0.00  0.00    -0.386 OA
ATOM     11  H   UNL     1      10.681   3.206  23.670  0.00  0.00    +0.210 HD
ENDBRANCH   4  10
BRANCH   5  12
ATOM     12  O   UNL     1      10.035   0.456  25.761  0.00  0.00    -0.384 OA
ATOM     13  H   UNL     1      10.464  -0.249  25.247  0.00  0.00    +0.210 HD
ENDBRANCH   5  12
BRANCH   2  14
ATOM     14  C   UNL     1       6.176   2.690  22.261  0.00  0.00    +0.190 C 
BRANCH  14  15
ATOM     15  O   UNL     1       6.756   3.925  21.836  0.00  0.00    -0.392 OA
ATOM     16  H   UNL     1       7.645   3.951  22.237  0.00  0.00    +0.210 HD
ENDBRANCH  14  15
ENDBRANCH   2  14
ENDBRANCH   1   6
BRANCH   1  17
ATOM     17  C   UNL     1       8.035  -2.048  24.465  0.00  0.00    +0.183 C 
ATOM     18  C   UNL     1       8.975  -2.861  23.542  0.00  0.00    +0.178 C 
ATOM     19  O   UNL     1       8.327  -3.237  22.309  0.00  0.00    -0.341 OA
ATOM     20  C   UNL     1       7.131  -3.992  22.515  0.00  0.00    +0.279 C 
ATOM     21  C   UNL     1       6.100  -3.199  23.330  0.00  0.00    +0.201 C 
ATOM     22  C   UNL     1       6.715  -2.815  24.686  0.00  0.00    +0.179 C 
BRANCH  20  23
ATOM     23  O   UNL     1       7.422  -5.217  23.179  0.00  0.00    -0.365 OA
ATOM     24  H   UNL     1       7.985  -4.986  23.940  0.00  0.00    +0.213 HD
ENDBRANCH  20  23
BRANCH  21  25
ATOM     25  O   UNL     1       5.670  -2.044  22.604  0.00  0.00    -0.384 OA
ATOM     26  H   UNL     1       6.049  -2.107  21.703  0.00  0.00    +0.210 HD
ENDBRANCH  21  25
BRANCH  22  27
ATOM     27  O   UNL     1       6.959  -3.950  25.521  0.00  0.00    -0.386 OA
ATOM     28  H   UNL     1       7.808  -3.804  25.991  0.00  0.00    +0.210 HD
ENDBRANCH  22  27
BRANCH  18  29
ATOM     29  C   UNL     1      10.236  -2.065  23.174  0.00  0.00    +0.190 C 
BRANCH  29  30
ATOM     30  O   UNL     1      10.156  -1.630  21.818  0.00  0.00    -0.392 OA
ATOM     31  H   UNL     1      10.747  -2.220  21.314  0.00  0.00    +0.210 HD
ENDBRANCH  29  30
ENDBRANCH  18  29
ENDBRANCH   1  17
TORSDOF 12
ENDMDL
MODEL 5
REMARK VINA RESULT:      -5.9      2.020      3.591
REMARK  Name = 
REMARK  12 active torsions:
REMARK  status: ('A' for Active; 'I' for Inactive)
REMARK    1  A    between atoms: O_1  and  C_2
REMARK    2  A    between atoms: C_2  and  C_3
REMARK    3  A    between atoms: C_6  and  O_8
REMARK    4  A    between atoms: O_8  and  C_9
REMARK    5  A    between atoms: C_11  and  O_13
REMARK    6  A    between atoms: C_14  and  O_16
REMARK    7  A    between atoms: C_17  and  O_19
REMARK    8  A    between atoms: C_21  and  C_23
REMARK    9  A    between atoms: C_23  and  O_24
REMARK   10  A    between atoms: C_25  and  O_27
REMARK   11  A    between atoms: C_28  and  O_30
REMARK   12  A    between atoms: C_31  and  O_33
REMARK                            x       y       z     vdW  Elec       q    Type
REMARK                         _______ _______ _______ _____ _____    ______ ____
ROOT
ATOM      1  O   UNL     1       7.892  -0.985  24.313  0.00  0.00    -0.340 OA
ENDROOT
BRANCH   1   6
ATOM      2  C   UNL     1       8.386  -3.589  25.120  0.00  0.00    +0.178 C 
ATOM      3  C   UNL     1       7.032  -4.247  24.785  0.00  0.00    +0.177 C 
ATOM      4  C   UNL     1       5.961  -3.198  24.444  0.00  0.00    +0.179 C 
ATOM      5  C   UNL     1       5.949  -2.093  25.496  0.00  0.00    +0.201 C 
ATOM      6  C   UNL     1       7.361  -1.468  25.549  0.00  0.00    +0.282 C 
ATOM      7  O   UNL     1       8.262  -2.482  26.034  0.00  0.00    -0.341 OA
BRANCH   3   8
ATOM      8  O   UNL     1       7.195  -5.112  23.653  0.00  0.00    -0.386 OA
ATOM      9  H   UNL     1       7.664  -5.905  23.979  0.00  0.00    +0.210 HD
ENDBRANCH   3   8
BRANCH   4  10
ATOM     10  O   UNL     1       4.680  -3.837  24.342  0.00  0.00    -0.386 OA
ATOM     11  H   UNL     1       4.123  -3.508  25.074  0.00  0.00    +0.210 HD
ENDBRANCH   4  10
BRANCH   5  12
ATOM     12  O   UNL     1       4.899  -1.149  25.262  0.00  0.00    -0.384 OA
ATOM     13  H   UNL     1       4.034  -1.591  25.271  0.00  0.00    +0.210 HD
ENDBRANCH   5  12
BRANCH   2  14
ATOM     14  C   UNL     1       9.374  -4.596  25.731  0.00  0.00    +0.190 C 
BRANCH  14  15
ATOM     15  O   UNL     1       9.993  -5.396  24.721  0.00  0.00    -0.392 OA
ATOM     16  H   UNL     1      10.724  -4.856  24.367  0.00  0.00    +0.210 HD
ENDBRANCH  14  15
ENDBRANCH   2  14
ENDBRANCH   1   6
BRANCH   1  17
ATOM     17  C   UNL     1       8.816   0.108  24.333  0.00  0.00    +0.183 C 
ATOM     18  C   UNL     1       8.159   1.309  23.609  0.00  0.00    +0.178 C 
ATOM     19  O   UNL     1       8.049   1.086  22.187  0.00  0.00    -0.341 OA
ATOM     20  C   UNL     1       9.307   0.815  21.566  0.00  0.00    +0.279 C 
ATOM     21  C   UNL     1       9.968  -0.438  22.158  0.00  0.00    +0.201 C 
ATOM     22  C   UNL     1      10.164  -0.240  23.670  0.00  0.00    +0.179 C 
BRANCH  20  23
ATOM     23  O   UNL     1      10.185   1.927  21.708  0.00  0.00    -0.365 OA
ATOM     24  H   UNL     1       9.935   2.560  21.011  0.00  0.00    +0.213 HD
ENDBRANCH  20  23
BRANCH  21  25
ATOM     25  O   UNL     1       9.177  -1.598  21.881  0.00  0.00    -0.384 OA
ATOM     26  H   UNL     1       8.352  -1.522  22.404  0.00  0.00    +0.210 HD
ENDBRANCH  21  25
BRANCH  22  27
ATOM     27  O   UNL     1      11.119   0.781  23.971  0.00  0.00    -0.386 OA
ATOM     28  H   UNL     1      11.199   0.843  24.947  0.00  0.00    +0.210 HD
ENDBRANCH  22  27
BRANCH  18  29
ATOM     29  C   UNL     1       6.747   1.590  24.141  0.00  0.00    +0.190 C 
BRANCH  29  30
ATOM     30  O   UNL     1       5.785   0.894  23.351  0.00  0.00    -0.392 OA
ATOM     31  H   UNL     1       5.928  -0.054  23.533  0.00  0.00    +0.210 HD
ENDBRANCH  29  30
ENDBRANCH  18  29
ENDBRANCH   1  17
TORSDOF 12
ENDMDL
MODEL 6
REMARK VINA RESULT:      -5.9      2.108      2.682
REMARK  Name = 
REMARK  12 active torsions:
REMARK  status: ('A' for Active; 'I' for Inactive)
REMARK    1  A    between atoms: O_1  and  C_2
REMARK    2  A    between atoms: C_2  and  C_3
REMARK    3  A    between atoms: C_6  and  O_8
REMARK    4  A    between atoms: O_8  and  C_9
REMARK    5  A    between atoms: C_11  and  O_13
REMARK    6  A    between atoms: C_14  and  O_16
REMARK    7  A    between atoms: C_17  and  O_19
REMARK    8  A    between atoms: C_21  and  C_23
REMARK    9  A    between atoms: C_23  and  O_24
REMARK   10  A    between atoms: C_25  and  O_27
REMARK   11  A    between atoms: C_28  and  O_30
REMARK   12  A    between atoms: C_31  and  O_33
REMARK                            x       y       z     vdW  Elec       q    Type
REMARK                         _______ _______ _______ _____ _____    ______ ____
ROOT
ATOM      1  O   UNL     1       7.925  -2.041  23.700  0.00  0.00    -0.340 OA
ENDROOT
BRANCH   1   6
ATOM      2  C   UNL     1       6.940  -4.410  22.651  0.00  0.00    +0.178 C 
ATOM      3  C   UNL     1       5.610  -4.526  23.424  0.00  0.00    +0.177 C 
ATOM      4  C   UNL     1       5.533  -3.511  24.576  0.00  0.00    +0.179 C 
ATOM      5  C   UNL     1       6.816  -3.551  25.403  0.00  0.00    +0.201 C 
ATOM      6  C   UNL     1       8.002  -3.252  24.458  0.00  0.00    +0.282 C 
ATOM      7  O   UNL     1       8.089  -4.340  23.519  0.00  0.00    -0.341 OA
BRANCH   3   8
ATOM      8  O   UNL     1       4.520  -4.274  22.526  0.00  0.00    -0.386 OA
ATOM      9  H   UNL     1       4.356  -5.113  22.053  0.00  0.00    +0.210 HD
ENDBRANCH   3   8
BRANCH   4  10
ATOM     10  O   UNL     1       4.381  -3.790  25.386  0.00  0.00    -0.386 OA
ATOM     11  H   UNL     1       3.673  -4.112  24.796  0.00  0.00    +0.210 HD
ENDBRANCH   4  10
BRANCH   5  12
ATOM     12  O   UNL     1       6.741  -2.687  26.541  0.00  0.00    -0.384 OA
ATOM     13  H   UNL     1       7.525  -2.114  26.586  0.00  0.00    +0.210 HD
ENDBRANCH   5  12
BRANCH   2  14
ATOM     14  C   UNL     1       7.146  -5.592  21.690  0.00  0.00    +0.190 C 
BRANCH  14  15
ATOM     15  O   UNL     1       6.170  -6.614  21.905  0.00  0.00    -0.392 OA
ATOM     16  H   UNL     1       5.810  -6.451  22.797  0.00  0.00    +0.210 HD
ENDBRANCH  14  15
ENDBRANCH   2  14
ENDBRANCH   1   6
BRANCH   1  17
ATOM     17  C   UNL     1       8.621  -0.882  24.169  0.00  0.00    +0.183 C 
ATOM     18  C   UNL     1       7.904   0.371  23.610  0.00  0.00    +0.178 C 
ATOM     19  O   UNL     1       8.093   0.510  22.186  0.00  0.00    -0.341 OA
ATOM     20  C   UNL     1       9.471   0.571  21.810  0.00  0.00    +0.279 C 
ATOM     21  C   UNL     1      10.225  -0.698  22.234  0.00  0.00    +0.201 C 
ATOM     22  C   UNL     1      10.106  -0.873  23.756  0.00  0.00    +0.179 C 
BRANCH  20  23
ATOM     23  O   UNL     1      10.097   1.711  22.389  0.00  0.00    -0.365 OA
ATOM     24  H   UNL     1       9.520   1.995  23.121  0.00  0.00    +0.213 HD
ENDBRANCH  20  23
BRANCH  21  25
ATOM     25  O   UNL     1       9.716  -1.838  21.535  0.00  0.00    -0.384 OA
ATOM     26  H   UNL     1      10.485  -2.334  21.185  0.00  0.00    +0.210 HD
ENDBRANCH  21  25
BRANCH  22  27
ATOM     27  O   UNL     1      10.794   0.149  24.483  0.00  0.00    -0.386 OA
ATOM     28  H   UNL     1      10.552   0.065  25.430  0.00  0.00    +0.210 HD
ENDBRANCH  22  27
BRANCH  18  29
ATOM     29  C   UNL     1       6.391   0.323  23.869  0.00  0.00    +0.190 C 
BRANCH  29  30
ATOM     30  O   UNL     1       6.143  -0.094  25.210  0.00  0.00    -0.392 OA
ATOM     31  H   UNL     1       5.980  -1.055  25.165  0.00  0.00    +0.210 HD
ENDBRANCH  29  30
ENDBRANCH  18  29
ENDBRANCH   1  17
TORSDOF 12
ENDMDL
MODEL 7
REMARK VINA RESULT:      -5.8      1.743      5.660
REMARK  Name = 
REMARK  12 active torsions:
REMARK  status: ('A' for Active; 'I' for Inactive)
REMARK    1  A    between atoms: O_1  and  C_2
REMARK    2  A    between atoms: C_2  and  C_3
REMARK    3  A    between atoms: C_6  and  O_8
REMARK    4  A    between atoms: O_8  and  C_9
REMARK    5  A    between atoms: C_11  and  O_13
REMARK    6  A    between atoms: C_14  and  O_16
REMARK    7  A    between atoms: C_17  and  O_19
REMARK    8  A    between atoms: C_21  and  C_23
REMARK    9  A    between atoms: C_23  and  O_24
REMARK   10  A    between atoms: C_25  and  O_27
REMARK   11  A    between atoms: C_28  and  O_30
REMARK   12  A    between atoms: C_31  and  O_33
REMARK                            x       y       z     vdW  Elec       q    Type
REMARK                         _______ _______ _______ _____ _____    ______ ____
ROOT
ATOM      1  O   UNL     1       6.292  -4.269  24.767  0.00  0.00    -0.340 OA
ENDROOT
BRANCH   1   6
ATOM      2  C   UNL     1       8.161  -2.222  24.753  0.00  0.00    +0.178 C 
ATOM      3  C   UNL     1       9.469  -3.039  24.762  0.00  0.00    +0.177 C 
ATOM      4  C   UNL     1       9.207  -4.526  25.051  0.00  0.00    +0.179 C 
ATOM      5  C   UNL     1       8.292  -4.677  26.263  0.00  0.00    +0.201 C 
ATOM      6  C   UNL     1       6.981  -3.914  25.969  0.00  0.00    +0.282 C 
ATOM      7  O   UNL     1       7.308  -2.515  25.878  0.00  0.00    -0.341 OA
BRANCH   3   8
ATOM      8  O   UNL     1      10.101  -2.932  23.480  0.00  0.00    -0.386 OA
ATOM      9  H   UNL     1      10.845  -3.566  23.487  0.00  0.00    +0.210 HD
ENDBRANCH   3   8
BRANCH   4  10
ATOM     10  O   UNL     1      10.457  -5.204  25.252  0.00  0.00    -0.386 OA
ATOM     11  H   UNL     1      10.840  -5.390  24.374  0.00  0.00    +0.210 HD
ENDBRANCH   4  10
BRANCH   5  12
ATOM     12  O   UNL     1       8.104  -6.050  26.619  0.00  0.00    -0.384 OA
ATOM     13  H   UNL     1       7.857  -6.129  27.556  0.00  0.00    +0.210 HD
ENDBRANCH   5  12
BRANCH   2  14
ATOM     14  C   UNL     1       8.433  -0.709  24.749  0.00  0.00    +0.190 C 
BRANCH  14  15
ATOM     15  O   UNL     1       9.814  -0.429  24.986  0.00  0.00    -0.392 OA
ATOM     16  H   UNL     1       9.926   0.523  24.802  0.00  0.00    +0.210 HD
ENDBRANCH  14  15
ENDBRANCH   2  14
ENDBRANCH   1   6
BRANCH   1  17
ATOM     17  C   UNL     1       5.808  -5.606  24.612  0.00  0.00    +0.183 C 
ATOM     18  C   UNL     1       5.679  -5.901  23.098  0.00  0.00    +0.178 C 
ATOM     19  O   UNL     1       4.598  -5.160  22.494  0.00  0.00    -0.341 OA
ATOM     20  C   UNL     1       3.335  -5.413  23.114  0.00  0.00    +0.279 C 
ATOM     21  C   UNL     1       3.353  -5.033  24.601  0.00  0.00    +0.201 C 
ATOM     22  C   UNL     1       4.454  -5.834  25.314  0.00  0.00    +0.179 C 
BRANCH  20  23
ATOM     23  O   UNL     1       2.977  -6.784  22.978  0.00  0.00    -0.365 OA
ATOM     24  H   UNL     1       3.480  -7.264  23.660  0.00  0.00    +0.213 HD
ENDBRANCH  20  23
BRANCH  21  25
ATOM     25  O   UNL     1       3.549  -3.624  24.755  0.00  0.00    -0.384 OA
ATOM     26  H   UNL     1       2.866  -3.300  25.379  0.00  0.00    +0.210 HD
ENDBRANCH  21  25
BRANCH  22  27
ATOM     27  O   UNL     1       4.173  -7.236  25.359  0.00  0.00    -0.386 OA
ATOM     28  H   UNL     1       3.330  -7.392  24.882  0.00  0.00    +0.210 HD
ENDBRANCH  22  27
BRANCH  18  29
ATOM     29  C   UNL     1       6.964  -5.540  22.338  0.00  0.00    +0.190 C 
BRANCH  29  30
ATOM     30  O   UNL     1       6.905  -4.182  21.906  0.00  0.00    -0.392 OA
ATOM     31  H   UNL     1       7.017  -3.641  22.710  0.00  0.00    +0.210 HD
ENDBRANCH  29  30
ENDBRANCH  18  29
ENDBRANCH   1  17
TORSDOF 12
ENDMDL
MODEL 8
REMARK VINA RESULT:      -5.7      1.948      6.015
REMARK  Name = 
REMARK  12 active torsions:
REMARK  status: ('A' for Active; 'I' for Inactive)
REMARK    1  A    between atoms: O_1  and  C_2
REMARK    2  A    between atoms: C_2  and  C_3
REMARK    3  A    between atoms: C_6  and  O_8
REMARK    4  A    between atoms: O_8  and  C_9
REMARK    5  A    between atoms: C_11  and  O_13
REMARK    6  A    between atoms: C_14  and  O_16
REMARK    7  A    between atoms: C_17  and  O_19
REMARK    8  A    between atoms: C_21  and  C_23
REMARK    9  A    between atoms: C_23  and  O_24
REMARK   10  A    between atoms: C_25  and  O_27
REMARK   11  A    between atoms: C_28  and  O_30
REMARK   12  A    between atoms: C_31  and  O_33
REMARK                            x       y       z     vdW  Elec       q    Type
REMARK                         _______ _______ _______ _____ _____    ______ ____
ROOT
ATOM      1  O   UNL     1       6.426  -5.146  24.669  0.00  0.00    -0.340 OA
ENDROOT
BRANCH   1   6
ATOM      2  C   UNL     1       8.158  -3.263  23.604  0.00  0.00    +0.178 C 
ATOM      3  C   UNL     1       7.378  -2.851  22.338  0.00  0.00    +0.177 C 
ATOM      4  C   UNL     1       6.198  -3.798  22.066  0.00  0.00    +0.179 C 
ATOM      5  C   UNL     1       6.656  -5.252  22.150  0.00  0.00    +0.201 C 
ATOM      6  C   UNL     1       7.258  -5.482  23.555  0.00  0.00    +0.282 C 
ATOM      7  O   UNL     1       8.446  -4.675  23.651  0.00  0.00    -0.341 OA
BRANCH   3   8
ATOM      8  O   UNL     1       6.862  -1.524  22.513  0.00  0.00    -0.386 OA
ATOM      9  H   UNL     1       5.916  -1.626  22.737  0.00  0.00    +0.210 HD
ENDBRANCH   3   8
BRANCH   4  10
ATOM     10  O   UNL     1       5.633  -3.503  20.779  0.00  0.00    -0.386 OA
ATOM     11  H   UNL     1       4.692  -3.765  20.800  0.00  0.00    +0.210 HD
ENDBRANCH   4  10
BRANCH   5  12
ATOM     12  O   UNL     1       5.604  -6.161  21.808  0.00  0.00    -0.384 OA
ATOM     13  H   UNL     1       4.838  -6.030  22.391  0.00  0.00    +0.210 HD
ENDBRANCH   5  12
BRANCH   2  14
ATOM     14  C   UNL     1       9.489  -2.505  23.725  0.00  0.00    +0.190 C 
BRANCH  14  15
ATOM     15  O   UNL     1       9.810  -1.819  22.513  0.00  0.00    -0.392 OA
ATOM     16  H   UNL     1       9.092  -1.173  22.377  0.00  0.00    +0.210 HD
ENDBRANCH  14  15
ENDBRANCH   2  14
ENDBRANCH   1   6
BRANCH   1  17
ATOM     17  C   UNL     1       6.497  -5.944  25.855  0.00  0.00    +0.183 C 
ATOM     18  C   UNL     1       5.061  -6.385  26.227  0.00  0.00    +0.178 C 
ATOM     19  O   UNL     1       4.263  -5.281  26.703  0.00  0.00    -0.341 OA
ATOM     20  C   UNL     1       4.841  -4.621  27.831  0.00  0.00    +0.279 C 
ATOM     21  C   UNL     1       6.228  -4.052  27.500  0.00  0.00    +0.201 C 
ATOM     22  C   UNL     1       7.146  -5.196  27.037  0.00  0.00    +0.179 C 
BRANCH  20  23
ATOM     23  O   UNL     1       4.945  -5.515  28.934  0.00  0.00    -0.365 OA
ATOM     24  H   UNL     1       5.887  -5.758  28.997  0.00  0.00    +0.213 HD
ENDBRANCH  20  23
BRANCH  21  25
ATOM     25  O   UNL     1       6.124  -3.029  26.504  0.00  0.00    -0.384 OA
ATOM     26  H   UNL     1       5.240  -3.113  26.090  0.00  0.00    +0.210 HD
ENDBRANCH  21  25
BRANCH  22  27
ATOM     27  O   UNL     1       7.438  -6.125  28.084  0.00  0.00    -0.386 OA
ATOM     28  H   UNL     1       7.880  -5.635  28.810  0.00  0.00    +0.210 HD
ENDBRANCH  22  27
BRANCH  18  29
ATOM     29  C   UNL     1       4.326  -6.999  25.026  0.00  0.00    +0.190 C 
BRANCH  29  30
ATOM     30  O   UNL     1       3.777  -5.964  24.214  0.00  0.00    -0.392 OA
ATOM     31  H   UNL     1       3.513  -5.254  24.830  0.00  0.00    +0.210 HD
ENDBRANCH  29  30
ENDBRANCH  18  29
ENDBRANCH   1  17
TORSDOF 12
ENDMDL
MODEL 9
REMARK VINA RESULT:      -5.7      1.519      1.756
REMARK  Name = 
REMARK  12 active torsions:
REMARK  status: ('A' for Active; 'I' for Inactive)
REMARK    1  A    between atoms: O_1  and  C_2
REMARK    2  A    between atoms: C_2  and  C_3
REMARK    3  A    between atoms: C_6  and  O_8
REMARK    4  A    between atoms: O_8  and  C_9
REMARK    5  A    between atoms: C_11  and  O_13
REMARK    6  A    between atoms: C_14  and  O_16
REMARK    7  A    between atoms: C_17  and  O_19
REMARK    8  A    between atoms: C_21  and  C_23
REMARK    9  A    between atoms: C_23  and  O_24
REMARK   10  A    between atoms: C_25  and  O_27
REMARK   11  A    between atoms: C_28  and  O_30
REMARK   12  A    between atoms: C_31  and  O_33
REMARK                            x       y       z     vdW  Elec       q    Type
REMARK                         _______ _______ _______ _____ _____    ______ ____
ROOT
ATOM      1  O   UNL     1       7.767  -2.991  24.614  0.00  0.00    -0.340 OA
ENDROOT
BRANCH   1   6
ATOM      2  C   UNL     1       7.007  -5.127  23.020  0.00  0.00    +0.178 C 
ATOM      3  C   UNL     1       6.190  -5.954  24.033  0.00  0.00    +0.177 C 
ATOM      4  C   UNL     1       6.374  -5.434  25.469  0.00  0.00    +0.179 C 
ATOM      5  C   UNL     1       7.856  -5.238  25.775  0.00  0.00    +0.201 C 
ATOM      6  C   UNL     1       8.432  -4.251  24.734  0.00  0.00    +0.282 C 
ATOM      7  O   UNL     1       8.364  -4.895  23.448  0.00  0.00    -0.341 OA
BRANCH   3   8
ATOM      8  O   UNL     1       4.799  -5.872  23.697  0.00  0.00    -0.386 OA
ATOM      9  H   UNL     1       4.397  -5.257  24.342  0.00  0.00    +0.210 HD
ENDBRANCH   3   8
BRANCH   4  10
ATOM     10  O   UNL     1       5.767  -6.351  26.392  0.00  0.00    -0.386 OA
ATOM     11  H   UNL     1       5.013  -5.895  26.814  0.00  0.00    +0.210 HD
ENDBRANCH   4  10
BRANCH   5  12
ATOM     12  O   UNL     1       8.070  -4.845  27.134  0.00  0.00    -0.384 OA
ATOM     13  H   UNL     1       7.224  -4.651  27.570  0.00  0.00    +0.210 HD
ENDBRANCH   5  12
BRANCH   2  14
ATOM     14  C   UNL     1       7.056  -5.802  21.640  0.00  0.00    +0.190 C 
BRANCH  14  15
ATOM     15  O   UNL     1       5.877  -5.524  20.882  0.00  0.00    -0.392 OA
ATOM     16  H   UNL     1       5.644  -6.361  20.439  0.00  0.00    +0.210 HD
ENDBRANCH  14  15
ENDBRANCH   2  14
ENDBRANCH   1   6
BRANCH   1  17
ATOM     17  C   UNL     1       8.456  -1.801  25.012  0.00  0.00    +0.183 C 
ATOM     18  C   UNL     1       7.416  -0.661  25.139  0.00  0.00    +0.178 C 
ATOM     19  O   UNL     1       6.908  -0.250  23.853  0.00  0.00    -0.341 OA
ATOM     20  C   UNL     1       7.937   0.173  22.955  0.00  0.00    +0.279 C 
ATOM     21  C   UNL     1       8.947  -0.952  22.690  0.00  0.00    +0.201 C 
ATOM     22  C   UNL     1       9.568  -1.398  24.024  0.00  0.00    +0.179 C 
BRANCH  20  23
ATOM     23  O   UNL     1       8.617   1.310  23.475  0.00  0.00    -0.365 OA
ATOM     24  H   UNL     1       8.975   1.788  22.705  0.00  0.00    +0.213 HD
ENDBRANCH  20  23
BRANCH  21  25
ATOM     25  O   UNL     1       8.314  -2.044  22.016  0.00  0.00    -0.384 OA
ATOM     26  H   UNL     1       8.450  -1.913  21.055  0.00  0.00    +0.210 HD
ENDBRANCH  21  25
BRANCH  22  27
ATOM     27  O   UNL     1      10.386  -0.385  24.616  0.00  0.00    -0.386 OA
ATOM     28  H   UNL     1      10.325  -0.477  25.591  0.00  0.00    +0.210 HD
ENDBRANCH  22  27
BRANCH  18  29
ATOM     29  C   UNL     1       6.213  -1.082  25.996  0.00  0.00    +0.190 C 
BRANCH  29  30
ATOM     30  O   UNL     1       6.611  -2.086  26.928  0.00  0.00    -0.392 OA
ATOM     31  H   UNL     1       5.848  -2.215  27.521  0.00  0.00    +0.210 HD
ENDBRANCH  29  30
ENDBRANCH  18  29
ENDBRANCH   1  17
TORSDOF 12
ENDMDL
