MODEL 1
REMARK VINA RESULT:      -4.9      0.000      0.000
REMARK  Name = 
REMARK  4 active torsions:
REMARK  status: ('A' for Active; 'I' for Inactive)
REMARK    1  A    between atoms: C_1  and  C_2
REMARK    2  A    between atoms: N_4  and  C_5
REMARK    3  A    between atoms: C_8  and  C_9
REMARK    4  A    between atoms: C_9  and  O_10
REMARK                            x       y       z     vdW  Elec       q    Type
REMARK                         _______ _______ _______ _____ _____    ______ ____
ROOT
ATOM      1  C   UNL     1       7.035  -3.800  23.997  0.00  0.00    +0.061 A 
ATOM      2  C   UNL     1       6.884  -3.427  25.340  0.00  0.00    +0.037 A 
ATOM      3  I   UNL     1       8.211  -2.105  26.297  0.00  0.00    -0.042 I 
ATOM      4  C   UNL     1       5.808  -3.901  26.089  0.00  0.00    +0.031 A 
ATOM      5  C   UNL     1       4.856  -4.751  25.501  0.00  0.00    +0.029 A 
ATOM      6  I   UNL     1       3.226  -5.245  26.748  0.00  0.00    -0.043 I 
ATOM      7  C   UNL     1       5.018  -5.194  24.174  0.00  0.00    +0.087 A 
ATOM      8  C   UNL     1       6.150  -4.756  23.448  0.00  0.00    +0.051 A 
ATOM      9  I   UNL     1       6.743  -5.814  21.653  0.00  0.00    -0.041 I 
ENDROOT
BRANCH   1  12
ATOM     10  C   UNL     1       9.080  -1.461  21.897  0.00  0.00    +0.109 C 
ATOM     11  C   UNL     1       7.839  -2.001  22.552  0.00  0.00    +0.214 C 
ATOM     12  N   UNL     1       8.066  -3.187  23.239  0.00  0.00    -0.284 N 
ATOM     13  H   UNL     1       8.998  -3.243  23.646  0.00  0.00    +0.155 HD
ATOM     14  O   UNL     1       6.769  -1.400  22.518  0.00  0.00    -0.276 OA
ENDBRANCH   1  12
BRANCH   7  15
ATOM     15  C   UNL     1       4.024  -6.118  23.567  0.00  0.00    +0.339 C 
ATOM     16  O   UNL     1       3.125  -5.754  22.832  0.00  0.00    -0.245 OA
BRANCH  15  17
ATOM     17  O   UNL     1       4.249  -7.418  23.859  0.00  0.00    -0.477 OA
ATOM     18  H   UNL     1       4.752  -7.927  23.191  0.00  0.00    +0.295 HD
ENDBRANCH  15  17
ENDBRANCH   7  15
TORSDOF 3
ENDMDL
MODEL 2
REMARK VINA RESULT:      -4.7      4.547      6.032
REMARK  Name = 
REMARK  4 active torsions:
REMARK  status: ('A' for Active; 'I' for Inactive)
REMARK    1  A    between atoms: C_1  and  C_2
REMARK    2  A    between atoms: N_4  and  C_5
REMARK    3  A    between atoms: C_8  and  C_9
REMARK    4  A    between atoms: C_9  and  O_10
REMARK                            x       y       z     vdW  Elec       q    Type
REMARK                         _______ _______ _______ _____ _____    ______ ____
ROOT
ATOM      1  C   UNL     1       7.905   1.176  24.436  0.00  0.00    +0.061 A 
ATOM      2  C   UNL     1       6.571   0.753  24.523  0.00  0.00    +0.037 A 
ATOM      3  I   UNL     1       5.051   1.980  25.302  0.00  0.00    -0.042 I 
ATOM      4  C   UNL     1       6.196  -0.505  24.054  0.00  0.00    +0.031 A 
ATOM      5  C   UNL     1       7.151  -1.359  23.478  0.00  0.00    +0.029 A 
ATOM      6  I   UNL     1       6.368  -3.157  22.697  0.00  0.00    -0.043 I 
ATOM      7  C   UNL     1       8.508  -0.987  23.437  0.00  0.00    +0.087 A 
ATOM      8  C   UNL     1       8.884   0.265  23.976  0.00  0.00    +0.051 A 
ATOM      9  I   UNL     1      10.964   0.647  24.447  0.00  0.00    -0.041 I 
ENDROOT
BRANCH   1  12
ATOM     10  C   UNL     1       8.536   4.873  24.437  0.00  0.00    +0.109 C 
ATOM     11  C   UNL     1       8.303   3.513  23.840  0.00  0.00    +0.214 C 
ATOM     12  N   UNL     1       8.214   2.513  24.800  0.00  0.00    -0.284 N 
ATOM     13  H   UNL     1       7.802   2.831  25.675  0.00  0.00    +0.155 HD
ATOM     14  O   UNL     1       8.147   3.347  22.634  0.00  0.00    -0.276 OA
ENDBRANCH   1  12
BRANCH   7  15
ATOM     15  C   UNL     1       9.520  -1.909  22.855  0.00  0.00    +0.339 C 
ATOM     16  O   UNL     1      10.038  -2.820  23.474  0.00  0.00    -0.245 OA
BRANCH  15  17
ATOM     17  O   UNL     1       9.768  -1.679  21.547  0.00  0.00    -0.477 OA
ATOM     18  H   UNL     1      10.544  -2.142  21.171  0.00  0.00    +0.295 HD
ENDBRANCH  15  17
ENDBRANCH   7  15
TORSDOF 3
ENDMDL
MODEL 3
REMARK VINA RESULT:      -4.7      3.826      6.066
REMARK  Name = 
REMARK  4 active torsions:
REMARK  status: ('A' for Active; 'I' for Inactive)
REMARK    1  A    between atoms: C_1  and  C_2
REMARK    2  A    between atoms: N_4  and  C_5
REMARK    3  A    between atoms: C_8  and  C_9
REMARK    4  A    between atoms: C_9  and  O_10
REMARK                            x       y       z     vdW  Elec       q    Type
REMARK                         _______ _______ _______ _____ _____    ______ ____
ROOT
ATOM      1  C   UNL     1       7.419  -1.314  25.083  0.00  0.00    +0.061 A 
ATOM      2  C   UNL     1       7.568  -0.063  25.697  0.00  0.00    +0.037 A 
ATOM      3  I   UNL     1       6.677   0.395  27.547  0.00  0.00    -0.042 I 
ATOM      4  C   UNL     1       8.355   0.925  25.108  0.00  0.00    +0.031 A 
ATOM      5  C   UNL     1       9.018   0.672  23.896  0.00  0.00    +0.029 A 
ATOM      6  I   UNL     1      10.276   2.234  23.237  0.00  0.00    -0.043 I 
ATOM      7  C   UNL     1       8.835  -0.552  23.224  0.00  0.00    +0.087 A 
ATOM      8  C   UNL     1       7.981  -1.520  23.802  0.00  0.00    +0.051 A 
ATOM      9  I   UNL     1       7.229  -3.145  22.583  0.00  0.00    -0.041 I 
ENDROOT
BRANCH   1  12
ATOM     10  C   UNL     1       6.488  -4.231  27.249  0.00  0.00    +0.109 C 
ATOM     11  C   UNL     1       7.406  -3.310  26.494  0.00  0.00    +0.214 C 
ATOM     12  N   UNL     1       6.720  -2.332  25.785  0.00  0.00    -0.284 N 
ATOM     13  H   UNL     1       5.860  -2.034  26.240  0.00  0.00    +0.155 HD
ATOM     14  O   UNL     1       8.627  -3.400  26.568  0.00  0.00    -0.276 OA
ENDBRANCH   1  12
BRANCH   7  15
ATOM     15  C   UNL     1       9.514  -0.802  21.925  0.00  0.00    +0.339 C 
ATOM     16  O   UNL     1       9.190  -0.268  20.880  0.00  0.00    -0.245 OA
BRANCH  15  17
ATOM     17  O   UNL     1      10.572  -1.636  22.022  0.00  0.00    -0.477 OA
ATOM     18  H   UNL     1      11.454  -1.211  22.021  0.00  0.00    +0.295 HD
ENDBRANCH  15  17
ENDBRANCH   7  15
TORSDOF 3
ENDMDL
MODEL 4
REMARK VINA RESULT:      -4.6      2.458      5.156
REMARK  Name = 
REMARK  4 active torsions:
REMARK  status: ('A' for Active; 'I' for Inactive)
REMARK    1  A    between atoms: C_1  and  C_2
REMARK    2  A    between atoms: N_4  and  C_5
REMARK    3  A    between atoms: C_8  and  C_9
REMARK    4  A    between atoms: C_9  and  O_10
REMARK                            x       y       z     vdW  Elec       q    Type
REMARK                         _______ _______ _______ _____ _____    ______ ____
ROOT
ATOM      1  C   UNL     1       5.835  -3.753  24.842  0.00  0.00    +0.061 A 
ATOM      2  C   UNL     1       5.493  -2.638  25.620  0.00  0.00    +0.037 A 
ATOM      3  I   UNL     1       3.785  -2.606  26.848  0.00  0.00    -0.042 I 
ATOM      4  C   UNL     1       6.307  -1.507  25.633  0.00  0.00    +0.031 A 
ATOM      5  C   UNL     1       7.488  -1.476  24.872  0.00  0.00    +0.029 A 
ATOM      6  I   UNL     1       8.659   0.260  25.134  0.00  0.00    -0.043 I 
ATOM      7  C   UNL     1       7.823  -2.555  24.032  0.00  0.00    +0.087 A 
ATOM      8  C   UNL     1       6.953  -3.669  23.980  0.00  0.00    +0.051 A 
ATOM      9  I   UNL     1       7.107  -5.070  22.335  0.00  0.00    -0.041 I 
ENDROOT
BRANCH   1  12
ATOM     10  C   UNL     1       4.432  -7.075  25.870  0.00  0.00    +0.109 C 
ATOM     11  C   UNL     1       5.446  -5.968  25.800  0.00  0.00    +0.214 C 
ATOM     12  N   UNL     1       5.051  -4.929  24.966  0.00  0.00    -0.284 N 
ATOM     13  H   UNL     1       4.043  -4.783  24.957  0.00  0.00    +0.155 HD
ATOM     14  O   UNL     1       6.475  -5.980  26.469  0.00  0.00    -0.276 OA
ENDBRANCH   1  12
BRANCH   7  15
ATOM     15  C   UNL     1       9.058  -2.504  23.206  0.00  0.00    +0.339 C 
ATOM     16  O   UNL     1       9.116  -1.975  22.110  0.00  0.00    -0.245 OA
BRANCH  15  17
ATOM     17  O   UNL     1      10.136  -3.048  23.812  0.00  0.00    -0.477 OA
ATOM     18  H   UNL     1      10.913  -2.462  23.912  0.00  0.00    +0.295 HD
ENDBRANCH  15  17
ENDBRANCH   7  15
TORSDOF 3
ENDMDL
MODEL 5
REMARK VINA RESULT:      -4.5      2.767      3.111
REMARK  Name = 
REMARK  4 active torsions:
REMARK  status: ('A' for Active; 'I' for Inactive)
REMARK    1  A    between atoms: C_1  and  C_2
REMARK    2  A    between atoms: N_4  and  C_5
REMARK    3  A    between atoms: C_8  and  C_9
REMARK    4  A    between atoms: C_9  and  O_10
REMARK                            x       y       z     vdW  Elec       q    Type
REMARK                         _______ _______ _______ _____ _____    ______ ____
ROOT
ATOM      1  C   UNL     1       7.605  -2.408  25.224  0.00  0.00    +0.061 A 
ATOM      2  C   UNL     1       6.682  -1.493  25.748  0.00  0.00    +0.037 A 
ATOM      3  I   UNL     1       6.611   0.515  25.126  0.00  0.00    -0.042 I 
ATOM      4  C   UNL     1       5.739  -1.900  26.690  0.00  0.00    +0.031 A 
ATOM      5  C   UNL     1       5.697  -3.238  27.117  0.00  0.00    +0.029 A 
ATOM      6  I   UNL     1       4.112  -3.694  28.434  0.00  0.00    -0.043 I 
ATOM      7  C   UNL     1       6.654  -4.163  26.657  0.00  0.00    +0.087 A 
ATOM      8  C   UNL     1       7.645  -3.719  25.750  0.00  0.00    +0.051 A 
ATOM      9  I   UNL     1       9.430  -4.908  25.452  0.00  0.00    -0.041 I 
ENDROOT
BRANCH   1  12
ATOM     10  C   UNL     1       9.098  -1.603  21.879  0.00  0.00    +0.109 C 
ATOM     11  C   UNL     1       8.125  -2.224  22.843  0.00  0.00    +0.214 C 
ATOM     12  N   UNL     1       8.455  -1.980  24.170  0.00  0.00    -0.284 N 
ATOM     13  H   UNL     1       8.906  -1.078  24.313  0.00  0.00    +0.155 HD
ATOM     14  O   UNL     1       7.121  -2.820  22.464  0.00  0.00    -0.276 OA
ENDBRANCH   1  12
BRANCH   7  15
ATOM     15  C   UNL     1       6.624  -5.571  27.136  0.00  0.00    +0.339 C 
ATOM     16  O   UNL     1       7.144  -5.942  28.173  0.00  0.00    -0.245 OA
BRANCH  15  17
ATOM     17  O   UNL     1       5.909  -6.396  26.340  0.00  0.00    -0.477 OA
ATOM     18  H   UNL     1       5.240  -5.967  25.770  0.00  0.00    +0.295 HD
ENDBRANCH  15  17
ENDBRANCH   7  15
TORSDOF 3
ENDMDL
MODEL 6
REMARK VINA RESULT:      -4.5      3.129      5.496
REMARK  Name = 
REMARK  4 active torsions:
REMARK  status: ('A' for Active; 'I' for Inactive)
REMARK    1  A    between atoms: C_1  and  C_2
REMARK    2  A    between atoms: N_4  and  C_5
REMARK    3  A    between atoms: C_8  and  C_9
REMARK    4  A    between atoms: C_9  and  O_10
REMARK                            x       y       z     vdW  Elec       q    Type
REMARK                         _______ _______ _______ _____ _____    ______ ____
ROOT
ATOM      1  C   UNL     1       6.904  -2.445  23.787  0.00  0.00    +0.061 A 
ATOM      2  C   UNL     1       5.820  -2.350  24.670  0.00  0.00    +0.037 A 
ATOM      3  I   UNL     1       4.221  -3.716  24.638  0.00  0.00    -0.042 I 
ATOM      4  C   UNL     1       5.783  -1.350  25.639  0.00  0.00    +0.031 A 
ATOM      5  C   UNL     1       6.840  -0.430  25.749  0.00  0.00    +0.029 A 
ATOM      6  I   UNL     1       6.674   0.915  27.366  0.00  0.00    -0.043 I 
ATOM      7  C   UNL     1       7.910  -0.462  24.834  0.00  0.00    +0.087 A 
ATOM      8  C   UNL     1       7.902  -1.443  23.815  0.00  0.00    +0.051 A 
ATOM      9  I   UNL     1       9.183  -1.199  22.086  0.00  0.00    -0.041 I 
ENDROOT
BRANCH   1  12
ATOM     10  C   UNL     1       7.471  -5.822  22.257  0.00  0.00    +0.109 C 
ATOM     11  C   UNL     1       7.609  -4.730  23.282  0.00  0.00    +0.214 C 
ATOM     12  N   UNL     1       6.963  -3.559  22.908  0.00  0.00    -0.284 N 
ATOM     13  H   UNL     1       6.124  -3.721  22.355  0.00  0.00    +0.155 HD
ATOM     14  O   UNL     1       8.182  -4.908  24.352  0.00  0.00    -0.276 OA
ENDBRANCH   1  12
BRANCH   7  15
ATOM     15  C   UNL     1       9.011   0.533  24.935  0.00  0.00    +0.339 C 
ATOM     16  O   UNL     1       8.962   1.646  24.445  0.00  0.00    -0.245 OA
BRANCH  15  17
ATOM     17  O   UNL     1      10.056   0.107  25.679  0.00  0.00    -0.477 OA
ATOM     18  H   UNL     1      10.081   0.425  26.604  0.00  0.00    +0.295 HD
ENDBRANCH  15  17
ENDBRANCH   7  15
TORSDOF 3
ENDMDL
MODEL 7
REMARK VINA RESULT:      -4.4      4.681      7.067
REMARK  Name = 
REMARK  4 active torsions:
REMARK  status: ('A' for Active; 'I' for Inactive)
REMARK    1  A    between atoms: C_1  and  C_2
REMARK    2  A    between atoms: N_4  and  C_5
REMARK    3  A    between atoms: C_8  and  C_9
REMARK    4  A    between atoms: C_9  and  O_10
REMARK                            x       y       z     vdW  Elec       q    Type
REMARK                         _______ _______ _______ _____ _____    ______ ____
ROOT
ATOM      1  C   UNL     1       7.666  -0.425  24.608  0.00  0.00    +0.061 A 
ATOM      2  C   UNL     1       6.612   0.368  25.083  0.00  0.00    +0.037 A 
ATOM      3  I   UNL     1       5.069  -0.412  26.281  0.00  0.00    -0.042 I 
ATOM      4  C   UNL     1       6.571   1.732  24.802  0.00  0.00    +0.031 A 
ATOM      5  C   UNL     1       7.594   2.331  24.046  0.00  0.00    +0.029 A 
ATOM      6  I   UNL     1       7.433   4.426  23.849  0.00  0.00    -0.043 I 
ATOM      7  C   UNL     1       8.629   1.547  23.502  0.00  0.00    +0.087 A 
ATOM      8  C   UNL     1       8.622   0.153  23.742  0.00  0.00    +0.051 A 
ATOM      9  I   UNL     1       9.828  -1.151  22.502  0.00  0.00    -0.041 I 
ENDROOT
BRANCH   1  12
ATOM     10  C   UNL     1       8.288  -3.589  26.523  0.00  0.00    +0.109 C 
ATOM     11  C   UNL     1       8.416  -2.128  26.193  0.00  0.00    +0.214 C 
ATOM     12  N   UNL     1       7.737  -1.778  25.033  0.00  0.00    -0.284 N 
ATOM     13  H   UNL     1       6.893  -2.327  24.880  0.00  0.00    +0.155 HD
ATOM     14  O   UNL     1       9.010  -1.342  26.925  0.00  0.00    -0.276 OA
ENDBRANCH   1  12
BRANCH   7  15
ATOM     15  C   UNL     1       9.692   2.181  22.677  0.00  0.00    +0.339 C 
ATOM     16  O   UNL     1      10.753   2.571  23.127  0.00  0.00    -0.245 OA
BRANCH  15  17
ATOM     17  O   UNL     1       9.394   2.229  21.359  0.00  0.00    -0.477 OA
ATOM     18  H   UNL     1       8.444   2.168  21.132  0.00  0.00    +0.295 HD
ENDBRANCH  15  17
ENDBRANCH   7  15
TORSDOF 3
ENDMDL
MODEL 8
REMARK VINA RESULT:      -4.4      2.156      3.498
REMARK  Name = 
REMARK  4 active torsions:
REMARK  status: ('A' for Active; 'I' for Inactive)
REMARK    1  A    between atoms: C_1  and  C_2
REMARK    2  A    between atoms: N_4  and  C_5
REMARK    3  A    between atoms: C_8  and  C_9
REMARK    4  A    between atoms: C_9  and  O_10
REMARK                            x       y       z     vdW  Elec       q    Type
REMARK                         _______ _______ _______ _____ _____    ______ ____
ROOT
ATOM      1  C   UNL     1       7.078  -4.123  24.114  0.00  0.00    +0.061 A 
ATOM      2  C   UNL     1       6.248  -5.054  23.474  0.00  0.00    +0.037 A 
ATOM      3  I   UNL     1       6.421  -5.492  21.424  0.00  0.00    -0.042 I 
ATOM      4  C   UNL     1       5.286  -5.758  24.196  0.00  0.00    +0.031 A 
ATOM      5  C   UNL     1       5.146  -5.551  25.579  0.00  0.00    +0.029 A 
ATOM      6  I   UNL     1       3.740  -6.812  26.521  0.00  0.00    -0.043 I 
ATOM      7  C   UNL     1       5.921  -4.575  26.235  0.00  0.00    +0.087 A 
ATOM      8  C   UNL     1       6.847  -3.822  25.477  0.00  0.00    +0.051 A 
ATOM      9  I   UNL     1       7.639  -1.975  26.284  0.00  0.00    -0.041 I 
ENDROOT
BRANCH   1  12
ATOM     10  C   UNL     1       9.187  -1.834  22.023  0.00  0.00    +0.109 C 
ATOM     11  C   UNL     1       7.928  -2.351  22.661  0.00  0.00    +0.214 C 
ATOM     12  N   UNL     1       8.129  -3.531  23.367  0.00  0.00    -0.284 N 
ATOM     13  H   UNL     1       9.053  -3.592  23.792  0.00  0.00    +0.155 HD
ATOM     14  O   UNL     1       6.866  -1.739  22.601  0.00  0.00    -0.276 OA
ENDBRANCH   1  12
BRANCH   7  15
ATOM     15  C   UNL     1       5.746  -4.338  27.693  0.00  0.00    +0.339 C 
ATOM     16  O   UNL     1       4.913  -3.582  28.158  0.00  0.00    -0.245 OA
BRANCH  15  17
ATOM     17  O   UNL     1       6.563  -5.089  28.463  0.00  0.00    -0.477 OA
ATOM     18  H   UNL     1       7.174  -4.596  29.047  0.00  0.00    +0.295 HD
ENDBRANCH  15  17
ENDBRANCH   7  15
TORSDOF 3
ENDMDL
MODEL 9
REMARK VINA RESULT:      -4.4      4.098      5.525
REMARK  Name = 
REMARK  4 active torsions:
REMARK  status: ('A' for Active; 'I' for Inactive)
REMARK    1  A    between atoms: C_1  and  C_2
REMARK    2  A    between atoms: N_4  and  C_5
REMARK    3  A    between atoms: C_8  and  C_9
REMARK    4  A    between atoms: C_9  and  O_10
REMARK                            x       y       z     vdW  Elec       q    Type
REMARK                         _______ _______ _______ _____ _____    ______ ____
ROOT
ATOM      1  C   UNL     1       7.907   0.468  25.732  0.00  0.00    +0.061 A 
ATOM      2  C   UNL     1       6.881  -0.257  26.353  0.00  0.00    +0.037 A 
ATOM      3  I   UNL     1       5.652   0.582  27.840  0.00  0.00    -0.042 I 
ATOM      4  C   UNL     1       6.614  -1.572  25.974  0.00  0.00    +0.031 A 
ATOM      5  C   UNL     1       7.365  -2.181  24.955  0.00  0.00    +0.029 A 
ATOM      6  I   UNL     1       6.719  -4.118  24.423  0.00  0.00    -0.043 I 
ATOM      7  C   UNL     1       8.443  -1.500  24.359  0.00  0.00    +0.087 A 
ATOM      8  C   UNL     1       8.743  -0.190  24.800  0.00  0.00    +0.051 A 
ATOM      9  I   UNL     1      10.676   0.675  24.344  0.00  0.00    -0.041 I 
ENDROOT
BRANCH   1  12
ATOM     10  C   UNL     1       7.693   4.212  25.801  0.00  0.00    +0.109 C 
ATOM     11  C   UNL     1       7.522   2.829  25.234  0.00  0.00    +0.214 C 
ATOM     12  N   UNL     1       8.053   1.843  26.054  0.00  0.00    -0.284 N 
ATOM     13  H   UNL     1       7.988   2.066  27.046  0.00  0.00    +0.155 HD
ATOM     14  O   UNL     1       6.915   2.623  24.187  0.00  0.00    -0.276 OA
ENDBRANCH   1  12
BRANCH   7  15
ATOM     15  C   UNL     1       9.255  -2.161  23.303  0.00  0.00    +0.339 C 
ATOM     16  O   UNL     1       9.114  -1.951  22.112  0.00  0.00    -0.245 OA
BRANCH  15  17
ATOM     17  O   UNL     1      10.213  -2.979  23.792  0.00  0.00    -0.477 OA
ATOM     18  H   UNL     1      10.733  -2.627  24.543  0.00  0.00    +0.295 HD
ENDBRANCH  15  17
ENDBRANCH   7  15
TORSDOF 3
ENDMDL
