MODEL 1
REMARK VINA RESULT:      -6.8      0.000      0.000
REMARK  Name = 
REMARK  5 active torsions:
REMARK  status: ('A' for Active; 'I' for Inactive)
REMARK    1  A    between atoms: C_5  and  C_6
REMARK    2  A    between atoms: C_10  and  C_16
REMARK    3  A    between atoms: C_13  and  C_14
REMARK    4  A    between atoms: C_13  and  C_15
REMARK    5  A    between atoms: C_19  and  O_20
REMARK                            x       y       z     vdW  Elec       q    Type
REMARK                         _______ _______ _______ _____ _____    ______ ____
ROOT
ATOM      1  C   UNL     1       5.534  -4.184  23.800  0.00  0.00    +0.025 C 
ATOM      2  C   UNL     1       6.410  -4.219  22.501  0.00  0.00    +0.068 C 
ATOM      3  C   UNL     1       6.250  -5.559  21.760  0.00  0.00    +0.041 C 
ATOM      4  C   UNL     1       5.962  -3.126  21.509  0.00  0.00    +0.041 C 
ATOM      5  O   UNL     1       7.822  -4.080  22.739  0.00  0.00    -0.365 OA
ATOM      6  C   UNL     1       8.269  -3.092  23.688  0.00  0.00    +0.156 C 
ATOM      7  C   UNL     1       7.447  -3.164  25.001  0.00  0.00    +0.048 C 
ATOM      8  C   UNL     1       7.683  -4.502  25.710  0.00  0.00    -0.071 C 
ATOM      9  C   UNL     1       8.905  -4.609  26.578  0.00  0.00    +0.039 C 
ATOM     10  C   UNL     1       6.821  -5.525  25.567  0.00  0.00    -0.027 C 
ATOM     11  C   UNL     1       5.952  -3.006  24.681  0.00  0.00    +0.017 C 
ATOM     12  C   UNL     1       5.595  -5.441  24.701  0.00  0.00    +0.033 C 
ENDROOT
BRANCH   6  13
ATOM     13  C   UNL     1       8.444  -1.712  23.047  0.00  0.00    -0.018 A 
ATOM     14  C   UNL     1       9.325  -1.567  21.961  0.00  0.00    +0.010 A 
ATOM     15  C   UNL     1       9.525  -0.323  21.356  0.00  0.00    +0.046 A 
ATOM     16  C   UNL     1       8.842   0.791  21.825  0.00  0.00    +0.117 A 
ATOM     17  C   UNL     1       7.972   0.684  22.899  0.00  0.00    +0.046 A 
ATOM     18  C   UNL     1       7.794  -0.557  23.518  0.00  0.00    +0.010 A 
BRANCH  16  19
ATOM     19  O   UNL     1       9.047   1.986  21.203  0.00  0.00    -0.507 OA
ATOM     20  H   UNL     1       9.989   2.063  20.981  0.00  0.00    +0.292 HD
ENDBRANCH  16  19
ENDBRANCH   6  13
TORSDOF 2
ENDMDL
MODEL 2
REMARK VINA RESULT:      -6.7      1.661      2.079
REMARK  Name = 
REMARK  5 active torsions:
REMARK  status: ('A' for Active; 'I' for Inactive)
REMARK    1  A    between atoms: C_5  and  C_6
REMARK    2  A    between atoms: C_10  and  C_16
REMARK    3  A    between atoms: C_13  and  C_14
REMARK    4  A    between atoms: C_13  and  C_15
REMARK    5  A    between atoms: C_19  and  O_20
REMARK                            x       y       z     vdW  Elec       q    Type
REMARK                         _______ _______ _______ _____ _____    ______ ____
ROOT
ATOM      1  C   UNL     1       6.638  -2.612  26.069  0.00  0.00    +0.025 C 
ATOM      2  C   UNL     1       6.305  -2.457  24.546  0.00  0.00    +0.068 C 
ATOM      3  C   UNL     1       5.024  -3.230  24.176  0.00  0.00    +0.041 C 
ATOM      4  C   UNL     1       6.029  -0.981  24.193  0.00  0.00    +0.041 C 
ATOM      5  O   UNL     1       7.323  -2.963  23.665  0.00  0.00    -0.365 OA
ATOM      6  C   UNL     1       8.703  -2.675  23.967  0.00  0.00    +0.156 C 
ATOM      7  C   UNL     1       9.017  -2.946  25.461  0.00  0.00    +0.048 C 
ATOM      8  C   UNL     1       8.865  -4.437  25.781  0.00  0.00    -0.071 C 
ATOM      9  C   UNL     1      10.034  -5.326  25.469  0.00  0.00    +0.039 C 
ATOM     10  C   UNL     1       7.734  -4.916  26.331  0.00  0.00    -0.027 C 
ATOM     11  C   UNL     1       8.062  -2.127  26.344  0.00  0.00    +0.017 C 
ATOM     12  C   UNL     1       6.549  -4.045  26.647  0.00  0.00    +0.033 C 
ENDROOT
BRANCH   6  13
ATOM     13  C   UNL     1       9.153  -1.330  23.389  0.00  0.00    -0.018 A 
ATOM     14  C   UNL     1       8.926  -1.058  22.029  0.00  0.00    +0.010 A 
ATOM     15  C   UNL     1       9.333   0.152  21.458  0.00  0.00    +0.046 A 
ATOM     16  C   UNL     1       9.967   1.107  22.242  0.00  0.00    +0.117 A 
ATOM     17  C   UNL     1      10.213   0.866  23.585  0.00  0.00    +0.046 A 
ATOM     18  C   UNL     1       9.826  -0.355  24.146  0.00  0.00    +0.010 A 
BRANCH  16  19
ATOM     19  O   UNL     1      10.337   2.282  21.659  0.00  0.00    -0.507 OA
ATOM     20  H   UNL     1      10.737   2.851  22.337  0.00  0.00    +0.292 HD
ENDBRANCH  16  19
ENDBRANCH   6  13
TORSDOF 2
ENDMDL
MODEL 3
REMARK VINA RESULT:      -6.6      2.223      6.024
REMARK  Name = 
REMARK  5 active torsions:
REMARK  status: ('A' for Active; 'I' for Inactive)
REMARK    1  A    between atoms: C_5  and  C_6
REMARK    2  A    between atoms: C_10  and  C_16
REMARK    3  A    between atoms: C_13  and  C_14
REMARK    4  A    between atoms: C_13  and  C_15
REMARK    5  A    between atoms: C_19  and  O_20
REMARK                            x       y       z     vdW  Elec       q    Type
REMARK                         _______ _______ _______ _____ _____    ______ ____
ROOT
ATOM      1  C   UNL     1      10.426   0.636  23.627  0.00  0.00    +0.025 C 
ATOM      2  C   UNL     1       9.491  -0.263  22.748  0.00  0.00    +0.068 C 
ATOM      3  C   UNL     1       9.383   0.285  21.312  0.00  0.00    +0.041 C 
ATOM      4  C   UNL     1      10.064  -1.689  22.619  0.00  0.00    +0.041 C 
ATOM      5  O   UNL     1       8.137  -0.348  23.226  0.00  0.00    -0.365 OA
ATOM      6  C   UNL     1       7.913  -0.522  24.640  0.00  0.00    +0.156 C 
ATOM      7  C   UNL     1       8.779   0.462  25.469  0.00  0.00    +0.048 C 
ATOM      8  C   UNL     1       8.357   1.909  25.197  0.00  0.00    -0.071 C 
ATOM      9  C   UNL     1       7.181   2.436  25.970  0.00  0.00    +0.039 C 
ATOM     10  C   UNL     1       9.026   2.672  24.312  0.00  0.00    -0.027 C 
ATOM     11  C   UNL     1      10.260   0.276  25.104  0.00  0.00    +0.017 C 
ATOM     12  C   UNL     1      10.202   2.164  23.525  0.00  0.00    +0.033 C 
ENDROOT
BRANCH   6  13
ATOM     13  C   UNL     1       7.940  -1.997  25.052  0.00  0.00    -0.018 A 
ATOM     14  C   UNL     1       8.571  -2.361  26.254  0.00  0.00    +0.010 A 
ATOM     15  C   UNL     1       8.631  -3.698  26.661  0.00  0.00    +0.046 A 
ATOM     16  C   UNL     1       8.055  -4.686  25.874  0.00  0.00    +0.117 A 
ATOM     17  C   UNL     1       7.432  -4.361  24.678  0.00  0.00    +0.046 A 
ATOM     18  C   UNL     1       7.395  -3.026  24.263  0.00  0.00    +0.010 A 
BRANCH  16  19
ATOM     19  O   UNL     1       8.116  -5.977  26.306  0.00  0.00    -0.507 OA
ATOM     20  H   UNL     1       7.633  -6.537  25.677  0.00  0.00    +0.292 HD
ENDBRANCH  16  19
ENDBRANCH   6  13
TORSDOF 2
ENDMDL
MODEL 4
REMARK VINA RESULT:      -6.6      1.320      3.065
REMARK  Name = 
REMARK  5 active torsions:
REMARK  status: ('A' for Active; 'I' for Inactive)
REMARK    1  A    between atoms: C_5  and  C_6
REMARK    2  A    between atoms: C_10  and  C_16
REMARK    3  A    between atoms: C_13  and  C_14
REMARK    4  A    between atoms: C_13  and  C_15
REMARK    5  A    between atoms: C_19  and  O_20
REMARK                            x       y       z     vdW  Elec       q    Type
REMARK                         _______ _______ _______ _____ _____    ______ ____
ROOT
ATOM      1  C   UNL     1       8.058  -3.656  25.729  0.00  0.00    +0.025 C 
ATOM      2  C   UNL     1       7.227  -2.328  25.737  0.00  0.00    +0.068 C 
ATOM      3  C   UNL     1       6.192  -2.328  26.878  0.00  0.00    +0.041 C 
ATOM      4  C   UNL     1       8.141  -1.111  25.989  0.00  0.00    +0.041 C 
ATOM      5  O   UNL     1       6.470  -2.099  24.535  0.00  0.00    -0.365 OA
ATOM      6  C   UNL     1       7.098  -2.358  23.264  0.00  0.00    +0.156 C 
ATOM      7  C   UNL     1       7.817  -3.732  23.264  0.00  0.00    +0.048 C 
ATOM      8  C   UNL     1       6.803  -4.869  23.422  0.00  0.00    -0.071 C 
ATOM      9  C   UNL     1       6.103  -5.339  22.178  0.00  0.00    +0.039 C 
ATOM     10  C   UNL     1       6.568  -5.426  24.624  0.00  0.00    -0.027 C 
ATOM     11  C   UNL     1       8.833  -3.780  24.416  0.00  0.00    +0.017 C 
ATOM     12  C   UNL     1       7.253  -4.970  25.882  0.00  0.00    +0.033 C 
ENDROOT
BRANCH   6  13
ATOM     13  C   UNL     1       7.892  -1.151  22.755  0.00  0.00    -0.018 A 
ATOM     14  C   UNL     1       7.316   0.129  22.828  0.00  0.00    +0.010 A 
ATOM     15  C   UNL     1       8.001   1.256  22.362  0.00  0.00    +0.046 A 
ATOM     16  C   UNL     1       9.273   1.116  21.823  0.00  0.00    +0.117 A 
ATOM     17  C   UNL     1       9.866  -0.134  21.728  0.00  0.00    +0.046 A 
ATOM     18  C   UNL     1       9.168  -1.261  22.172  0.00  0.00    +0.010 A 
BRANCH  16  19
ATOM     19  O   UNL     1       9.920   2.236  21.392  0.00  0.00    -0.507 OA
ATOM     20  H   UNL     1       9.996   2.855  22.136  0.00  0.00    +0.292 HD
ENDBRANCH  16  19
ENDBRANCH   6  13
TORSDOF 2
ENDMDL
MODEL 5
REMARK VINA RESULT:      -6.3      1.898      5.360
REMARK  Name = 
REMARK  5 active torsions:
REMARK  status: ('A' for Active; 'I' for Inactive)
REMARK    1  A    between atoms: C_5  and  C_6
REMARK    2  A    between atoms: C_10  and  C_16
REMARK    3  A    between atoms: C_13  and  C_14
REMARK    4  A    between atoms: C_13  and  C_15
REMARK    5  A    between atoms: C_19  and  O_20
REMARK                            x       y       z     vdW  Elec       q    Type
REMARK                         _______ _______ _______ _____ _____    ______ ____
ROOT
ATOM      1  C   UNL     1       9.804  -0.039  23.684  0.00  0.00    +0.025 C 
ATOM      2  C   UNL     1       8.937  -0.207  22.390  0.00  0.00    +0.068 C 
ATOM      3  C   UNL     1       9.039   1.038  21.488  0.00  0.00    +0.041 C 
ATOM      4  C   UNL     1       9.443  -1.391  21.541  0.00  0.00    +0.041 C 
ATOM      5  O   UNL     1       7.531  -0.382  22.641  0.00  0.00    -0.365 OA
ATOM      6  C   UNL     1       7.124  -1.266  23.704  0.00  0.00    +0.156 C 
ATOM      7  C   UNL     1       7.933  -0.993  25.000  0.00  0.00    +0.048 C 
ATOM      8  C   UNL     1       7.628   0.409  25.537  0.00  0.00    -0.071 C 
ATOM      9  C   UNL     1       6.396   0.565  26.383  0.00  0.00    +0.039 C 
ATOM     10  C   UNL     1       8.443   1.447  25.270  0.00  0.00    -0.027 C 
ATOM     11  C   UNL     1       9.436  -1.118  24.703  0.00  0.00    +0.017 C 
ATOM     12  C   UNL     1       9.678   1.316  24.423  0.00  0.00    +0.033 C 
ENDROOT
BRANCH   6  13
ATOM     13  C   UNL     1       7.019  -2.721  23.239  0.00  0.00    -0.018 A 
ATOM     14  C   UNL     1       6.191  -3.033  22.146  0.00  0.00    +0.010 A 
ATOM     15  C   UNL     1       6.056  -4.350  21.697  0.00  0.00    +0.046 A 
ATOM     16  C   UNL     1       6.751  -5.371  22.331  0.00  0.00    +0.117 A 
ATOM     17  C   UNL     1       7.569  -5.098  23.417  0.00  0.00    +0.046 A 
ATOM     18  C   UNL     1       7.683  -3.783  23.879  0.00  0.00    +0.010 A 
BRANCH  16  19
ATOM     19  O   UNL     1       6.610  -6.642  21.860  0.00  0.00    -0.507 OA
ATOM     20  H   UNL     1       5.959  -6.634  21.139  0.00  0.00    +0.292 HD
ENDBRANCH  16  19
ENDBRANCH   6  13
TORSDOF 2
ENDMDL
MODEL 6
REMARK VINA RESULT:      -6.1      1.947      3.721
REMARK  Name = 
REMARK  5 active torsions:
REMARK  status: ('A' for Active; 'I' for Inactive)
REMARK    1  A    between atoms: C_5  and  C_6
REMARK    2  A    between atoms: C_10  and  C_16
REMARK    3  A    between atoms: C_13  and  C_14
REMARK    4  A    between atoms: C_13  and  C_15
REMARK    5  A    between atoms: C_19  and  O_20
REMARK                            x       y       z     vdW  Elec       q    Type
REMARK                         _______ _______ _______ _____ _____    ______ ____
ROOT
ATOM      1  C   UNL     1       9.346  -2.493  24.362  0.00  0.00    +0.025 C 
ATOM      2  C   UNL     1       8.441  -1.563  25.241  0.00  0.00    +0.068 C 
ATOM      3  C   UNL     1       8.189  -2.184  26.628  0.00  0.00    +0.041 C 
ATOM      4  C   UNL     1       9.134  -0.209  25.499  0.00  0.00    +0.041 C 
ATOM      5  O   UNL     1       7.136  -1.319  24.688  0.00  0.00    -0.365 OA
ATOM      6  C   UNL     1       7.023  -1.039  23.279  0.00  0.00    +0.156 C 
ATOM      7  C   UNL     1       7.848  -2.050  22.439  0.00  0.00    +0.048 C 
ATOM      8  C   UNL     1       7.277  -3.463  22.589  0.00  0.00    -0.071 C 
ATOM      9  C   UNL     1       6.112  -3.827  21.713  0.00  0.00    +0.039 C 
ATOM     10  C   UNL     1       7.813  -4.339  23.460  0.00  0.00    -0.027 C 
ATOM     11  C   UNL     1       9.312  -2.030  22.906  0.00  0.00    +0.017 C 
ATOM     12  C   UNL     1       8.975  -3.996  24.349  0.00  0.00    +0.033 C 
ENDROOT
BRANCH   6  13
ATOM     13  C   UNL     1       7.214   0.449  22.968  0.00  0.00    -0.018 A 
ATOM     14  C   UNL     1       8.219   0.837  22.065  0.00  0.00    +0.010 A 
ATOM     15  C   UNL     1       8.436   2.185  21.764  0.00  0.00    +0.046 A 
ATOM     16  C   UNL     1       7.646   3.161  22.357  0.00  0.00    +0.117 A 
ATOM     17  C   UNL     1       6.652   2.812  23.259  0.00  0.00    +0.046 A 
ATOM     18  C   UNL     1       6.454   1.465  23.576  0.00  0.00    +0.010 A 
BRANCH  16  19
ATOM     19  O   UNL     1       7.873   4.465  22.031  0.00  0.00    -0.507 OA
ATOM     20  H   UNL     1       7.151   5.005  22.392  0.00  0.00    +0.292 HD
ENDBRANCH  16  19
ENDBRANCH   6  13
TORSDOF 2
ENDMDL
MODEL 7
REMARK VINA RESULT:      -6.1      2.098      5.529
REMARK  Name = 
REMARK  5 active torsions:
REMARK  status: ('A' for Active; 'I' for Inactive)
REMARK    1  A    between atoms: C_5  and  C_6
REMARK    2  A    between atoms: C_10  and  C_16
REMARK    3  A    between atoms: C_13  and  C_14
REMARK    4  A    between atoms: C_13  and  C_15
REMARK    5  A    between atoms: C_19  and  O_20
REMARK                            x       y       z     vdW  Elec       q    Type
REMARK                         _______ _______ _______ _____ _____    ______ ____
ROOT
ATOM      1  C   UNL     1       7.209   0.206  25.307  0.00  0.00    +0.025 C 
ATOM      2  C   UNL     1       7.948  -1.106  25.741  0.00  0.00    +0.068 C 
ATOM      3  C   UNL     1       8.793  -0.874  27.008  0.00  0.00    +0.041 C 
ATOM      4  C   UNL     1       6.936  -2.213  26.100  0.00  0.00    +0.041 C 
ATOM      5  O   UNL     1       8.867  -1.616  24.758  0.00  0.00    -0.365 OA
ATOM      6  C   UNL     1       8.459  -1.636  23.376  0.00  0.00    +0.156 C 
ATOM      7  C   UNL     1       7.830  -0.281  22.959  0.00  0.00    +0.048 C 
ATOM      8  C   UNL     1       8.873   0.839  23.028  0.00  0.00    -0.071 C 
ATOM      9  C   UNL     1       9.783   1.000  21.843  0.00  0.00    +0.039 C 
ATOM     10  C   UNL     1       8.954   1.647  24.102  0.00  0.00    -0.027 C 
ATOM     11  C   UNL     1       6.654   0.049  23.891  0.00  0.00    +0.017 C 
ATOM     12  C   UNL     1       8.057   1.501  25.300  0.00  0.00    +0.033 C 
ENDROOT
BRANCH   6  13
ATOM     13  C   UNL     1       7.682  -2.907  23.020  0.00  0.00    -0.018 A 
ATOM     14  C   UNL     1       6.501  -2.800  22.264  0.00  0.00    +0.010 A 
ATOM     15  C   UNL     1       5.754  -3.933  21.929  0.00  0.00    +0.046 A 
ATOM     16  C   UNL     1       6.181  -5.189  22.341  0.00  0.00    +0.117 A 
ATOM     17  C   UNL     1       7.336  -5.328  23.095  0.00  0.00    +0.046 A 
ATOM     18  C   UNL     1       8.068  -4.190  23.449  0.00  0.00    +0.010 A 
BRANCH  16  19
ATOM     19  O   UNL     1       5.439  -6.275  21.984  0.00  0.00    -0.507 OA
ATOM     20  H   UNL     1       6.039  -7.024  21.835  0.00  0.00    +0.292 HD
ENDBRANCH  16  19
ENDBRANCH   6  13
TORSDOF 2
ENDMDL
MODEL 8
REMARK VINA RESULT:      -6.0      1.844      2.245
REMARK  Name = 
REMARK  5 active torsions:
REMARK  status: ('A' for Active; 'I' for Inactive)
REMARK    1  A    between atoms: C_5  and  C_6
REMARK    2  A    between atoms: C_10  and  C_16
REMARK    3  A    between atoms: C_13  and  C_14
REMARK    4  A    between atoms: C_13  and  C_15
REMARK    5  A    between atoms: C_19  and  O_20
REMARK                            x       y       z     vdW  Elec       q    Type
REMARK                         _______ _______ _______ _____ _____    ______ ____
ROOT
ATOM      1  C   UNL     1       5.631  -4.279  23.638  0.00  0.00    +0.025 C 
ATOM      2  C   UNL     1       7.032  -4.426  22.951  0.00  0.00    +0.068 C 
ATOM      3  C   UNL     1       7.060  -5.639  22.002  0.00  0.00    +0.041 C 
ATOM      4  C   UNL     1       7.346  -3.194  22.079  0.00  0.00    +0.041 C 
ATOM      5  O   UNL     1       8.119  -4.635  23.870  0.00  0.00    -0.365 OA
ATOM      6  C   UNL     1       8.168  -3.845  25.074  0.00  0.00    +0.156 C 
ATOM      7  C   UNL     1       6.787  -3.815  25.780  0.00  0.00    +0.048 C 
ATOM      8  C   UNL     1       6.401  -5.216  26.264  0.00  0.00    -0.071 C 
ATOM      9  C   UNL     1       6.963  -5.663  27.584  0.00  0.00    +0.039 C 
ATOM     10  C   UNL     1       5.581  -6.000  25.539  0.00  0.00    -0.027 C 
ATOM     11  C   UNL     1       5.722  -3.293  24.803  0.00  0.00    +0.017 C 
ATOM     12  C   UNL     1       5.011  -5.575  24.214  0.00  0.00    +0.033 C 
ENDROOT
BRANCH   6  13
ATOM     13  C   UNL     1       8.872  -2.503  24.857  0.00  0.00    -0.018 A 
ATOM     14  C   UNL     1       8.523  -1.407  25.666  0.00  0.00    +0.010 A 
ATOM     15  C   UNL     1       9.132  -0.160  25.492  0.00  0.00    +0.046 A 
ATOM     16  C   UNL     1      10.100   0.006  24.511  0.00  0.00    +0.117 A 
ATOM     17  C   UNL     1      10.460  -1.053  23.690  0.00  0.00    +0.046 A 
ATOM     18  C   UNL     1       9.832  -2.292  23.851  0.00  0.00    +0.010 A 
BRANCH  16  19
ATOM     19  O   UNL     1      10.685   1.229  24.377  0.00  0.00    -0.507 OA
ATOM     20  H   UNL     1      10.618   1.505  23.448  0.00  0.00    +0.292 HD
ENDBRANCH  16  19
ENDBRANCH   6  13
TORSDOF 2
ENDMDL
MODEL 9
REMARK VINA RESULT:      -6.0      1.549      3.023
REMARK  Name = 
REMARK  5 active torsions:
REMARK  status: ('A' for Active; 'I' for Inactive)
REMARK    1  A    between atoms: C_5  and  C_6
REMARK    2  A    between atoms: C_10  and  C_16
REMARK    3  A    between atoms: C_13  and  C_14
REMARK    4  A    between atoms: C_13  and  C_15
REMARK    5  A    between atoms: C_19  and  O_20
REMARK                            x       y       z     vdW  Elec       q    Type
REMARK                         _______ _______ _______ _____ _____    ______ ____
ROOT
ATOM      1  C   UNL     1       6.108  -4.696  25.246  0.00  0.00    +0.025 C 
ATOM      2  C   UNL     1       5.523  -3.261  25.017  0.00  0.00    +0.068 C 
ATOM      3  C   UNL     1       4.043  -3.191  25.440  0.00  0.00    +0.041 C 
ATOM      4  C   UNL     1       6.264  -2.222  25.883  0.00  0.00    +0.041 C 
ATOM      5  O   UNL     1       5.548  -2.826  23.646  0.00  0.00    -0.365 OA
ATOM      6  C   UNL     1       6.732  -3.078  22.863  0.00  0.00    +0.156 C 
ATOM      7  C   UNL     1       7.215  -4.542  23.035  0.00  0.00    +0.048 C 
ATOM      8  C   UNL     1       6.178  -5.520  22.474  0.00  0.00    -0.071 C 
ATOM      9  C   UNL     1       6.212  -5.779  20.995  0.00  0.00    +0.039 C 
ATOM     10  C   UNL     1       5.288  -6.126  23.282  0.00  0.00    -0.027 C 
ATOM     11  C   UNL     1       7.449  -4.834  24.526  0.00  0.00    +0.017 C 
ATOM     12  C   UNL     1       5.233  -5.878  24.764  0.00  0.00    +0.033 C 
ENDROOT
BRANCH   6  13
ATOM     13  C   UNL     1       7.779  -1.972  23.025  0.00  0.00    -0.018 A 
ATOM     14  C   UNL     1       7.375  -0.628  22.940  0.00  0.00    +0.010 A 
ATOM     15  C   UNL     1       8.300   0.412  23.069  0.00  0.00    +0.046 A 
ATOM     16  C   UNL     1       9.640   0.122  23.289  0.00  0.00    +0.117 A 
ATOM     17  C   UNL     1      10.073  -1.193  23.370  0.00  0.00    +0.046 A 
ATOM     18  C   UNL     1       9.148  -2.231  23.216  0.00  0.00    +0.010 A 
BRANCH  16  19
ATOM     19  O   UNL     1      10.514   1.159  23.425  0.00  0.00    -0.507 OA
ATOM     20  H   UNL     1      11.372   0.805  23.709  0.00  0.00    +0.292 HD
ENDBRANCH  16  19
ENDBRANCH   6  13
TORSDOF 2
ENDMDL
