MODEL 1
REMARK VINA RESULT:      -6.5      0.000      0.000
REMARK  Name = 
REMARK  6 active torsions:
REMARK  status: ('A' for Active; 'I' for Inactive)
REMARK    1  A    between atoms: C_1  and  C_2
REMARK    2  A    between atoms: C_2  and  C_3
REMARK    3  A    between atoms: C_2  and  C_6
REMARK    4  A    between atoms: C_3  and  O_4
REMARK    5  A    between atoms: C_8  and  O_9
REMARK    6  A    between atoms: O_9  and  C_10
REMARK                            x       y       z     vdW  Elec       q    Type
REMARK                         _______ _______ _______ _____ _____    ______ ____
ROOT
ATOM      1  C   UNL     1       6.851  -4.874  24.291  0.00  0.00    -0.030 A 
ATOM      2  C   UNL     1       6.938  -5.237  25.643  0.00  0.00    +0.004 A 
ATOM      3  C   UNL     1       8.074  -4.921  26.390  0.00  0.00    +0.004 A 
ATOM      4  C   UNL     1       9.126  -4.222  25.803  0.00  0.00    +0.046 A 
ATOM      5  C   UNL     1       9.061  -3.855  24.460  0.00  0.00    +0.129 A 
ATOM      6  C   UNL     1       7.957  -4.246  23.691  0.00  0.00    +0.050 A 
ENDROOT
BRANCH   1   8
ATOM      7  C   UNL     1       4.671  -3.897  23.486  0.00  0.00    +0.024 C 
ATOM      8  C   UNL     1       5.590  -5.116  23.471  0.00  0.00    +0.124 C 
BRANCH   8   9
ATOM      9  C   UNL     1       5.867  -5.581  22.043  0.00  0.00    +0.312 C 
ATOM     10  O   UNL     1       5.744  -4.889  21.043  0.00  0.00    -0.250 OA
BRANCH   9  11
ATOM     11  O   UNL     1       6.236  -6.886  21.959  0.00  0.00    -0.480 OA
ATOM     12  H   UNL     1       5.852  -7.348  21.188  0.00  0.00    +0.295 HD
ENDBRANCH   9  11
ENDBRANCH   8   9
ENDBRANCH   1   8
BRANCH   5  13
ATOM     13  O   UNL     1      10.142  -3.148  23.979  0.00  0.00    -0.456 OA
BRANCH  13  14
ATOM     14  C   UNL     1       9.979  -1.871  23.494  0.00  0.00    +0.128 A 
ATOM     15  C   UNL     1       9.898  -0.858  24.453  0.00  0.00    +0.046 A 
ATOM     16  C   UNL     1       9.796   0.477  24.056  0.00  0.00    +0.004 A 
ATOM     17  C   UNL     1       9.774   0.802  22.701  0.00  0.00    +0.000 A 
ATOM     18  C   UNL     1       9.786  -0.211  21.742  0.00  0.00    +0.004 A 
ATOM     19  C   UNL     1       9.847  -1.546  22.142  0.00  0.00    +0.046 A 
ENDBRANCH  13  14
ENDBRANCH   5  13
TORSDOF 5
ENDMDL
MODEL 2
REMARK VINA RESULT:      -6.4      2.320      3.667
REMARK  Name = 
REMARK  6 active torsions:
REMARK  status: ('A' for Active; 'I' for Inactive)
REMARK    1  A    between atoms: C_1  and  C_2
REMARK    2  A    between atoms: C_2  and  C_3
REMARK    3  A    between atoms: C_2  and  C_6
REMARK    4  A    between atoms: C_3  and  O_4
REMARK    5  A    between atoms: C_8  and  O_9
REMARK    6  A    between atoms: O_9  and  C_10
REMARK                            x       y       z     vdW  Elec       q    Type
REMARK                         _______ _______ _______ _____ _____    ______ ____
ROOT
ATOM      1  C   UNL     1       8.065  -4.105  24.379  0.00  0.00    -0.030 A 
ATOM      2  C   UNL     1       6.783  -4.014  23.819  0.00  0.00    +0.004 A 
ATOM      3  C   UNL     1       6.531  -3.136  22.763  0.00  0.00    +0.004 A 
ATOM      4  C   UNL     1       7.560  -2.355  22.242  0.00  0.00    +0.046 A 
ATOM      5  C   UNL     1       8.841  -2.429  22.787  0.00  0.00    +0.129 A 
ATOM      6  C   UNL     1       9.071  -3.248  23.900  0.00  0.00    +0.050 A 
ENDROOT
BRANCH   1   8
ATOM      7  C   UNL     1       9.908  -5.246  25.665  0.00  0.00    +0.024 C 
ATOM      8  C   UNL     1       8.400  -5.119  25.466  0.00  0.00    +0.124 C 
BRANCH   8   9
ATOM      9  C   UNL     1       7.688  -4.856  26.791  0.00  0.00    +0.312 C 
ATOM     10  O   UNL     1       7.160  -3.800  27.106  0.00  0.00    -0.250 OA
BRANCH   9  11
ATOM     11  O   UNL     1       7.723  -5.912  27.645  0.00  0.00    -0.480 OA
ATOM     12  H   UNL     1       6.872  -6.388  27.708  0.00  0.00    +0.295 HD
ENDBRANCH   9  11
ENDBRANCH   8   9
ENDBRANCH   1   8
BRANCH   5  13
ATOM     13  O   UNL     1       9.792  -1.632  22.187  0.00  0.00    -0.456 OA
BRANCH  13  14
ATOM     14  C   UNL     1      10.024  -0.357  22.648  0.00  0.00    +0.128 A 
ATOM     15  C   UNL     1       9.758   0.678  21.747  0.00  0.00    +0.046 A 
ATOM     16  C   UNL     1       9.901   2.008  22.145  0.00  0.00    +0.004 A 
ATOM     17  C   UNL     1      10.312   2.308  23.443  0.00  0.00    +0.000 A 
ATOM     18  C   UNL     1      10.643   1.278  24.323  0.00  0.00    +0.004 A 
ATOM     19  C   UNL     1      10.537  -0.050  23.910  0.00  0.00    +0.046 A 
ENDBRANCH  13  14
ENDBRANCH   5  13
TORSDOF 5
ENDMDL
MODEL 3
REMARK VINA RESULT:      -6.3      2.236      3.261
REMARK  Name = 
REMARK  6 active torsions:
REMARK  status: ('A' for Active; 'I' for Inactive)
REMARK    1  A    between atoms: C_1  and  C_2
REMARK    2  A    between atoms: C_2  and  C_3
REMARK    3  A    between atoms: C_2  and  C_6
REMARK    4  A    between atoms: C_3  and  O_4
REMARK    5  A    between atoms: C_8  and  O_9
REMARK    6  A    between atoms: O_9  and  C_10
REMARK                            x       y       z     vdW  Elec       q    Type
REMARK                         _______ _______ _______ _____ _____    ______ ____
ROOT
ATOM      1  C   UNL     1       7.490  -3.593  25.290  0.00  0.00    -0.030 A 
ATOM      2  C   UNL     1       6.651  -4.029  24.255  0.00  0.00    +0.004 A 
ATOM      3  C   UNL     1       6.967  -3.754  22.923  0.00  0.00    +0.004 A 
ATOM      4  C   UNL     1       8.133  -3.059  22.610  0.00  0.00    +0.046 A 
ATOM      5  C   UNL     1       8.979  -2.615  23.625  0.00  0.00    +0.129 A 
ATOM      6  C   UNL     1       8.617  -2.819  24.963  0.00  0.00    +0.050 A 
ENDROOT
BRANCH   1   8
ATOM      7  C   UNL     1       5.775  -3.698  27.135  0.00  0.00    +0.024 C 
ATOM      8  C   UNL     1       7.229  -3.957  26.747  0.00  0.00    +0.124 C 
BRANCH   8   9
ATOM      9  C   UNL     1       7.652  -5.378  27.110  0.00  0.00    +0.312 C 
ATOM     10  O   UNL     1       7.225  -6.017  28.060  0.00  0.00    -0.250 OA
BRANCH   9  11
ATOM     11  O   UNL     1       8.610  -5.885  26.291  0.00  0.00    -0.480 OA
ATOM     12  H   UNL     1       8.252  -6.269  25.466  0.00  0.00    +0.295 HD
ENDBRANCH   9  11
ENDBRANCH   8   9
ENDBRANCH   1   8
BRANCH   5  13
ATOM     13  O   UNL     1      10.117  -1.957  23.211  0.00  0.00    -0.456 OA
BRANCH  13  14
ATOM     14  C   UNL     1      10.119  -0.587  23.077  0.00  0.00    +0.128 A 
ATOM     15  C   UNL     1      10.538   0.136  24.197  0.00  0.00    +0.046 A 
ATOM     16  C   UNL     1      10.635   1.528  24.137  0.00  0.00    +0.004 A 
ATOM     17  C   UNL     1      10.311   2.199  22.959  0.00  0.00    +0.000 A 
ATOM     18  C   UNL     1       9.828   1.487  21.863  0.00  0.00    +0.004 A 
ATOM     19  C   UNL     1       9.694   0.100  21.939  0.00  0.00    +0.046 A 
ENDBRANCH  13  14
ENDBRANCH   5  13
TORSDOF 5
ENDMDL
MODEL 4
REMARK VINA RESULT:      -6.2      1.210      1.445
REMARK  Name = 
REMARK  6 active torsions:
REMARK  status: ('A' for Active; 'I' for Inactive)
REMARK    1  A    between atoms: C_1  and  C_2
REMARK    2  A    between atoms: C_2  and  C_3
REMARK    3  A    between atoms: C_2  and  C_6
REMARK    4  A    between atoms: C_3  and  O_4
REMARK    5  A    between atoms: C_8  and  O_9
REMARK    6  A    between atoms: O_9  and  C_10
REMARK                            x       y       z     vdW  Elec       q    Type
REMARK                         _______ _______ _______ _____ _____    ______ ____
ROOT
ATOM      1  C   UNL     1       6.813  -4.861  23.988  0.00  0.00    -0.030 A 
ATOM      2  C   UNL     1       6.681  -4.994  25.378  0.00  0.00    +0.004 A 
ATOM      3  C   UNL     1       7.665  -4.498  26.234  0.00  0.00    +0.004 A 
ATOM      4  C   UNL     1       8.782  -3.847  25.714  0.00  0.00    +0.046 A 
ATOM      5  C   UNL     1       8.934  -3.708  24.335  0.00  0.00    +0.129 A 
ATOM      6  C   UNL     1       7.987  -4.280  23.476  0.00  0.00    +0.050 A 
ENDROOT
BRANCH   1   8
ATOM      7  C   UNL     1       6.281  -6.137  21.880  0.00  0.00    +0.024 C 
ATOM      8  C   UNL     1       5.716  -5.304  23.027  0.00  0.00    +0.124 C 
BRANCH   8   9
ATOM      9  C   UNL     1       4.554  -6.020  23.711  0.00  0.00    +0.312 C 
ATOM     10  O   UNL     1       3.569  -5.470  24.181  0.00  0.00    -0.250 OA
BRANCH   9  11
ATOM     11  O   UNL     1       4.723  -7.365  23.801  0.00  0.00    -0.480 OA
ATOM     12  H   UNL     1       5.616  -7.625  24.101  0.00  0.00    +0.295 HD
ENDBRANCH   9  11
ENDBRANCH   8   9
ENDBRANCH   1   8
BRANCH   5  13
ATOM     13  O   UNL     1      10.061  -3.030  23.923  0.00  0.00    -0.456 OA
BRANCH  13  14
ATOM     14  C   UNL     1       9.955  -1.775  23.370  0.00  0.00    +0.128 A 
ATOM     15  C   UNL     1      10.150  -0.702  24.243  0.00  0.00    +0.046 A 
ATOM     16  C   UNL     1      10.125   0.608  23.761  0.00  0.00    +0.004 A 
ATOM     17  C   UNL     1       9.904   0.849  22.406  0.00  0.00    +0.000 A 
ATOM     18  C   UNL     1       9.642  -0.216  21.545  0.00  0.00    +0.004 A 
ATOM     19  C   UNL     1       9.627  -1.521  22.036  0.00  0.00    +0.046 A 
ENDBRANCH  13  14
ENDBRANCH   5  13
TORSDOF 5
ENDMDL
MODEL 5
REMARK VINA RESULT:      -6.1      2.428      6.636
REMARK  Name = 
REMARK  6 active torsions:
REMARK  status: ('A' for Active; 'I' for Inactive)
REMARK    1  A    between atoms: C_1  and  C_2
REMARK    2  A    between atoms: C_2  and  C_3
REMARK    3  A    between atoms: C_2  and  C_6
REMARK    4  A    between atoms: C_3  and  O_4
REMARK    5  A    between atoms: C_8  and  O_9
REMARK    6  A    between atoms: O_9  and  C_10
REMARK                            x       y       z     vdW  Elec       q    Type
REMARK                         _______ _______ _______ _____ _____    ______ ____
ROOT
ATOM      1  C   UNL     1       9.983   0.829  23.366  0.00  0.00    -0.030 A 
ATOM      2  C   UNL     1       9.608   0.830  22.015  0.00  0.00    +0.004 A 
ATOM      3  C   UNL     1       9.422  -0.371  21.329  0.00  0.00    +0.004 A 
ATOM      4  C   UNL     1       9.588  -1.587  21.989  0.00  0.00    +0.046 A 
ATOM      5  C   UNL     1       9.964  -1.610  23.331  0.00  0.00    +0.129 A 
ATOM      6  C   UNL     1      10.232  -0.404  23.994  0.00  0.00    +0.050 A 
ENDROOT
BRANCH   1   8
ATOM      7  C   UNL     1      10.914   3.171  23.424  0.00  0.00    +0.024 C 
ATOM      8  C   UNL     1      10.101   2.117  24.172  0.00  0.00    +0.124 C 
BRANCH   8   9
ATOM      9  C   UNL     1       8.758   2.678  24.631  0.00  0.00    +0.312 C 
ATOM     10  O   UNL     1       8.142   3.572  24.070  0.00  0.00    -0.250 OA
BRANCH   9  11
ATOM     11  O   UNL     1       8.299   2.117  25.781  0.00  0.00    -0.480 OA
ATOM     12  H   UNL     1       7.594   1.456  25.635  0.00  0.00    +0.295 HD
ENDBRANCH   9  11
ENDBRANCH   8   9
ENDBRANCH   1   8
BRANCH   5  13
ATOM     13  O   UNL     1      10.082  -2.861  23.898  0.00  0.00    -0.456 OA
BRANCH  13  14
ATOM     14  C   UNL     1       9.025  -3.417  24.580  0.00  0.00    +0.128 A 
ATOM     15  C   UNL     1       8.270  -4.360  23.877  0.00  0.00    +0.046 A 
ATOM     16  C   UNL     1       7.217  -5.026  24.507  0.00  0.00    +0.004 A 
ATOM     17  C   UNL     1       6.914  -4.751  25.839  0.00  0.00    +0.000 A 
ATOM     18  C   UNL     1       7.621  -3.762  26.523  0.00  0.00    +0.004 A 
ATOM     19  C   UNL     1       8.647  -3.070  25.879  0.00  0.00    +0.046 A 
ENDBRANCH  13  14
ENDBRANCH   5  13
TORSDOF 5
ENDMDL
MODEL 6
REMARK VINA RESULT:      -5.9      1.568      2.513
REMARK  Name = 
REMARK  6 active torsions:
REMARK  status: ('A' for Active; 'I' for Inactive)
REMARK    1  A    between atoms: C_1  and  C_2
REMARK    2  A    between atoms: C_2  and  C_3
REMARK    3  A    between atoms: C_2  and  C_6
REMARK    4  A    between atoms: C_3  and  O_4
REMARK    5  A    between atoms: C_8  and  O_9
REMARK    6  A    between atoms: O_9  and  C_10
REMARK                            x       y       z     vdW  Elec       q    Type
REMARK                         _______ _______ _______ _____ _____    ______ ____
ROOT
ATOM      1  C   UNL     1       7.481  -3.677  22.871  0.00  0.00    -0.030 A 
ATOM      2  C   UNL     1       7.819  -4.453  23.989  0.00  0.00    +0.004 A 
ATOM      3  C   UNL     1       8.987  -4.191  24.707  0.00  0.00    +0.004 A 
ATOM      4  C   UNL     1       9.819  -3.140  24.330  0.00  0.00    +0.046 A 
ATOM      5  C   UNL     1       9.503  -2.359  23.220  0.00  0.00    +0.129 A 
ATOM      6  C   UNL     1       8.375  -2.677  22.451  0.00  0.00    +0.050 A 
ENDROOT
BRANCH   1   8
ATOM      7  C   UNL     1       6.180  -5.159  21.300  0.00  0.00    +0.024 C 
ATOM      8  C   UNL     1       6.169  -3.872  22.121  0.00  0.00    +0.124 C 
BRANCH   8   9
ATOM      9  C   UNL     1       4.934  -3.798  23.016  0.00  0.00    +0.312 C 
ATOM     10  O   UNL     1       4.790  -3.025  23.951  0.00  0.00    -0.250 OA
BRANCH   9  11
ATOM     11  O   UNL     1       3.986  -4.722  22.711  0.00  0.00    -0.480 OA
ATOM     12  H   UNL     1       4.238  -5.633  22.960  0.00  0.00    +0.295 HD
ENDBRANCH   9  11
ENDBRANCH   8   9
ENDBRANCH   1   8
BRANCH   5  13
ATOM     13  O   UNL     1      10.378  -1.331  22.942  0.00  0.00    -0.456 OA
BRANCH  13  14
ATOM     14  C   UNL     1      10.006  -0.024  23.154  0.00  0.00    +0.128 A 
ATOM     15  C   UNL     1       9.823   0.754  22.008  0.00  0.00    +0.046 A 
ATOM     16  C   UNL     1       9.384   2.075  22.120  0.00  0.00    +0.004 A 
ATOM     17  C   UNL     1       9.127   2.621  23.376  0.00  0.00    +0.000 A 
ATOM     18  C   UNL     1       9.373   1.869  24.524  0.00  0.00    +0.004 A 
ATOM     19  C   UNL     1       9.850   0.564  24.412  0.00  0.00    +0.046 A 
ENDBRANCH  13  14
ENDBRANCH   5  13
TORSDOF 5
ENDMDL
MODEL 7
REMARK VINA RESULT:      -5.8      2.345      3.450
REMARK  Name = 
REMARK  6 active torsions:
REMARK  status: ('A' for Active; 'I' for Inactive)
REMARK    1  A    between atoms: C_1  and  C_2
REMARK    2  A    between atoms: C_2  and  C_3
REMARK    3  A    between atoms: C_2  and  C_6
REMARK    4  A    between atoms: C_3  and  O_4
REMARK    5  A    between atoms: C_8  and  O_9
REMARK    6  A    between atoms: O_9  and  C_10
REMARK                            x       y       z     vdW  Elec       q    Type
REMARK                         _______ _______ _______ _____ _____    ______ ____
ROOT
ATOM      1  C   UNL     1       7.766  -3.299  26.285  0.00  0.00    -0.030 A 
ATOM      2  C   UNL     1       6.493  -2.723  26.401  0.00  0.00    +0.004 A 
ATOM      3  C   UNL     1       6.329  -1.341  26.301  0.00  0.00    +0.004 A 
ATOM      4  C   UNL     1       7.429  -0.520  26.065  0.00  0.00    +0.046 A 
ATOM      5  C   UNL     1       8.704  -1.073  25.950  0.00  0.00    +0.129 A 
ATOM      6  C   UNL     1       8.877  -2.451  26.134  0.00  0.00    +0.050 A 
ENDROOT
BRANCH   1   8
ATOM      7  C   UNL     1       6.645  -5.555  26.177  0.00  0.00    +0.024 C 
ATOM      8  C   UNL     1       7.972  -4.809  26.292  0.00  0.00    +0.124 C 
BRANCH   8   9
ATOM      9  C   UNL     1       8.973  -5.297  25.247  0.00  0.00    +0.312 C 
ATOM     10  O   UNL     1       8.751  -5.379  24.048  0.00  0.00    -0.250 OA
BRANCH   9  11
ATOM     11  O   UNL     1      10.161  -5.689  25.774  0.00  0.00    -0.480 OA
ATOM     12  H   UNL     1      10.104  -6.521  26.283  0.00  0.00    +0.295 HD
ENDBRANCH   9  11
ENDBRANCH   8   9
ENDBRANCH   1   8
BRANCH   5  13
ATOM     13  O   UNL     1       9.722  -0.180  25.696  0.00  0.00    -0.456 OA
BRANCH  13  14
ATOM     14  C   UNL     1       9.796   0.464  24.482  0.00  0.00    +0.128 A 
ATOM     15  C   UNL     1       9.936  -0.358  23.361  0.00  0.00    +0.046 A 
ATOM     16  C   UNL     1       9.956   0.200  22.081  0.00  0.00    +0.004 A 
ATOM     17  C   UNL     1       9.837   1.579  21.919  0.00  0.00    +0.000 A 
ATOM     18  C   UNL     1       9.765   2.407  23.038  0.00  0.00    +0.004 A 
ATOM     19  C   UNL     1       9.787   1.851  24.317  0.00  0.00    +0.046 A 
ENDBRANCH  13  14
ENDBRANCH   5  13
TORSDOF 5
ENDMDL
MODEL 8
REMARK VINA RESULT:      -5.8      2.506      6.247
REMARK  Name = 
REMARK  6 active torsions:
REMARK  status: ('A' for Active; 'I' for Inactive)
REMARK    1  A    between atoms: C_1  and  C_2
REMARK    2  A    between atoms: C_2  and  C_3
REMARK    3  A    between atoms: C_2  and  C_6
REMARK    4  A    between atoms: C_3  and  O_4
REMARK    5  A    between atoms: C_8  and  O_9
REMARK    6  A    between atoms: O_9  and  C_10
REMARK                            x       y       z     vdW  Elec       q    Type
REMARK                         _______ _______ _______ _____ _____    ______ ____
ROOT
ATOM      1  C   UNL     1       8.734  -0.008  23.586  0.00  0.00    -0.030 A 
ATOM      2  C   UNL     1       9.574  -0.667  24.495  0.00  0.00    +0.004 A 
ATOM      3  C   UNL     1       9.676  -2.059  24.484  0.00  0.00    +0.004 A 
ATOM      4  C   UNL     1       8.958  -2.807  23.554  0.00  0.00    +0.046 A 
ATOM      5  C   UNL     1       8.115  -2.171  22.644  0.00  0.00    +0.129 A 
ATOM      6  C   UNL     1       7.950  -0.781  22.712  0.00  0.00    +0.050 A 
ENDROOT
BRANCH   1   8
ATOM      7  C   UNL     1       9.789   2.164  24.311  0.00  0.00    +0.024 C 
ATOM      8  C   UNL     1       8.669   1.512  23.504  0.00  0.00    +0.124 C 
BRANCH   8   9
ATOM      9  C   UNL     1       8.635   2.049  22.074  0.00  0.00    +0.312 C 
ATOM     10  O   UNL     1       7.628   2.417  21.487  0.00  0.00    -0.250 OA
BRANCH   9  11
ATOM     11  O   UNL     1       9.848   2.046  21.464  0.00  0.00    -0.480 OA
ATOM     12  H   UNL     1      10.598   2.020  22.091  0.00  0.00    +0.295 HD
ENDBRANCH   9  11
ENDBRANCH   8   9
ENDBRANCH   1   8
BRANCH   5  13
ATOM     13  O   UNL     1       7.465  -2.997  21.752  0.00  0.00    -0.456 OA
BRANCH  13  14
ATOM     14  C   UNL     1       6.492  -3.865  22.190  0.00  0.00    +0.128 A 
ATOM     15  C   UNL     1       6.755  -5.225  22.002  0.00  0.00    +0.046 A 
ATOM     16  C   UNL     1       5.856  -6.184  22.472  0.00  0.00    +0.004 A 
ATOM     17  C   UNL     1       4.692  -5.788  23.128  0.00  0.00    +0.000 A 
ATOM     18  C   UNL     1       4.393  -4.431  23.256  0.00  0.00    +0.004 A 
ATOM     19  C   UNL     1       5.274  -3.475  22.751  0.00  0.00    +0.046 A 
ENDBRANCH  13  14
ENDBRANCH   5  13
TORSDOF 5
ENDMDL
MODEL 9
REMARK VINA RESULT:      -5.7      2.809      3.496
REMARK  Name = 
REMARK  6 active torsions:
REMARK  status: ('A' for Active; 'I' for Inactive)
REMARK    1  A    between atoms: C_1  and  C_2
REMARK    2  A    between atoms: C_2  and  C_3
REMARK    3  A    between atoms: C_2  and  C_6
REMARK    4  A    between atoms: C_3  and  O_4
REMARK    5  A    between atoms: C_8  and  O_9
REMARK    6  A    between atoms: O_9  and  C_10
REMARK                            x       y       z     vdW  Elec       q    Type
REMARK                         _______ _______ _______ _____ _____    ______ ____
ROOT
ATOM      1  C   UNL     1       6.824  -5.247  26.082  0.00  0.00    -0.030 A 
ATOM      2  C   UNL     1       8.072  -5.220  26.721  0.00  0.00    +0.004 A 
ATOM      3  C   UNL     1       9.197  -4.725  26.059  0.00  0.00    +0.004 A 
ATOM      4  C   UNL     1       9.084  -4.233  24.761  0.00  0.00    +0.046 A 
ATOM      5  C   UNL     1       7.853  -4.254  24.107  0.00  0.00    +0.129 A 
ATOM      6  C   UNL     1       6.745  -4.828  24.743  0.00  0.00    +0.050 A 
ENDROOT
BRANCH   1   8
ATOM      7  C   UNL     1       4.779  -6.719  25.988  0.00  0.00    +0.024 C 
ATOM      8  C   UNL     1       5.557  -5.690  26.805  0.00  0.00    +0.124 C 
BRANCH   8   9
ATOM      9  C   UNL     1       5.804  -6.187  28.227  0.00  0.00    +0.312 C 
ATOM     10  O   UNL     1       6.140  -5.482  29.168  0.00  0.00    -0.250 OA
BRANCH   9  11
ATOM     11  O   UNL     1       5.659  -7.530  28.366  0.00  0.00    -0.480 OA
ATOM     12  H   UNL     1       6.499  -7.993  28.559  0.00  0.00    +0.295 HD
ENDBRANCH   9  11
ENDBRANCH   8   9
ENDBRANCH   1   8
BRANCH   5  13
ATOM     13  O   UNL     1       7.843  -3.725  22.834  0.00  0.00    -0.456 OA
BRANCH  13  14
ATOM     14  C   UNL     1       8.026  -2.375  22.640  0.00  0.00    +0.128 A 
ATOM     15  C   UNL     1       7.002  -1.546  23.106  0.00  0.00    +0.046 A 
ATOM     16  C   UNL     1       7.127  -0.158  23.011  0.00  0.00    +0.004 A 
ATOM     17  C   UNL     1       8.273   0.403  22.450  0.00  0.00    +0.000 A 
ATOM     18  C   UNL     1       9.265  -0.423  21.923  0.00  0.00    +0.004 A 
ATOM     19  C   UNL     1       9.120  -1.809  21.983  0.00  0.00    +0.046 A 
ENDBRANCH  13  14
ENDBRANCH   5  13
TORSDOF 5
ENDMDL
