MODEL 1
REMARK VINA RESULT:      -6.6      0.000      0.000
REMARK  Name = 
REMARK  17 active torsions:
REMARK  status: ('A' for Active; 'I' for Inactive)
REMARK    1  A    between atoms: C_1  and  C_2
REMARK    2  A    between atoms: C_2  and  N_3
REMARK    3  A    between atoms: N_3  and  C_4
REMARK    4  A    between atoms: C_7  and  N_9
REMARK    5  A    between atoms: C_10  and  O_12
REMARK    6  A    between atoms: O_12  and  C_13
REMARK    7  A    between atoms: C_16  and  C_17
REMARK    8  A    between atoms: C_17  and  N_18
REMARK    9  A    between atoms: C_21  and  N_23
REMARK   10  A    between atoms: C_24  and  O_26
REMARK   11  A    between atoms: C_27  and  O_29
REMARK   12  A    between atoms: O_29  and  C_30
REMARK   13  A    between atoms: C_34  and  O_36
REMARK   14  A    between atoms: C_37  and  N_39
REMARK   15  A    between atoms: N_39  and  C_40
REMARK   16  A    between atoms: C_41  and  C_42
REMARK   17  A    between atoms: C_41  and  O_43
REMARK                            x       y       z     vdW  Elec       q    Type
REMARK                         _______ _______ _______ _____ _____    ______ ____
ROOT
ATOM      1  C   UNL     1       7.289   1.262  26.018  0.00  0.00    +0.087 C 
ATOM      2  C   UNL     1       8.642   1.116  25.277  0.00  0.00    +0.169 C 
ATOM      3  C   UNL     1       8.596   0.140  24.110  0.00  0.00    +0.175 C 
ATOM      4  C   UNL     1       7.661  -1.070  24.076  0.00  0.00    +0.170 C 
ATOM      5  C   UNL     1       6.330  -0.778  24.806  0.00  0.00    +0.084 C 
ATOM      6  C   UNL     1       6.585  -0.103  26.166  0.00  0.00    +0.042 C 
ENDROOT
BRANCH   5   7
ATOM      7  N   UNL     1       5.562  -2.022  25.009  0.00  0.00    -0.325 NA
ATOM      8  H   UNL     1       6.122  -2.700  25.526  0.00  0.00    +0.119 HD
ATOM      9  H   UNL     1       4.730  -1.846  25.568  0.00  0.00    +0.119 HD
ENDBRANCH   5   7
BRANCH   1  10
ATOM     10  N   UNL     1       7.434   1.834  27.384  0.00  0.00    -0.311 NA
ATOM     11  H   UNL     1       8.424   1.957  27.599  0.00  0.00    +0.122 HD
BRANCH  10  13
ATOM     12  C   UNL     1       7.271   1.475  29.815  0.00  0.00    +0.020 C 
ATOM     13  C   UNL     1       6.816   1.021  28.436  0.00  0.00    +0.078 C 
ENDBRANCH  10  13
ENDBRANCH   1  10
BRANCH   3  14
ATOM     14  O   UNL     1       9.949  -0.339  23.965  0.00  0.00    -0.387 OA
ATOM     15  H   UNL     1      10.529   0.449  23.987  0.00  0.00    +0.210 HD
ENDBRANCH   3  14
BRANCH   2  16
ATOM     16  O   UNL     1       8.999   2.421  24.724  0.00  0.00    -0.341 OA
BRANCH  16  17
ATOM     17  C   UNL     1       7.905   3.269  24.303  0.00  0.00    +0.284 C 
ATOM     18  C   UNL     1       8.255   3.997  22.972  0.00  0.00    +0.131 C 
ATOM     19  C   UNL     1       7.024   4.753  22.455  0.00  0.00    +0.048 C 
ATOM     20  C   UNL     1       9.497   4.922  23.211  0.00  0.00    +0.121 C 
ATOM     21  C   UNL     1       9.199   5.907  24.371  0.00  0.00    +0.160 C 
ATOM     22  C   UNL     1       8.635   5.184  25.589  0.00  0.00    +0.196 C 
ATOM     23  O   UNL     1       7.577   4.261  25.295  0.00  0.00    -0.346 OA
BRANCH  20  24
ATOM     24  N   UNL     1      10.683   4.030  23.398  0.00  0.00    -0.311 NA
ATOM     25  H   UNL     1      10.581   3.518  24.285  0.00  0.00    +0.122 HD
ATOM     26  C   UNL     1      11.970   4.691  23.365  0.00  0.00    +0.101 C 
ENDBRANCH  20  24
BRANCH  18  27
ATOM     27  O   UNL     1       8.592   3.024  21.963  0.00  0.00    -0.382 OA
ATOM     28  H   UNL     1       8.671   3.551  21.143  0.00  0.00    +0.210 HD
ENDBRANCH  18  27
BRANCH  21  29
ATOM     29  O   UNL     1       8.292   6.925  23.929  0.00  0.00    -0.388 OA
ATOM     30  H   UNL     1       8.781   7.559  23.374  0.00  0.00    +0.210 HD
ENDBRANCH  21  29
ENDBRANCH  16  17
ENDBRANCH   2  16
BRANCH   4  31
ATOM     31  O   UNL     1       7.395  -1.428  22.665  0.00  0.00    -0.333 OA
BRANCH  31  32
ATOM     32  C   UNL     1       7.816  -2.785  22.343  0.00  0.00    +0.324 C 
ATOM     33  C   UNL     1       6.661  -3.762  21.924  0.00  0.00    +0.124 C 
ATOM     34  C   UNL     1       6.809  -5.175  22.519  0.00  0.00    +0.055 C 
ATOM     35  C   UNL     1       7.638  -5.257  23.755  0.00  0.00    +0.017 C 
ATOM     36  C   UNL     1       8.528  -4.318  24.087  0.00  0.00    +0.111 C 
ATOM     37  O   UNL     1       8.725  -3.211  23.335  0.00  0.00    -0.465 OA
BRANCH  33  38
ATOM     38  N   UNL     1       5.286  -3.225  22.009  0.00  0.00    -0.322 NA
ATOM     39  H   UNL     1       4.606  -3.963  21.870  0.00  0.00    +0.119 HD
ATOM     40  H   UNL     1       5.155  -2.837  22.941  0.00  0.00    +0.119 HD
ENDBRANCH  33  38
BRANCH  36  41
ATOM     41  C   UNL     1       9.471  -4.327  25.267  0.00  0.00    +0.152 C 
BRANCH  41  42
ATOM     42  N   UNL     1      10.288  -5.521  25.427  0.00  0.00    -0.324 NA
ATOM     43  H   UNL     1       9.967  -6.210  24.749  0.00  0.00    +0.119 HD
ATOM     44  H   UNL     1      11.241  -5.288  25.155  0.00  0.00    +0.119 HD
ENDBRANCH  41  42
ENDBRANCH  36  41
ENDBRANCH  31  32
ENDBRANCH   4  31
TORSDOF 14
ENDMDL
MODEL 2
REMARK VINA RESULT:      -6.5      2.780      8.229
REMARK  Name = 
REMARK  17 active torsions:
REMARK  status: ('A' for Active; 'I' for Inactive)
REMARK    1  A    between atoms: C_1  and  C_2
REMARK    2  A    between atoms: C_2  and  N_3
REMARK    3  A    between atoms: N_3  and  C_4
REMARK    4  A    between atoms: C_7  and  N_9
REMARK    5  A    between atoms: C_10  and  O_12
REMARK    6  A    between atoms: O_12  and  C_13
REMARK    7  A    between atoms: C_16  and  C_17
REMARK    8  A    between atoms: C_17  and  N_18
REMARK    9  A    between atoms: C_21  and  N_23
REMARK   10  A    between atoms: C_24  and  O_26
REMARK   11  A    between atoms: C_27  and  O_29
REMARK   12  A    between atoms: O_29  and  C_30
REMARK   13  A    between atoms: C_34  and  O_36
REMARK   14  A    between atoms: C_37  and  N_39
REMARK   15  A    between atoms: N_39  and  C_40
REMARK   16  A    between atoms: C_41  and  C_42
REMARK   17  A    between atoms: C_41  and  O_43
REMARK                            x       y       z     vdW  Elec       q    Type
REMARK                         _______ _______ _______ _____ _____    ______ ____
ROOT
ATOM      1  C   UNL     1       7.843  -2.971  25.323  0.00  0.00    +0.087 C 
ATOM      2  C   UNL     1       6.414  -2.377  25.412  0.00  0.00    +0.169 C 
ATOM      3  C   UNL     1       6.194  -1.182  24.496  0.00  0.00    +0.175 C 
ATOM      4  C   UNL     1       7.315  -0.218  24.105  0.00  0.00    +0.170 C 
ATOM      5  C   UNL     1       8.676  -0.943  24.003  0.00  0.00    +0.084 C 
ATOM      6  C   UNL     1       8.904  -1.856  25.222  0.00  0.00    +0.042 C 
ENDROOT
BRANCH   5   7
ATOM      7  N   UNL     1       9.780   0.031  23.903  0.00  0.00    -0.325 NA
ATOM      8  H   UNL     1      10.035   0.370  24.831  0.00  0.00    +0.119 HD
ATOM      9  H   UNL     1      10.613  -0.406  23.514  0.00  0.00    +0.119 HD
ENDBRANCH   5   7
BRANCH   1  10
ATOM     10  N   UNL     1       8.196  -3.810  26.500  0.00  0.00    -0.311 NA
ATOM     11  H   UNL     1       8.191  -3.235  27.344  0.00  0.00    +0.122 HD
BRANCH  10  13
ATOM     12  C   UNL     1       9.507  -5.460  25.225  0.00  0.00    +0.020 C 
ATOM     13  C   UNL     1       9.498  -4.475  26.385  0.00  0.00    +0.078 C 
ENDBRANCH  10  13
ENDBRANCH   1  10
BRANCH   3  14
ATOM     14  O   UNL     1       5.146  -0.414  25.125  0.00  0.00    -0.387 OA
ATOM     15  H   UNL     1       5.587   0.248  25.695  0.00  0.00    +0.210 HD
ENDBRANCH   3  14
BRANCH   2  16
ATOM     16  O   UNL     1       5.467  -3.410  24.996  0.00  0.00    -0.341 OA
BRANCH  16  17
ATOM     17  C   UNL     1       6.013  -4.537  24.271  0.00  0.00    +0.284 C 
ATOM     18  C   UNL     1       5.111  -4.897  23.055  0.00  0.00    +0.131 C 
ATOM     19  C   UNL     1       5.792  -5.977  22.204  0.00  0.00    +0.048 C 
ATOM     20  C   UNL     1       3.696  -5.321  23.579  0.00  0.00    +0.121 C 
ATOM     21  C   UNL     1       3.841  -6.493  24.584  0.00  0.00    +0.160 C 
ATOM     22  C   UNL     1       4.907  -6.201  25.635  0.00  0.00    +0.196 C 
ATOM     23  O   UNL     1       6.143  -5.704  25.105  0.00  0.00    -0.346 OA
BRANCH  20  24
ATOM     24  N   UNL     1       3.033  -4.087  24.105  0.00  0.00    -0.311 NA
ATOM     25  H   UNL     1       3.695  -3.579  24.707  0.00  0.00    +0.122 HD
ATOM     26  C   UNL     1       1.794  -4.305  24.822  0.00  0.00    +0.101 C 
ENDBRANCH  20  24
BRANCH  18  27
ATOM     27  O   UNL     1       4.960  -3.741  22.205  0.00  0.00    -0.382 OA
ATOM     28  H   UNL     1       4.470  -3.102  22.760  0.00  0.00    +0.210 HD
ENDBRANCH  18  27
BRANCH  21  29
ATOM     29  O   UNL     1       4.149  -7.704  23.882  0.00  0.00    -0.388 OA
ATOM     30  H   UNL     1       4.169  -7.515  22.927  0.00  0.00    +0.210 HD
ENDBRANCH  21  29
ENDBRANCH  16  17
ENDBRANCH   2  16
BRANCH   4  31
ATOM     31  O   UNL     1       6.976   0.405  22.805  0.00  0.00    -0.333 OA
BRANCH  31  32
ATOM     32  C   UNL     1       6.791   1.846  22.907  0.00  0.00    +0.324 C 
ATOM     33  C   UNL     1       7.834   2.712  22.117  0.00  0.00    +0.124 C 
ATOM     34  C   UNL     1       8.305   3.959  22.889  0.00  0.00    +0.055 C 
ATOM     35  C   UNL     1       8.156   3.880  24.370  0.00  0.00    +0.017 C 
ATOM     36  C   UNL     1       7.311   3.030  24.963  0.00  0.00    +0.111 C 
ATOM     37  O   UNL     1       6.546   2.165  24.260  0.00  0.00    -0.465 OA
BRANCH  33  38
ATOM     38  N   UNL     1       8.933   1.975  21.459  0.00  0.00    -0.322 NA
ATOM     39  H   UNL     1       9.777   2.536  21.435  0.00  0.00    +0.119 HD
ATOM     40  H   UNL     1       9.122   1.135  22.003  0.00  0.00    +0.119 HD
ENDBRANCH  33  38
BRANCH  36  41
ATOM     41  C   UNL     1       7.022   2.910  26.440  0.00  0.00    +0.152 C 
BRANCH  41  42
ATOM     42  N   UNL     1       7.506   1.702  27.093  0.00  0.00    -0.324 NA
ATOM     43  H   UNL     1       7.425   0.936  26.428  0.00  0.00    +0.119 HD
ATOM     44  H   UNL     1       8.503   1.817  27.264  0.00  0.00    +0.119 HD
ENDBRANCH  41  42
ENDBRANCH  36  41
ENDBRANCH  31  32
ENDBRANCH   4  31
TORSDOF 14
ENDMDL
MODEL 3
REMARK VINA RESULT:      -6.4      2.712      5.423
REMARK  Name = 
REMARK  17 active torsions:
REMARK  status: ('A' for Active; 'I' for Inactive)
REMARK    1  A    between atoms: C_1  and  C_2
REMARK    2  A    between atoms: C_2  and  N_3
REMARK    3  A    between atoms: N_3  and  C_4
REMARK    4  A    between atoms: C_7  and  N_9
REMARK    5  A    between atoms: C_10  and  O_12
REMARK    6  A    between atoms: O_12  and  C_13
REMARK    7  A    between atoms: C_16  and  C_17
REMARK    8  A    between atoms: C_17  and  N_18
REMARK    9  A    between atoms: C_21  and  N_23
REMARK   10  A    between atoms: C_24  and  O_26
REMARK   11  A    between atoms: C_27  and  O_29
REMARK   12  A    between atoms: O_29  and  C_30
REMARK   13  A    between atoms: C_34  and  O_36
REMARK   14  A    between atoms: C_37  and  N_39
REMARK   15  A    between atoms: N_39  and  C_40
REMARK   16  A    between atoms: C_41  and  C_42
REMARK   17  A    between atoms: C_41  and  O_43
REMARK                            x       y       z     vdW  Elec       q    Type
REMARK                         _______ _______ _______ _____ _____    ______ ____
ROOT
ATOM      1  C   UNL     1       8.594   0.923  23.622  0.00  0.00    +0.087 C 
ATOM      2  C   UNL     1       7.197   0.263  23.496  0.00  0.00    +0.169 C 
ATOM      3  C   UNL     1       7.249  -1.251  23.357  0.00  0.00    +0.175 C 
ATOM      4  C   UNL     1       8.417  -1.985  22.696  0.00  0.00    +0.170 C 
ATOM      5  C   UNL     1       9.756  -1.252  22.938  0.00  0.00    +0.084 C 
ATOM      6  C   UNL     1       9.612   0.258  22.673  0.00  0.00    +0.042 C 
ENDROOT
BRANCH   5   7
ATOM      7  N   UNL     1      10.817  -1.805  22.073  0.00  0.00    -0.325 NA
ATOM      8  H   UNL     1      11.207  -2.650  22.491  0.00  0.00    +0.119 HD
ATOM      9  H   UNL     1      10.440  -2.076  21.167  0.00  0.00    +0.119 HD
ENDBRANCH   5   7
BRANCH   1  10
ATOM     10  N   UNL     1       8.580   2.377  23.305  0.00  0.00    -0.311 NA
ATOM     11  H   UNL     1       8.136   2.889  24.069  0.00  0.00    +0.122 HD
BRANCH  10  13
ATOM     12  C   UNL     1       6.946   3.880  22.239  0.00  0.00    +0.020 C 
ATOM     13  C   UNL     1       7.893   2.704  22.052  0.00  0.00    +0.078 C 
ENDBRANCH  10  13
ENDBRANCH   1  10
BRANCH   3  14
ATOM     14  O   UNL     1       6.043  -1.607  22.650  0.00  0.00    -0.387 OA
ATOM     15  H   UNL     1       5.356  -1.763  23.330  0.00  0.00    +0.210 HD
ENDBRANCH   3  14
BRANCH   2  16
ATOM     16  O   UNL     1       6.447   0.552  24.718  0.00  0.00    -0.341 OA
BRANCH  16  17
ATOM     17  C   UNL     1       6.659  -0.344  25.835  0.00  0.00    +0.284 C 
ATOM     18  C   UNL     1       5.298  -0.852  26.395  0.00  0.00    +0.131 C 
ATOM     19  C   UNL     1       5.546  -1.928  27.462  0.00  0.00    +0.048 C 
ATOM     20  C   UNL     1       4.478   0.372  26.927  0.00  0.00    +0.121 C 
ATOM     21  C   UNL     1       5.312   1.139  27.986  0.00  0.00    +0.160 C 
ATOM     22  C   UNL     1       6.726   1.420  27.489  0.00  0.00    +0.196 C 
ATOM     23  O   UNL     1       7.386   0.290  26.905  0.00  0.00    -0.346 OA
BRANCH  20  24
ATOM     24  N   UNL     1       4.046   1.166  25.735  0.00  0.00    -0.311 NA
ATOM     25  H   UNL     1       4.845   1.274  25.096  0.00  0.00    +0.122 HD
ATOM     26  C   UNL     1       3.478   2.466  26.025  0.00  0.00    +0.101 C 
ENDBRANCH  20  24
BRANCH  18  27
ATOM     27  O   UNL     1       4.547  -1.487  25.340  0.00  0.00    -0.382 OA
ATOM     28  H   UNL     1       4.159  -0.739  24.843  0.00  0.00    +0.210 HD
ENDBRANCH  18  27
BRANCH  21  29
ATOM     29  O   UNL     1       5.351   0.396  29.211  0.00  0.00    -0.388 OA
ATOM     30  H   UNL     1       4.506   0.520  29.679  0.00  0.00    +0.210 HD
ENDBRANCH  21  29
ENDBRANCH  16  17
ENDBRANCH   2  16
BRANCH   4  31
ATOM     31  O   UNL     1       8.487  -3.359  23.243  0.00  0.00    -0.333 OA
BRANCH  31  32
ATOM     32  C   UNL     1       8.035  -3.435  24.626  0.00  0.00    +0.324 C 
ATOM     33  C   UNL     1       8.950  -4.275  25.584  0.00  0.00    +0.124 C 
ATOM     34  C   UNL     1       8.160  -5.156  26.570  0.00  0.00    +0.055 C 
ATOM     35  C   UNL     1       6.773  -5.495  26.143  0.00  0.00    +0.017 C 
ATOM     36  C   UNL     1       6.104  -4.777  25.235  0.00  0.00    +0.111 C 
ATOM     37  O   UNL     1       6.649  -3.701  24.621  0.00  0.00    -0.465 OA
BRANCH  33  38
ATOM     38  N   UNL     1      10.092  -4.972  24.955  0.00  0.00    -0.322 NA
ATOM     39  H   UNL     1      10.156  -5.927  25.287  0.00  0.00    +0.119 HD
ATOM     40  H   UNL     1       9.937  -4.991  23.948  0.00  0.00    +0.119 HD
ENDBRANCH  33  38
BRANCH  36  41
ATOM     41  C   UNL     1       4.679  -4.978  24.779  0.00  0.00    +0.152 C 
BRANCH  41  42
ATOM     42  N   UNL     1       4.173  -4.016  23.811  0.00  0.00    -0.324 NA
ATOM     43  H   UNL     1       4.880  -3.293  23.693  0.00  0.00    +0.119 HD
ATOM     44  H   UNL     1       4.103  -4.486  22.910  0.00  0.00    +0.119 HD
ENDBRANCH  41  42
ENDBRANCH  36  41
ENDBRANCH  31  32
ENDBRANCH   4  31
TORSDOF 14
ENDMDL
MODEL 4
REMARK VINA RESULT:      -6.3      1.428      2.345
REMARK  Name = 
REMARK  17 active torsions:
REMARK  status: ('A' for Active; 'I' for Inactive)
REMARK    1  A    between atoms: C_1  and  C_2
REMARK    2  A    between atoms: C_2  and  N_3
REMARK    3  A    between atoms: N_3  and  C_4
REMARK    4  A    between atoms: C_7  and  N_9
REMARK    5  A    between atoms: C_10  and  O_12
REMARK    6  A    between atoms: O_12  and  C_13
REMARK    7  A    between atoms: C_16  and  C_17
REMARK    8  A    between atoms: C_17  and  N_18
REMARK    9  A    between atoms: C_21  and  N_23
REMARK   10  A    between atoms: C_24  and  O_26
REMARK   11  A    between atoms: C_27  and  O_29
REMARK   12  A    between atoms: O_29  and  C_30
REMARK   13  A    between atoms: C_34  and  O_36
REMARK   14  A    between atoms: C_37  and  N_39
REMARK   15  A    between atoms: N_39  and  C_40
REMARK   16  A    between atoms: C_41  and  C_42
REMARK   17  A    between atoms: C_41  and  O_43
REMARK                            x       y       z     vdW  Elec       q    Type
REMARK                         _______ _______ _______ _____ _____    ______ ____
ROOT
ATOM      1  C   UNL     1       7.101   0.964  26.774  0.00  0.00    +0.087 C 
ATOM      2  C   UNL     1       7.990   1.217  25.530  0.00  0.00    +0.169 C 
ATOM      3  C   UNL     1       7.820   0.172  24.437  0.00  0.00    +0.175 C 
ATOM      4  C   UNL     1       7.448  -1.282  24.730  0.00  0.00    +0.170 C 
ATOM      5  C   UNL     1       6.521  -1.393  25.962  0.00  0.00    +0.084 C 
ATOM      6  C   UNL     1       7.051  -0.538  27.127  0.00  0.00    +0.042 C 
ENDROOT
BRANCH   5   7
ATOM      7  N   UNL     1       6.398  -2.798  26.398  0.00  0.00    -0.325 NA
ATOM      8  H   UNL     1       7.280  -3.290  26.253  0.00  0.00    +0.119 HD
ATOM      9  H   UNL     1       6.196  -2.850  27.394  0.00  0.00    +0.119 HD
ENDBRANCH   5   7
BRANCH   1  10
ATOM     10  N   UNL     1       7.578   1.686  27.985  0.00  0.00    -0.311 NA
ATOM     11  H   UNL     1       8.597   1.646  28.027  0.00  0.00    +0.122 HD
BRANCH  10  13
ATOM     12  C   UNL     1       7.944   1.490  30.412  0.00  0.00    +0.020 C 
ATOM     13  C   UNL     1       7.029   1.165  29.240  0.00  0.00    +0.078 C 
ENDBRANCH  10  13
ENDBRANCH   1  10
BRANCH   3  14
ATOM     14  O   UNL     1       9.070   0.175  23.716  0.00  0.00    -0.387 OA
ATOM     15  H   UNL     1       9.537  -0.650  23.962  0.00  0.00    +0.210 HD
ENDBRANCH   3  14
BRANCH   2  16
ATOM     16  O   UNL     1       7.603   2.502  24.951  0.00  0.00    -0.341 OA
BRANCH  16  17
ATOM     17  C   UNL     1       8.666   3.306  24.387  0.00  0.00    +0.284 C 
ATOM     18  C   UNL     1       8.457   4.810  24.730  0.00  0.00    +0.131 C 
ATOM     19  C   UNL     1       9.678   5.620  24.273  0.00  0.00    +0.048 C 
ATOM     20  C   UNL     1       7.114   5.296  24.086  0.00  0.00    +0.121 C 
ATOM     21  C   UNL     1       7.139   5.029  22.559  0.00  0.00    +0.160 C 
ATOM     22  C   UNL     1       7.576   3.601  22.248  0.00  0.00    +0.196 C 
ATOM     23  O   UNL     1       8.746   3.170  22.955  0.00  0.00    -0.346 OA
BRANCH  20  24
ATOM     24  N   UNL     1       6.000   4.647  24.846  0.00  0.00    -0.311 NA
ATOM     25  H   UNL     1       6.254   3.670  25.045  0.00  0.00    +0.122 HD
ATOM     26  C   UNL     1       4.703   4.688  24.204  0.00  0.00    +0.101 C 
ENDBRANCH  20  24
BRANCH  18  27
ATOM     27  O   UNL     1       8.369   4.973  26.159  0.00  0.00    -0.382 OA
ATOM     28  H   UNL     1       7.427   5.185  26.316  0.00  0.00    +0.210 HD
ENDBRANCH  18  27
BRANCH  21  29
ATOM     29  O   UNL     1       8.005   5.969  21.911  0.00  0.00    -0.388 OA
ATOM     30  H   UNL     1       7.793   5.986  20.961  0.00  0.00    +0.210 HD
ENDBRANCH  21  29
ENDBRANCH  16  17
ENDBRANCH   2  16
BRANCH   4  31
ATOM     31  O   UNL     1       6.775  -1.851  23.540  0.00  0.00    -0.333 OA
BRANCH  31  32
ATOM     32  C   UNL     1       7.560  -2.898  22.900  0.00  0.00    +0.324 C 
ATOM     33  C   UNL     1       6.765  -3.822  21.912  0.00  0.00    +0.124 C 
ATOM     34  C   UNL     1       7.147  -5.310  22.022  0.00  0.00    +0.055 C 
ATOM     35  C   UNL     1       7.749  -5.713  23.324  0.00  0.00    +0.017 C 
ATOM     36  C   UNL     1       8.317  -4.835  24.157  0.00  0.00    +0.111 C 
ATOM     37  O   UNL     1       8.364  -3.510  23.886  0.00  0.00    -0.465 OA
BRANCH  33  38
ATOM     38  N   UNL     1       5.307  -3.591  21.830  0.00  0.00    -0.322 NA
ATOM     39  H   UNL     1       4.911  -3.473  22.755  0.00  0.00    +0.119 HD
ATOM     40  H   UNL     1       5.151  -2.735  21.301  0.00  0.00    +0.119 HD
ENDBRANCH  33  38
BRANCH  36  41
ATOM     41  C   UNL     1       9.020  -5.131  25.460  0.00  0.00    +0.152 C 
BRANCH  41  42
ATOM     42  N   UNL     1       8.190  -5.663  26.531  0.00  0.00    -0.324 NA
ATOM     43  H   UNL     1       8.440  -6.642  26.660  0.00  0.00    +0.119 HD
ATOM     44  H   UNL     1       8.454  -5.193  27.395  0.00  0.00    +0.119 HD
ENDBRANCH  41  42
ENDBRANCH  36  41
ENDBRANCH  31  32
ENDBRANCH   4  31
TORSDOF 14
ENDMDL
MODEL 5
REMARK VINA RESULT:      -6.2      3.160      5.198
REMARK  Name = 
REMARK  17 active torsions:
REMARK  status: ('A' for Active; 'I' for Inactive)
REMARK    1  A    between atoms: C_1  and  C_2
REMARK    2  A    between atoms: C_2  and  N_3
REMARK    3  A    between atoms: N_3  and  C_4
REMARK    4  A    between atoms: C_7  and  N_9
REMARK    5  A    between atoms: C_10  and  O_12
REMARK    6  A    between atoms: O_12  and  C_13
REMARK    7  A    between atoms: C_16  and  C_17
REMARK    8  A    between atoms: C_17  and  N_18
REMARK    9  A    between atoms: C_21  and  N_23
REMARK   10  A    between atoms: C_24  and  O_26
REMARK   11  A    between atoms: C_27  and  O_29
REMARK   12  A    between atoms: O_29  and  C_30
REMARK   13  A    between atoms: C_34  and  O_36
REMARK   14  A    between atoms: C_37  and  N_39
REMARK   15  A    between atoms: N_39  and  C_40
REMARK   16  A    between atoms: C_41  and  C_42
REMARK   17  A    between atoms: C_41  and  O_43
REMARK                            x       y       z     vdW  Elec       q    Type
REMARK                         _______ _______ _______ _____ _____    ______ ____
ROOT
ATOM      1  C   UNL     1       9.040  -2.604  24.195  0.00  0.00    +0.087 C 
ATOM      2  C   UNL     1       7.595  -2.094  23.962  0.00  0.00    +0.169 C 
ATOM      3  C   UNL     1       6.627  -2.477  25.072  0.00  0.00    +0.175 C 
ATOM      4  C   UNL     1       6.779  -3.752  25.902  0.00  0.00    +0.170 C 
ATOM      5  C   UNL     1       8.266  -4.124  26.103  0.00  0.00    +0.084 C 
ATOM      6  C   UNL     1       9.039  -4.034  24.774  0.00  0.00    +0.042 C 
ENDROOT
BRANCH   5   7
ATOM      7  N   UNL     1       8.393  -5.487  26.656  0.00  0.00    -0.325 NA
ATOM      8  H   UNL     1       7.644  -6.081  26.302  0.00  0.00    +0.119 HD
ATOM      9  H   UNL     1       9.268  -5.916  26.361  0.00  0.00    +0.119 HD
ENDBRANCH   5   7
BRANCH   1  10
ATOM     10  N   UNL     1       9.853  -2.634  22.949  0.00  0.00    -0.311 NA
ATOM     11  H   UNL     1      10.569  -3.357  23.025  0.00  0.00    +0.122 HD
BRANCH  10  13
ATOM     12  C   UNL     1       9.769  -0.644  21.500  0.00  0.00    +0.020 C 
ATOM     13  C   UNL     1      10.498  -1.357  22.631  0.00  0.00    +0.078 C 
ENDBRANCH  10  13
ENDBRANCH   1  10
BRANCH   3  14
ATOM     14  O   UNL     1       5.328  -2.506  24.446  0.00  0.00    -0.387 OA
ATOM     15  H   UNL     1       5.463  -2.836  23.534  0.00  0.00    +0.210 HD
ENDBRANCH   3  14
BRANCH   2  16
ATOM     16  O   UNL     1       7.631  -0.633  23.917  0.00  0.00    -0.341 OA
BRANCH  16  17
ATOM     17  C   UNL     1       7.505   0.058  25.182  0.00  0.00    +0.284 C 
ATOM     18  C   UNL     1       6.443   1.192  25.084  0.00  0.00    +0.131 C 
ATOM     19  C   UNL     1       6.201   1.797  26.473  0.00  0.00    +0.048 C 
ATOM     20  C   UNL     1       6.918   2.243  24.024  0.00  0.00    +0.121 C 
ATOM     21  C   UNL     1       8.324   2.772  24.406  0.00  0.00    +0.160 C 
ATOM     22  C   UNL     1       9.285   1.631  24.724  0.00  0.00    +0.196 C 
ATOM     23  O   UNL     1       8.754   0.637  25.609  0.00  0.00    -0.346 OA
BRANCH  20  24
ATOM     24  N   UNL     1       6.806   1.595  22.679  0.00  0.00    -0.311 NA
ATOM     25  H   UNL     1       7.134   0.622  22.747  0.00  0.00    +0.122 HD
ATOM     26  C   UNL     1       7.505   2.268  21.605  0.00  0.00    +0.101 C 
ENDBRANCH  20  24
BRANCH  18  27
ATOM     27  O   UNL     1       5.183   0.638  24.653  0.00  0.00    -0.382 OA
ATOM     28  H   UNL     1       5.331   0.421  23.710  0.00  0.00    +0.210 HD
ENDBRANCH  18  27
BRANCH  21  29
ATOM     29  O   UNL     1       8.224   3.667  25.521  0.00  0.00    -0.388 OA
ATOM     30  H   UNL     1       8.867   4.388  25.402  0.00  0.00    +0.210 HD
ENDBRANCH  21  29
ENDBRANCH  16  17
ENDBRANCH   2  16
BRANCH   4  31
ATOM     31  O   UNL     1       6.129  -3.546  27.216  0.00  0.00    -0.333 OA
BRANCH  31  32
ATOM     32  C   UNL     1       4.957  -4.392  27.400  0.00  0.00    +0.324 C 
ATOM     33  C   UNL     1       5.133  -5.564  28.429  0.00  0.00    +0.124 C 
ATOM     34  C   UNL     1       4.489  -6.885  27.970  0.00  0.00    +0.055 C 
ATOM     35  C   UNL     1       4.300  -7.018  26.497  0.00  0.00    +0.017 C 
ATOM     36  C   UNL     1       4.269  -5.961  25.678  0.00  0.00    +0.111 C 
ATOM     37  O   UNL     1       4.429  -4.695  26.127  0.00  0.00    -0.465 OA
BRANCH  33  38
ATOM     38  N   UNL     1       6.485  -5.733  29.004  0.00  0.00    -0.322 NA
ATOM     39  H   UNL     1       6.810  -4.866  29.416  0.00  0.00    +0.119 HD
ATOM     40  H   UNL     1       6.431  -6.437  29.738  0.00  0.00    +0.119 HD
ENDBRANCH  33  38
BRANCH  36  41
ATOM     41  C   UNL     1       4.012  -5.965  24.190  0.00  0.00    +0.152 C 
BRANCH  41  42
ATOM     42  N   UNL     1       3.647  -4.686  23.598  0.00  0.00    -0.324 NA
ATOM     43  H   UNL     1       4.247  -4.537  22.789  0.00  0.00    +0.119 HD
ATOM     44  H   UNL     1       2.701  -4.770  23.231  0.00  0.00    +0.119 HD
ENDBRANCH  41  42
ENDBRANCH  36  41
ENDBRANCH  31  32
ENDBRANCH   4  31
TORSDOF 14
ENDMDL
MODEL 6
REMARK VINA RESULT:      -6.2      2.953      5.338
REMARK  Name = 
REMARK  17 active torsions:
REMARK  status: ('A' for Active; 'I' for Inactive)
REMARK    1  A    between atoms: C_1  and  C_2
REMARK    2  A    between atoms: C_2  and  N_3
REMARK    3  A    between atoms: N_3  and  C_4
REMARK    4  A    between atoms: C_7  and  N_9
REMARK    5  A    between atoms: C_10  and  O_12
REMARK    6  A    between atoms: O_12  and  C_13
REMARK    7  A    between atoms: C_16  and  C_17
REMARK    8  A    between atoms: C_17  and  N_18
REMARK    9  A    between atoms: C_21  and  N_23
REMARK   10  A    between atoms: C_24  and  O_26
REMARK   11  A    between atoms: C_27  and  O_29
REMARK   12  A    between atoms: O_29  and  C_30
REMARK   13  A    between atoms: C_34  and  O_36
REMARK   14  A    between atoms: C_37  and  N_39
REMARK   15  A    between atoms: N_39  and  C_40
REMARK   16  A    between atoms: C_41  and  C_42
REMARK   17  A    between atoms: C_41  and  O_43
REMARK                            x       y       z     vdW  Elec       q    Type
REMARK                         _______ _______ _______ _____ _____    ______ ____
ROOT
ATOM      1  C   UNL     1       9.257  -1.163  24.144  0.00  0.00    +0.087 C 
ATOM      2  C   UNL     1       7.854  -1.047  23.495  0.00  0.00    +0.169 C 
ATOM      3  C   UNL     1       6.975  -2.269  23.724  0.00  0.00    +0.175 C 
ATOM      4  C   UNL     1       7.541  -3.680  23.888  0.00  0.00    +0.170 C 
ATOM      5  C   UNL     1       8.918  -3.660  24.590  0.00  0.00    +0.084 C 
ATOM      6  C   UNL     1       9.833  -2.585  23.976  0.00  0.00    +0.042 C 
ENDROOT
BRANCH   5   7
ATOM      7  N   UNL     1       9.573  -4.980  24.491  0.00  0.00    -0.325 NA
ATOM      8  H   UNL     1      10.213  -4.996  23.697  0.00  0.00    +0.119 HD
ATOM      9  H   UNL     1      10.133  -5.167  25.320  0.00  0.00    +0.119 HD
ENDBRANCH   5   7
BRANCH   1  10
ATOM     10  N   UNL     1      10.246  -0.216  23.560  0.00  0.00    -0.311 NA
ATOM     11  H   UNL     1      10.297   0.624  24.138  0.00  0.00    +0.122 HD
BRANCH  10  13
ATOM     12  C   UNL     1       9.960   1.689  22.026  0.00  0.00    +0.020 C 
ATOM     13  C   UNL     1       9.948   0.175  22.179  0.00  0.00    +0.078 C 
ENDBRANCH  10  13
ENDBRANCH   1  10
BRANCH   3  14
ATOM     14  O   UNL     1       6.056  -2.284  22.612  0.00  0.00    -0.387 OA
ATOM     15  H   UNL     1       5.765  -1.360  22.476  0.00  0.00    +0.210 HD
ENDBRANCH   3  14
BRANCH   2  16
ATOM     16  O   UNL     1       7.166   0.090  24.104  0.00  0.00    -0.341 OA
BRANCH  16  17
ATOM     17  C   UNL     1       7.048   0.080  25.547  0.00  0.00    +0.284 C 
ATOM     18  C   UNL     1       5.573   0.331  25.978  0.00  0.00    +0.131 C 
ATOM     19  C   UNL     1       5.438   0.147  27.495  0.00  0.00    +0.048 C 
ATOM     20  C   UNL     1       5.134   1.751  25.483  0.00  0.00    +0.121 C 
ATOM     21  C   UNL     1       6.109   2.822  26.037  0.00  0.00    +0.160 C 
ATOM     22  C   UNL     1       7.564   2.429  25.801  0.00  0.00    +0.196 C 
ATOM     23  O   UNL     1       7.881   1.080  26.164  0.00  0.00    -0.346 OA
BRANCH  20  24
ATOM     24  N   UNL     1       5.015   1.683  23.993  0.00  0.00    -0.311 NA
ATOM     25  H   UNL     1       5.832   1.187  23.613  0.00  0.00    +0.122 HD
ATOM     26  C   UNL     1       4.866   2.956  23.322  0.00  0.00    +0.101 C 
ENDBRANCH  20  24
BRANCH  18  27
ATOM     27  O   UNL     1       4.716  -0.655  25.367  0.00  0.00    -0.382 OA
ATOM     28  H   UNL     1       5.333  -1.355  25.072  0.00  0.00    +0.210 HD
ENDBRANCH  18  27
BRANCH  21  29
ATOM     29  O   UNL     1       5.867   3.029  27.433  0.00  0.00    -0.388 OA
ATOM     30  H   UNL     1       5.086   3.603  27.534  0.00  0.00    +0.210 HD
ENDBRANCH  21  29
ENDBRANCH  16  17
ENDBRANCH   2  16
BRANCH   4  31
ATOM     31  O   UNL     1       6.584  -4.489  24.676  0.00  0.00    -0.333 OA
BRANCH  31  32
ATOM     32  C   UNL     1       6.267  -3.883  25.963  0.00  0.00    +0.324 C 
ATOM     33  C   UNL     1       6.792  -4.665  27.218  0.00  0.00    +0.124 C 
ATOM     34  C   UNL     1       5.782  -4.709  28.379  0.00  0.00    +0.055 C 
ATOM     35  C   UNL     1       4.357  -4.516  27.986  0.00  0.00    +0.017 C 
ATOM     36  C   UNL     1       4.002  -3.929  26.839  0.00  0.00    +0.111 C 
ATOM     37  O   UNL     1       4.912  -3.487  25.941  0.00  0.00    -0.465 OA
BRANCH  33  38
ATOM     38  N   UNL     1       7.446  -5.965  26.954  0.00  0.00    -0.322 NA
ATOM     39  H   UNL     1       8.454  -5.872  26.992  0.00  0.00    +0.119 HD
ATOM     40  H   UNL     1       7.155  -6.619  27.678  0.00  0.00    +0.119 HD
ENDBRANCH  33  38
BRANCH  36  41
ATOM     41  C   UNL     1       2.602  -3.613  26.368  0.00  0.00    +0.152 C 
BRANCH  41  42
ATOM     42  N   UNL     1       2.285  -2.203  26.194  0.00  0.00    -0.324 NA
ATOM     43  H   UNL     1       2.711  -1.894  25.322  0.00  0.00    +0.119 HD
ATOM     44  H   UNL     1       1.280  -2.122  26.056  0.00  0.00    +0.119 HD
ENDBRANCH  41  42
ENDBRANCH  36  41
ENDBRANCH  31  32
ENDBRANCH   4  31
TORSDOF 14
ENDMDL
MODEL 7
REMARK VINA RESULT:      -6.2      3.564      8.864
REMARK  Name = 
REMARK  17 active torsions:
REMARK  status: ('A' for Active; 'I' for Inactive)
REMARK    1  A    between atoms: C_1  and  C_2
REMARK    2  A    between atoms: C_2  and  N_3
REMARK    3  A    between atoms: N_3  and  C_4
REMARK    4  A    between atoms: C_7  and  N_9
REMARK    5  A    between atoms: C_10  and  O_12
REMARK    6  A    between atoms: O_12  and  C_13
REMARK    7  A    between atoms: C_16  and  C_17
REMARK    8  A    between atoms: C_17  and  N_18
REMARK    9  A    between atoms: C_21  and  N_23
REMARK   10  A    between atoms: C_24  and  O_26
REMARK   11  A    between atoms: C_27  and  O_29
REMARK   12  A    between atoms: O_29  and  C_30
REMARK   13  A    between atoms: C_34  and  O_36
REMARK   14  A    between atoms: C_37  and  N_39
REMARK   15  A    between atoms: N_39  and  C_40
REMARK   16  A    between atoms: C_41  and  C_42
REMARK   17  A    between atoms: C_41  and  O_43
REMARK                            x       y       z     vdW  Elec       q    Type
REMARK                         _______ _______ _______ _____ _____    ______ ____
ROOT
ATOM      1  C   UNL     1       6.876  -3.778  23.840  0.00  0.00    +0.087 C 
ATOM      2  C   UNL     1       6.852  -3.392  25.341  0.00  0.00    +0.169 C 
ATOM      3  C   UNL     1       6.891  -1.891  25.585  0.00  0.00    +0.175 C 
ATOM      4  C   UNL     1       7.587  -0.914  24.636  0.00  0.00    +0.170 C 
ATOM      5  C   UNL     1       7.498  -1.388  23.168  0.00  0.00    +0.084 C 
ATOM      6  C   UNL     1       7.853  -2.882  23.051  0.00  0.00    +0.042 C 
ENDROOT
BRANCH   5   7
ATOM      7  N   UNL     1       8.401  -0.598  22.308  0.00  0.00    -0.325 NA
ATOM      8  H   UNL     1       8.866   0.125  22.857  0.00  0.00    +0.119 HD
ATOM      9  H   UNL     1       9.135  -1.186  21.919  0.00  0.00    +0.119 HD
ENDBRANCH   5   7
BRANCH   1  10
ATOM     10  N   UNL     1       7.290  -5.189  23.611  0.00  0.00    -0.311 NA
ATOM     11  H   UNL     1       8.154  -5.379  24.119  0.00  0.00    +0.122 HD
BRANCH  10  13
ATOM     12  C   UNL     1       6.175  -5.957  21.554  0.00  0.00    +0.020 C 
ATOM     13  C   UNL     1       7.485  -5.528  22.198  0.00  0.00    +0.078 C 
ENDBRANCH  10  13
ENDBRANCH   1  10
BRANCH   3  14
ATOM     14  O   UNL     1       7.479  -1.736  26.893  0.00  0.00    -0.387 OA
ATOM     15  H   UNL     1       6.788  -1.982  27.541  0.00  0.00    +0.210 HD
ENDBRANCH   3  14
BRANCH   2  16
ATOM     16  O   UNL     1       5.600  -3.882  25.915  0.00  0.00    -0.341 OA
BRANCH  16  17
ATOM     17  C   UNL     1       5.652  -4.350  27.283  0.00  0.00    +0.284 C 
ATOM     18  C   UNL     1       6.020  -5.862  27.332  0.00  0.00    +0.131 C 
ATOM     19  C   UNL     1       6.238  -6.296  28.787  0.00  0.00    +0.048 C 
ATOM     20  C   UNL     1       4.901  -6.681  26.602  0.00  0.00    +0.121 C 
ATOM     21  C   UNL     1       3.525  -6.378  27.250  0.00  0.00    +0.160 C 
ATOM     22  C   UNL     1       3.295  -4.878  27.400  0.00  0.00    +0.196 C 
ATOM     23  O   UNL     1       4.399  -4.162  27.968  0.00  0.00    -0.346 OA
BRANCH  20  24
ATOM     24  N   UNL     1       5.016  -6.380  25.141  0.00  0.00    -0.311 NA
ATOM     25  H   UNL     1       5.031  -5.360  25.008  0.00  0.00    +0.122 HD
ATOM     26  C   UNL     1       3.989  -6.962  24.303  0.00  0.00    +0.101 C 
ENDBRANCH  20  24
BRANCH  18  27
ATOM     27  O   UNL     1       7.270  -6.079  26.647  0.00  0.00    -0.382 OA
ATOM     28  H   UNL     1       7.736  -6.733  27.206  0.00  0.00    +0.210 HD
ENDBRANCH  18  27
BRANCH  21  29
ATOM     29  O   UNL     1       3.430  -7.029  28.522  0.00  0.00    -0.388 OA
ATOM     30  H   UNL     1       4.288  -6.956  28.976  0.00  0.00    +0.210 HD
ENDBRANCH  21  29
ENDBRANCH  16  17
ENDBRANCH   2  16
BRANCH   4  31
ATOM     31  O   UNL     1       6.955   0.418  24.776  0.00  0.00    -0.333 OA
BRANCH  31  32
ATOM     32  C   UNL     1       7.839   1.395  25.398  0.00  0.00    +0.324 C 
ATOM     33  C   UNL     1       7.134   2.690  25.933  0.00  0.00    +0.124 C 
ATOM     34  C   UNL     1       7.928   3.980  25.654  0.00  0.00    +0.055 C 
ATOM     35  C   UNL     1       8.890   3.897  24.518  0.00  0.00    +0.017 C 
ATOM     36  C   UNL     1       9.360   2.734  24.058  0.00  0.00    +0.111 C 
ATOM     37  O   UNL     1       8.978   1.544  24.577  0.00  0.00    -0.465 OA
BRANCH  33  38
ATOM     38  N   UNL     1       5.688   2.814  25.650  0.00  0.00    -0.322 NA
ATOM     39  H   UNL     1       5.165   2.097  26.140  0.00  0.00    +0.119 HD
ATOM     40  H   UNL     1       5.376   3.724  25.983  0.00  0.00    +0.119 HD
ENDBRANCH  33  38
BRANCH  36  41
ATOM     41  C   UNL     1      10.386   2.528  22.970  0.00  0.00    +0.152 C 
BRANCH  41  42
ATOM     42  N   UNL     1       9.879   2.061  21.688  0.00  0.00    -0.324 NA
ATOM     43  H   UNL     1       8.864   2.020  21.752  0.00  0.00    +0.119 HD
ATOM     44  H   UNL     1      10.085   2.774  20.991  0.00  0.00    +0.119 HD
ENDBRANCH  41  42
ENDBRANCH  36  41
ENDBRANCH  31  32
ENDBRANCH   4  31
TORSDOF 14
ENDMDL
MODEL 8
REMARK VINA RESULT:      -6.2      2.809      4.053
REMARK  Name = 
REMARK  17 active torsions:
REMARK  status: ('A' for Active; 'I' for Inactive)
REMARK    1  A    between atoms: C_1  and  C_2
REMARK    2  A    between atoms: C_2  and  N_3
REMARK    3  A    between atoms: N_3  and  C_4
REMARK    4  A    between atoms: C_7  and  N_9
REMARK    5  A    between atoms: C_10  and  O_12
REMARK    6  A    between atoms: O_12  and  C_13
REMARK    7  A    between atoms: C_16  and  C_17
REMARK    8  A    between atoms: C_17  and  N_18
REMARK    9  A    between atoms: C_21  and  N_23
REMARK   10  A    between atoms: C_24  and  O_26
REMARK   11  A    between atoms: C_27  and  O_29
REMARK   12  A    between atoms: O_29  and  C_30
REMARK   13  A    between atoms: C_34  and  O_36
REMARK   14  A    between atoms: C_37  and  N_39
REMARK   15  A    between atoms: N_39  and  C_40
REMARK   16  A    between atoms: C_41  and  C_42
REMARK   17  A    between atoms: C_41  and  O_43
REMARK                            x       y       z     vdW  Elec       q    Type
REMARK                         _______ _______ _______ _____ _____    ______ ____
ROOT
ATOM      1  C   UNL     1       5.715  -0.551  25.244  0.00  0.00    +0.087 C 
ATOM      2  C   UNL     1       7.007  -1.259  24.763  0.00  0.00    +0.169 C 
ATOM      3  C   UNL     1       6.773  -2.673  24.252  0.00  0.00    +0.175 C 
ATOM      4  C   UNL     1       5.654  -3.572  24.779  0.00  0.00    +0.170 C 
ATOM      5  C   UNL     1       4.407  -2.749  25.177  0.00  0.00    +0.084 C 
ATOM      6  C   UNL     1       4.803  -1.523  26.020  0.00  0.00    +0.042 C 
ENDROOT
BRANCH   5   7
ATOM      7  N   UNL     1       3.453  -3.582  25.936  0.00  0.00    -0.325 NA
ATOM      8  H   UNL     1       3.524  -3.378  26.933  0.00  0.00    +0.119 HD
ATOM      9  H   UNL     1       2.495  -3.372  25.664  0.00  0.00    +0.119 HD
ENDBRANCH   5   7
BRANCH   1  10
ATOM     10  N   UNL     1       5.987   0.607  26.138  0.00  0.00    -0.311 NA
ATOM     11  H   UNL     1       6.844   1.075  25.840  0.00  0.00    +0.122 HD
BRANCH  10  13
ATOM     12  C   UNL     1       6.419   1.472  28.403  0.00  0.00    +0.020 C 
ATOM     13  C   UNL     1       6.109   0.248  27.554  0.00  0.00    +0.078 C 
ENDBRANCH  10  13
ENDBRANCH   1  10
BRANCH   3  14
ATOM     14  O   UNL     1       8.026  -3.359  24.452  0.00  0.00    -0.387 OA
ATOM     15  H   UNL     1       7.891  -4.281  24.153  0.00  0.00    +0.210 HD
ENDBRANCH   3  14
BRANCH   2  16
ATOM     16  O   UNL     1       7.557  -0.491  23.647  0.00  0.00    -0.341 OA
BRANCH  16  17
ATOM     17  C   UNL     1       8.988  -0.274  23.652  0.00  0.00    +0.284 C 
ATOM     18  C   UNL     1       9.326   1.149  24.185  0.00  0.00    +0.131 C 
ATOM     19  C   UNL     1      10.845   1.296  24.343  0.00  0.00    +0.048 C 
ATOM     20  C   UNL     1       8.696   2.214  23.224  0.00  0.00    +0.121 C 
ATOM     21  C   UNL     1       9.206   1.980  21.778  0.00  0.00    +0.160 C 
ATOM     22  C   UNL     1       9.073   0.518  21.367  0.00  0.00    +0.196 C 
ATOM     23  O   UNL     1       9.561  -0.418  22.337  0.00  0.00    -0.346 OA
BRANCH  20  24
ATOM     24  N   UNL     1       7.213   2.156  23.412  0.00  0.00    -0.311 NA
ATOM     25  H   UNL     1       6.915   1.171  23.436  0.00  0.00    +0.122 HD
ATOM     26  C   UNL     1       6.432   2.873  22.426  0.00  0.00    +0.101 C 
ENDBRANCH  20  24
BRANCH  18  27
ATOM     27  O   UNL     1       8.758   1.321  25.499  0.00  0.00    -0.382 OA
ATOM     28  H   UNL     1       8.726   0.413  25.863  0.00  0.00    +0.210 HD
ENDBRANCH  18  27
BRANCH  21  29
ATOM     29  O   UNL     1      10.568   2.411  21.664  0.00  0.00    -0.388 OA
ATOM     30  H   UNL     1      11.099   1.950  22.338  0.00  0.00    +0.210 HD
ENDBRANCH  21  29
ENDBRANCH  16  17
ENDBRANCH   2  16
BRANCH   4  31
ATOM     31  O   UNL     1       5.297  -4.554  23.731  0.00  0.00    -0.333 OA
BRANCH  31  32
ATOM     32  C   UNL     1       5.248  -5.919  24.236  0.00  0.00    +0.324 C 
ATOM     33  C   UNL     1       3.855  -6.631  24.108  0.00  0.00    +0.124 C 
ATOM     34  C   UNL     1       3.479  -7.469  25.344  0.00  0.00    +0.055 C 
ATOM     35  C   UNL     1       4.161  -7.071  26.609  0.00  0.00    +0.017 C 
ATOM     36  C   UNL     1       5.298  -6.369  26.623  0.00  0.00    +0.111 C 
ATOM     37  O   UNL     1       5.901  -5.949  25.487  0.00  0.00    -0.465 OA
BRANCH  33  38
ATOM     38  N   UNL     1       2.742  -5.804  23.595  0.00  0.00    -0.322 NA
ATOM     39  H   UNL     1       2.026  -6.388  23.177  0.00  0.00    +0.119 HD
ATOM     40  H   UNL     1       2.331  -5.303  24.380  0.00  0.00    +0.119 HD
ENDBRANCH  33  38
BRANCH  36  41
ATOM     41  C   UNL     1       6.114  -5.973  27.830  0.00  0.00    +0.152 C 
BRANCH  41  42
ATOM     42  N   UNL     1       7.551  -5.864  27.626  0.00  0.00    -0.324 NA
ATOM     43  H   UNL     1       7.809  -6.507  26.879  0.00  0.00    +0.119 HD
ATOM     44  H   UNL     1       7.747  -4.931  27.268  0.00  0.00    +0.119 HD
ENDBRANCH  41  42
ENDBRANCH  36  41
ENDBRANCH  31  32
ENDBRANCH   4  31
TORSDOF 14
ENDMDL
MODEL 9
REMARK VINA RESULT:      -6.1      2.850      4.642
REMARK  Name = 
REMARK  17 active torsions:
REMARK  status: ('A' for Active; 'I' for Inactive)
REMARK    1  A    between atoms: C_1  and  C_2
REMARK    2  A    between atoms: C_2  and  N_3
REMARK    3  A    between atoms: N_3  and  C_4
REMARK    4  A    between atoms: C_7  and  N_9
REMARK    5  A    between atoms: C_10  and  O_12
REMARK    6  A    between atoms: O_12  and  C_13
REMARK    7  A    between atoms: C_16  and  C_17
REMARK    8  A    between atoms: C_17  and  N_18
REMARK    9  A    between atoms: C_21  and  N_23
REMARK   10  A    between atoms: C_24  and  O_26
REMARK   11  A    between atoms: C_27  and  O_29
REMARK   12  A    between atoms: O_29  and  C_30
REMARK   13  A    between atoms: C_34  and  O_36
REMARK   14  A    between atoms: C_37  and  N_39
REMARK   15  A    between atoms: N_39  and  C_40
REMARK   16  A    between atoms: C_41  and  C_42
REMARK   17  A    between atoms: C_41  and  O_43
REMARK                            x       y       z     vdW  Elec       q    Type
REMARK                         _______ _______ _______ _____ _____    ______ ____
ROOT
ATOM      1  C   UNL     1       8.710  -1.646  25.257  0.00  0.00    +0.087 C 
ATOM      2  C   UNL     1       7.385  -1.177  24.605  0.00  0.00    +0.169 C 
ATOM      3  C   UNL     1       6.159  -1.922  25.112  0.00  0.00    +0.175 C 
ATOM      4  C   UNL     1       6.210  -3.372  25.595  0.00  0.00    +0.170 C 
ATOM      5  C   UNL     1       7.563  -3.697  26.269  0.00  0.00    +0.084 C 
ATOM      6  C   UNL     1       8.738  -3.180  25.420  0.00  0.00    +0.042 C 
ENDROOT
BRANCH   5   7
ATOM      7  N   UNL     1       7.706  -5.152  26.476  0.00  0.00    -0.325 NA
ATOM      8  H   UNL     1       8.386  -5.337  27.214  0.00  0.00    +0.119 HD
ATOM      9  H   UNL     1       6.826  -5.562  26.781  0.00  0.00    +0.119 HD
ENDBRANCH   5   7
BRANCH   1  10
ATOM     10  N   UNL     1       9.912  -1.264  24.468  0.00  0.00    -0.311 NA
ATOM     11  H   UNL     1       9.953  -0.249  24.376  0.00  0.00    +0.122 HD
BRANCH  10  13
ATOM     12  C   UNL     1      10.011  -0.792  22.053  0.00  0.00    +0.020 C 
ATOM     13  C   UNL     1       9.959  -1.865  23.131  0.00  0.00    +0.078 C 
ENDBRANCH  10  13
ENDBRANCH   1  10
BRANCH   3  14
ATOM     14  O   UNL     1       5.199  -1.846  24.037  0.00  0.00    -0.387 OA
ATOM     15  H   UNL     1       5.570  -2.363  23.293  0.00  0.00    +0.210 HD
ENDBRANCH   3  14
BRANCH   2  16
ATOM     16  O   UNL     1       7.190   0.233  24.937  0.00  0.00    -0.341 OA
BRANCH  16  17
ATOM     17  C   UNL     1       7.463   1.191  23.886  0.00  0.00    +0.284 C 
ATOM     18  C   UNL     1       8.393   2.326  24.407  0.00  0.00    +0.131 C 
ATOM     19  C   UNL     1       8.808   3.232  23.240  0.00  0.00    +0.048 C 
ATOM     20  C   UNL     1       7.661   3.094  25.560  0.00  0.00    +0.121 C 
ATOM     21  C   UNL     1       6.297   3.626  25.049  0.00  0.00    +0.160 C 
ATOM     22  C   UNL     1       5.504   2.537  24.334  0.00  0.00    +0.196 C 
ATOM     23  O   UNL     1       6.257   1.788  23.372  0.00  0.00    -0.346 OA
BRANCH  20  24
ATOM     24  N   UNL     1       7.605   2.173  26.738  0.00  0.00    -0.311 NA
ATOM     25  H   UNL     1       7.234   1.263  26.435  0.00  0.00    +0.122 HD
ATOM     26  C   UNL     1       6.840   2.656  27.868  0.00  0.00    +0.101 C 
ENDBRANCH  20  24
BRANCH  18  27
ATOM     27  O   UNL     1       9.607   1.753  24.933  0.00  0.00    -0.382 OA
ATOM     28  H   UNL     1       9.941   1.193  24.204  0.00  0.00    +0.210 HD
ENDBRANCH  18  27
BRANCH  21  29
ATOM     29  O   UNL     1       6.502   4.747  24.181  0.00  0.00    -0.388 OA
ATOM     30  H   UNL     1       6.538   5.557  24.720  0.00  0.00    +0.210 HD
ENDBRANCH  21  29
ENDBRANCH  16  17
ENDBRANCH   2  16
BRANCH   4  31
ATOM     31  O   UNL     1       5.103  -3.595  26.552  0.00  0.00    -0.333 OA
BRANCH  31  32
ATOM     32  C   UNL     1       4.142  -4.581  26.076  0.00  0.00    +0.324 C 
ATOM     33  C   UNL     1       4.090  -5.917  26.899  0.00  0.00    +0.124 C 
ATOM     34  C   UNL     1       3.954  -7.174  26.020  0.00  0.00    +0.055 C 
ATOM     35  C   UNL     1       4.422  -7.015  24.613  0.00  0.00    +0.017 C 
ATOM     36  C   UNL     1       4.536  -5.820  24.025  0.00  0.00    +0.111 C 
ATOM     37  O   UNL     1       4.256  -4.666  24.672  0.00  0.00    -0.465 OA
BRANCH  33  38
ATOM     38  N   UNL     1       5.086  -6.058  27.982  0.00  0.00    -0.322 NA
ATOM     39  H   UNL     1       4.794  -6.765  28.647  0.00  0.00    +0.119 HD
ATOM     40  H   UNL     1       5.968  -6.353  27.566  0.00  0.00    +0.119 HD
ENDBRANCH  33  38
BRANCH  36  41
ATOM     41  C   UNL     1       4.926  -5.539  22.593  0.00  0.00    +0.152 C 
BRANCH  41  42
ATOM     42  N   UNL     1       4.998  -4.137  22.210  0.00  0.00    -0.324 NA
ATOM     43  H   UNL     1       4.810  -4.079  21.211  0.00  0.00    +0.119 HD
ATOM     44  H   UNL     1       4.229  -3.648  22.666  0.00  0.00    +0.119 HD
ENDBRANCH  41  42
ENDBRANCH  36  41
ENDBRANCH  31  32
ENDBRANCH   4  31
TORSDOF 14
ENDMDL
