MODEL 1
REMARK VINA RESULT:      -5.5      0.000      0.000
REMARK  Name = 
REMARK  13 active torsions:
REMARK  status: ('A' for Active; 'I' for Inactive)
REMARK    1  A    between atoms: C_1  and  C_2
REMARK    2  A    between atoms: C_2  and  O_4
REMARK    3  A    between atoms: C_2  and  C_15
REMARK    4  A    between atoms: O_4  and  C_5
REMARK    5  A    between atoms: C_5  and  O_7
REMARK    6  A    between atoms: C_5  and  C_8
REMARK    7  A    between atoms: C_8  and  C_9
REMARK    8  A    between atoms: C_9  and  N_11
REMARK    9  A    between atoms: C_9  and  C_12
REMARK   10  A    between atoms: C_12  and  O_13
REMARK   11  A    between atoms: C_15  and  N_17
REMARK   12  A    between atoms: C_15  and  C_18
REMARK   13  A    between atoms: C_18  and  O_19
REMARK                            x       y       z     vdW  Elec       q    Type
REMARK                         _______ _______ _______ _____ _____    ______ ____
ROOT
ATOM      1  C   UNL     1       9.172  -3.113  24.024  0.00  0.00    +0.249 C 
ENDROOT
BRANCH   1   2
ATOM      2  O   UNL     1       7.959  -2.749  23.381  0.00  0.00    -0.367 OA
ATOM      3  H   UNL     1       8.202  -2.417  22.500  0.00  0.00    +0.212 HD
ENDBRANCH   1   2
BRANCH   1   4
ATOM      4  OG1 UNL     1      10.161  -2.111  23.826  0.00  0.00    -0.346 OA
BRANCH   4   6
ATOM      5  CG2 UNL     1      10.169   0.148  24.809  0.00  0.00    +0.040 C 
ATOM      6  CB  UNL     1       9.727  -0.745  23.650  0.00  0.00    +0.146 C 
BRANCH   6   7
ATOM      7  CA  UNL     1      10.060  -0.203  22.239  0.00  0.00    +0.189 C 
BRANCH   7   8
ATOM      8  N   UNL     1       9.673  -1.222  21.202  0.00  0.00    -0.316 NA
ATOM      9  H1  UNL     1       9.840  -0.806  20.281  0.00  0.00    +0.119 HD
ATOM     10  H2  UNL     1      10.391  -1.959  21.266  0.00  0.00    +0.119 HD
ENDBRANCH   7   8
BRANCH   7  11
ATOM     11  C   UNL     1       9.316   1.101  21.936  0.00  0.00    +0.324 C 
ATOM     12  OXT UNL     1       8.102   1.229  21.971  0.00  0.00    -0.249 OA
BRANCH  11  13
ATOM     13  O   UNL     1      10.175   2.107  21.628  0.00  0.00    -0.479 OA
ATOM     14  H   UNL     1      10.331   2.036  20.649  0.00  0.00    +0.295 HD
ENDBRANCH  11  13
ENDBRANCH   7  11
ENDBRANCH   6   7
ENDBRANCH   4   6
ENDBRANCH   1   4
BRANCH   1  15
ATOM     15  C   UNL     1       8.839  -3.233  25.519  0.00  0.00    +0.091 C 
BRANCH  15  16
ATOM     16  CA  UNL     1       9.134  -4.589  26.170  0.00  0.00    +0.165 C 
BRANCH  16  17
ATOM     17  N   UNL     1      10.033  -5.458  25.366  0.00  0.00    -0.318 NA
ATOM     18  H1  UNL     1      10.220  -4.988  24.475  0.00  0.00    +0.119 HD
ATOM     19  H2  UNL     1      10.944  -5.501  25.833  0.00  0.00    +0.119 HD
ENDBRANCH  16  17
BRANCH  16  20
ATOM     20  C   UNL     1       7.817  -5.338  26.399  0.00  0.00    +0.322 C 
ATOM     21  OXT UNL     1       6.917  -5.447  25.583  0.00  0.00    -0.249 OA
BRANCH  20  22
ATOM     22  O   UNL     1       7.815  -5.950  27.612  0.00  0.00    -0.480 OA
ATOM     23  H   UNL     1       8.749  -6.254  27.762  0.00  0.00    +0.295 HD
ENDBRANCH  20  22
ENDBRANCH  16  20
ENDBRANCH  15  16
ENDBRANCH   1  15
TORSDOF 12
ENDMDL
MODEL 2
REMARK VINA RESULT:      -5.4      1.561      6.286
REMARK  Name = 
REMARK  13 active torsions:
REMARK  status: ('A' for Active; 'I' for Inactive)
REMARK    1  A    between atoms: C_1  and  C_2
REMARK    2  A    between atoms: C_2  and  O_4
REMARK    3  A    between atoms: C_2  and  C_15
REMARK    4  A    between atoms: O_4  and  C_5
REMARK    5  A    between atoms: C_5  and  O_7
REMARK    6  A    between atoms: C_5  and  C_8
REMARK    7  A    between atoms: C_8  and  C_9
REMARK    8  A    between atoms: C_9  and  N_11
REMARK    9  A    between atoms: C_9  and  C_12
REMARK   10  A    between atoms: C_12  and  O_13
REMARK   11  A    between atoms: C_15  and  N_17
REMARK   12  A    between atoms: C_15  and  C_18
REMARK   13  A    between atoms: C_18  and  O_19
REMARK                            x       y       z     vdW  Elec       q    Type
REMARK                         _______ _______ _______ _____ _____    ______ ____
ROOT
ATOM      1  C   UNL     1       9.753  -2.212  24.041  0.00  0.00    +0.249 C 
ENDROOT
BRANCH   1   2
ATOM      2  O   UNL     1       8.543  -1.688  24.570  0.00  0.00    -0.367 OA
ATOM      3  H   UNL     1       8.069  -2.438  24.970  0.00  0.00    +0.212 HD
ENDBRANCH   1   2
BRANCH   1   4
ATOM      4  OG1 UNL     1       9.615  -3.598  23.757  0.00  0.00    -0.346 OA
BRANCH   4   6
ATOM      5  CG2 UNL     1       7.582  -4.778  23.021  0.00  0.00    +0.040 C 
ATOM      6  CB  UNL     1       8.415  -4.271  24.197  0.00  0.00    +0.146 C 
BRANCH   6   7
ATOM      7  CA  UNL     1       8.704  -5.319  25.298  0.00  0.00    +0.189 C 
BRANCH   7   8
ATOM      8  N   UNL     1      10.179  -5.610  25.345  0.00  0.00    -0.316 NA
ATOM      9  H1  UNL     1      10.605  -4.948  26.002  0.00  0.00    +0.119 HD
ATOM     10  H2  UNL     1      10.261  -6.515  25.831  0.00  0.00    +0.119 HD
ENDBRANCH   7   8
BRANCH   7  11
ATOM     11  C   UNL     1       8.265  -4.831  26.683  0.00  0.00    +0.324 C 
ATOM     12  OXT UNL     1       8.190  -3.658  27.011  0.00  0.00    -0.249 OA
BRANCH  11  13
ATOM     13  O   UNL     1       7.958  -5.868  27.504  0.00  0.00    -0.479 OA
ATOM     14  H   UNL     1       8.632  -6.572  27.311  0.00  0.00    +0.295 HD
ENDBRANCH  11  13
ENDBRANCH   7  11
ENDBRANCH   6   7
ENDBRANCH   4   6
ENDBRANCH   1   4
BRANCH   1  15
ATOM     15  C   UNL     1      10.018  -1.434  22.742  0.00  0.00    +0.091 C 
BRANCH  15  16
ATOM     16  CA  UNL     1      10.370   0.049  22.903  0.00  0.00    +0.165 C 
BRANCH  16  17
ATOM     17  N   UNL     1      10.580   0.466  24.315  0.00  0.00    -0.318 NA
ATOM     18  H1  UNL     1      10.093  -0.200  24.921  0.00  0.00    +0.119 HD
ATOM     19  H2  UNL     1      11.572   0.349  24.543  0.00  0.00    +0.119 HD
ENDBRANCH  16  17
BRANCH  16  20
ATOM     20  C   UNL     1       9.245   0.903  22.309  0.00  0.00    +0.322 C 
ATOM     21  OXT UNL     1       8.061   0.795  22.578  0.00  0.00    -0.249 OA
BRANCH  20  22
ATOM     22  O   UNL     1       9.752   1.871  21.501  0.00  0.00    -0.480 OA
ATOM     23  H   UNL     1       9.791   2.694  22.055  0.00  0.00    +0.295 HD
ENDBRANCH  20  22
ENDBRANCH  16  20
ENDBRANCH  15  16
ENDBRANCH   1  15
TORSDOF 12
ENDMDL
MODEL 3
REMARK VINA RESULT:      -5.3      1.758      6.313
REMARK  Name = 
REMARK  13 active torsions:
REMARK  status: ('A' for Active; 'I' for Inactive)
REMARK    1  A    between atoms: C_1  and  C_2
REMARK    2  A    between atoms: C_2  and  O_4
REMARK    3  A    between atoms: C_2  and  C_15
REMARK    4  A    between atoms: O_4  and  C_5
REMARK    5  A    between atoms: C_5  and  O_7
REMARK    6  A    between atoms: C_5  and  C_8
REMARK    7  A    between atoms: C_8  and  C_9
REMARK    8  A    between atoms: C_9  and  N_11
REMARK    9  A    between atoms: C_9  and  C_12
REMARK   10  A    between atoms: C_12  and  O_13
REMARK   11  A    between atoms: C_15  and  N_17
REMARK   12  A    between atoms: C_15  and  C_18
REMARK   13  A    between atoms: C_18  and  O_19
REMARK                            x       y       z     vdW  Elec       q    Type
REMARK                         _______ _______ _______ _____ _____    ______ ____
ROOT
ATOM      1  C   UNL     1       9.388  -1.949  22.759  0.00  0.00    +0.249 C 
ENDROOT
BRANCH   1   2
ATOM      2  O   UNL     1      10.559  -1.732  21.985  0.00  0.00    -0.367 OA
ATOM      3  H   UNL     1      11.008  -0.961  22.374  0.00  0.00    +0.212 HD
ENDBRANCH   1   2
BRANCH   1   4
ATOM      4  OG1 UNL     1       9.561  -3.066  23.622  0.00  0.00    -0.346 OA
BRANCH   4   6
ATOM      5  CG2 UNL     1       7.561  -4.216  22.757  0.00  0.00    +0.040 C 
ATOM      6  CB  UNL     1       8.396  -3.841  23.981  0.00  0.00    +0.146 C 
BRANCH   6   7
ATOM      7  CA  UNL     1       8.745  -5.017  24.923  0.00  0.00    +0.189 C 
BRANCH   7   8
ATOM      8  N   UNL     1      10.239  -5.173  25.005  0.00  0.00    -0.316 NA
ATOM      9  H1  UNL     1      10.591  -5.295  24.049  0.00  0.00    +0.119 HD
ATOM     10  H2  UNL     1      10.594  -4.243  25.273  0.00  0.00    +0.119 HD
ENDBRANCH   7   8
BRANCH   7  11
ATOM     11  C   UNL     1       8.205  -4.797  26.339  0.00  0.00    +0.324 C 
ATOM     12  OXT UNL     1       7.820  -3.723  26.774  0.00  0.00    -0.249 OA
BRANCH  11  13
ATOM     13  O   UNL     1       8.200  -5.950  27.058  0.00  0.00    -0.479 OA
ATOM     14  H   UNL     1       8.631  -5.728  27.925  0.00  0.00    +0.295 HD
ENDBRANCH  11  13
ENDBRANCH   7  11
ENDBRANCH   6   7
ENDBRANCH   4   6
ENDBRANCH   1   4
BRANCH   1  15
ATOM     15  C   UNL     1       9.186  -0.672  23.588  0.00  0.00    +0.091 C 
BRANCH  15  16
ATOM     16  CA  UNL     1      10.395   0.265  23.689  0.00  0.00    +0.165 C 
BRANCH  16  17
ATOM     17  N   UNL     1      10.766   0.618  25.085  0.00  0.00    -0.318 NA
ATOM     18  H1  UNL     1       9.930   0.971  25.559  0.00  0.00    +0.119 HD
ATOM     19  H2  UNL     1      11.003  -0.246  25.584  0.00  0.00    +0.119 HD
ENDBRANCH  16  17
BRANCH  16  20
ATOM     20  C   UNL     1      10.097   1.560  22.927  0.00  0.00    +0.322 C 
ATOM     21  OXT UNL     1      10.077   2.677  23.416  0.00  0.00    -0.249 OA
BRANCH  20  22
ATOM     22  O   UNL     1       9.945   1.314  21.599  0.00  0.00    -0.480 OA
ATOM     23  H   UNL     1      10.739   0.783  21.330  0.00  0.00    +0.295 HD
ENDBRANCH  20  22
ENDBRANCH  16  20
ENDBRANCH  15  16
ENDBRANCH   1  15
TORSDOF 12
ENDMDL
MODEL 4
REMARK VINA RESULT:      -5.2      3.284      7.120
REMARK  Name = 
REMARK  13 active torsions:
REMARK  status: ('A' for Active; 'I' for Inactive)
REMARK    1  A    between atoms: C_1  and  C_2
REMARK    2  A    between atoms: C_2  and  O_4
REMARK    3  A    between atoms: C_2  and  C_15
REMARK    4  A    between atoms: O_4  and  C_5
REMARK    5  A    between atoms: C_5  and  O_7
REMARK    6  A    between atoms: C_5  and  C_8
REMARK    7  A    between atoms: C_8  and  C_9
REMARK    8  A    between atoms: C_9  and  N_11
REMARK    9  A    between atoms: C_9  and  C_12
REMARK   10  A    between atoms: C_12  and  O_13
REMARK   11  A    between atoms: C_15  and  N_17
REMARK   12  A    between atoms: C_15  and  C_18
REMARK   13  A    between atoms: C_18  and  O_19
REMARK                            x       y       z     vdW  Elec       q    Type
REMARK                         _______ _______ _______ _____ _____    ______ ____
ROOT
ATOM      1  C   UNL     1       9.985   1.870  22.934  0.00  0.00    +0.249 C 
ENDROOT
BRANCH   1   2
ATOM      2  O   UNL     1       9.860   2.024  21.527  0.00  0.00    -0.367 OA
ATOM      3  H   UNL     1       9.358   2.845  21.383  0.00  0.00    +0.212 HD
ENDBRANCH   1   2
BRANCH   1   4
ATOM      4  OG1 UNL     1      10.794   0.742  23.242  0.00  0.00    -0.346 OA
BRANCH   4   6
ATOM      5  CG2 UNL     1       8.802  -0.026  24.472  0.00  0.00    +0.040 C 
ATOM      6  CB  UNL     1      10.177  -0.382  23.909  0.00  0.00    +0.146 C 
BRANCH   6   7
ATOM      7  CA  UNL     1      10.223  -1.666  23.048  0.00  0.00    +0.189 C 
BRANCH   7   8
ATOM      8  N   UNL     1      10.005  -2.870  23.924  0.00  0.00    -0.316 NA
ATOM      9  H1  UNL     1       9.823  -3.671  23.310  0.00  0.00    +0.119 HD
ATOM     10  H2  UNL     1      10.930  -3.083  24.326  0.00  0.00    +0.119 HD
ENDBRANCH   7   8
BRANCH   7  11
ATOM     11  C   UNL     1       9.148  -1.663  21.957  0.00  0.00    +0.324 C 
ATOM     12  OXT UNL     1       8.110  -2.305  22.005  0.00  0.00    -0.249 OA
BRANCH  11  13
ATOM     13  O   UNL     1       9.486  -0.848  20.924  0.00  0.00    -0.479 OA
ATOM     14  H   UNL     1       9.175  -1.312  20.103  0.00  0.00    +0.295 HD
ENDBRANCH  11  13
ENDBRANCH   7  11
ENDBRANCH   6   7
ENDBRANCH   4   6
ENDBRANCH   1   4
BRANCH   1  15
ATOM     15  C   UNL     1      10.659   3.154  23.442  0.00  0.00    +0.091 C 
BRANCH  15  16
ATOM     16  CA  UNL     1       9.721   4.313  23.798  0.00  0.00    +0.165 C 
BRANCH  16  17
ATOM     17  N   UNL     1       8.531   4.417  22.912  0.00  0.00    -0.318 NA
ATOM     18  H1  UNL     1       8.733   3.911  22.045  0.00  0.00    +0.119 HD
ATOM     19  H2  UNL     1       7.761   3.896  23.344  0.00  0.00    +0.119 HD
ENDBRANCH  16  17
BRANCH  16  20
ATOM     20  C   UNL     1      10.496   5.633  23.722  0.00  0.00    +0.322 C 
ATOM     21  OXT UNL     1      10.240   6.638  24.363  0.00  0.00    -0.249 OA
BRANCH  20  22
ATOM     22  O   UNL     1      11.575   5.511  22.905  0.00  0.00    -0.480 OA
ATOM     23  H   UNL     1      11.751   6.423  22.553  0.00  0.00    +0.295 HD
ENDBRANCH  20  22
ENDBRANCH  16  20
ENDBRANCH  15  16
ENDBRANCH   1  15
TORSDOF 12
ENDMDL
MODEL 5
REMARK VINA RESULT:      -5.2      2.274      2.648
REMARK  Name = 
REMARK  13 active torsions:
REMARK  status: ('A' for Active; 'I' for Inactive)
REMARK    1  A    between atoms: C_1  and  C_2
REMARK    2  A    between atoms: C_2  and  O_4
REMARK    3  A    between atoms: C_2  and  C_15
REMARK    4  A    between atoms: O_4  and  C_5
REMARK    5  A    between atoms: C_5  and  O_7
REMARK    6  A    between atoms: C_5  and  C_8
REMARK    7  A    between atoms: C_8  and  C_9
REMARK    8  A    between atoms: C_9  and  N_11
REMARK    9  A    between atoms: C_9  and  C_12
REMARK   10  A    between atoms: C_12  and  O_13
REMARK   11  A    between atoms: C_15  and  N_17
REMARK   12  A    between atoms: C_15  and  C_18
REMARK   13  A    between atoms: C_18  and  O_19
REMARK                            x       y       z     vdW  Elec       q    Type
REMARK                         _______ _______ _______ _____ _____    ______ ____
ROOT
ATOM      1  C   UNL     1      10.064  -1.173  22.988  0.00  0.00    +0.249 C 
ENDROOT
BRANCH   1   2
ATOM      2  O   UNL     1      10.029  -1.515  21.609  0.00  0.00    -0.367 OA
ATOM      3  H   UNL     1      10.148  -2.479  21.560  0.00  0.00    +0.212 HD
ENDBRANCH   1   2
BRANCH   1   4
ATOM      4  OG1 UNL     1       9.087  -0.182  23.281  0.00  0.00    -0.346 OA
BRANCH   4   6
ATOM      5  CG2 UNL     1      10.971   1.056  24.275  0.00  0.00    +0.040 C 
ATOM      6  CB  UNL     1       9.539   1.109  23.743  0.00  0.00    +0.146 C 
BRANCH   6   7
ATOM      7  CA  UNL     1       9.263   2.228  22.711  0.00  0.00    +0.189 C 
BRANCH   7   8
ATOM      8  N   UNL     1      10.516   2.516  21.929  0.00  0.00    -0.316 NA
ATOM      9  H1  UNL     1      11.068   1.652  21.900  0.00  0.00    +0.119 HD
ATOM     10  H2  UNL     1      10.205   2.633  20.954  0.00  0.00    +0.119 HD
ENDBRANCH   7   8
BRANCH   7  11
ATOM     11  C   UNL     1       8.158   1.838  21.725  0.00  0.00    +0.324 C 
ATOM     12  OXT UNL     1       6.983   2.146  21.843  0.00  0.00    -0.249 OA
BRANCH  11  13
ATOM     13  O   UNL     1       8.648   1.107  20.689  0.00  0.00    -0.479 OA
ATOM     14  H   UNL     1       9.588   0.895  20.931  0.00  0.00    +0.295 HD
ENDBRANCH  11  13
ENDBRANCH   7  11
ENDBRANCH   6   7
ENDBRANCH   4   6
ENDBRANCH   1   4
BRANCH   1  15
ATOM     15  C   UNL     1       9.744  -2.467  23.752  0.00  0.00    +0.091 C 
BRANCH  15  16
ATOM     16  CA  UNL     1       8.556  -3.283  23.230  0.00  0.00    +0.165 C 
BRANCH  16  17
ATOM     17  N   UNL     1       7.314  -2.485  23.045  0.00  0.00    -0.318 NA
ATOM     18  H1  UNL     1       6.981  -2.629  22.087  0.00  0.00    +0.119 HD
ATOM     19  H2  UNL     1       6.581  -2.885  23.639  0.00  0.00    +0.119 HD
ENDBRANCH  16  17
BRANCH  16  20
ATOM     20  C   UNL     1       8.256  -4.423  24.207  0.00  0.00    +0.322 C 
ATOM     21  OXT UNL     1       7.146  -4.739  24.603  0.00  0.00    -0.249 OA
BRANCH  20  22
ATOM     22  O   UNL     1       9.390  -5.107  24.513  0.00  0.00    -0.480 OA
ATOM     23  H   UNL     1       9.089  -5.974  24.891  0.00  0.00    +0.295 HD
ENDBRANCH  20  22
ENDBRANCH  16  20
ENDBRANCH  15  16
ENDBRANCH   1  15
TORSDOF 12
ENDMDL
MODEL 6
REMARK VINA RESULT:      -5.1      1.238      6.340
REMARK  Name = 
REMARK  13 active torsions:
REMARK  status: ('A' for Active; 'I' for Inactive)
REMARK    1  A    between atoms: C_1  and  C_2
REMARK    2  A    between atoms: C_2  and  O_4
REMARK    3  A    between atoms: C_2  and  C_15
REMARK    4  A    between atoms: O_4  and  C_5
REMARK    5  A    between atoms: C_5  and  O_7
REMARK    6  A    between atoms: C_5  and  C_8
REMARK    7  A    between atoms: C_8  and  C_9
REMARK    8  A    between atoms: C_9  and  N_11
REMARK    9  A    between atoms: C_9  and  C_12
REMARK   10  A    between atoms: C_12  and  O_13
REMARK   11  A    between atoms: C_15  and  N_17
REMARK   12  A    between atoms: C_15  and  C_18
REMARK   13  A    between atoms: C_18  and  O_19
REMARK                            x       y       z     vdW  Elec       q    Type
REMARK                         _______ _______ _______ _____ _____    ______ ____
ROOT
ATOM      1  C   UNL     1       9.185  -2.420  22.596  0.00  0.00    +0.249 C 
ENDROOT
BRANCH   1   2
ATOM      2  O   UNL     1      10.570  -2.408  22.915  0.00  0.00    -0.367 OA
ATOM      3  H   UNL     1      10.914  -1.547  22.619  0.00  0.00    +0.212 HD
ENDBRANCH   1   2
BRANCH   1   4
ATOM      4  OG1 UNL     1       8.404  -2.588  23.771  0.00  0.00    -0.346 OA
BRANCH   4   6
ATOM      5  CG2 UNL     1       8.566  -2.567  26.230  0.00  0.00    +0.040 C 
ATOM      6  CB  UNL     1       9.019  -3.211  24.920  0.00  0.00    +0.146 C 
BRANCH   6   7
ATOM      7  CA  UNL     1       8.911  -4.754  24.875  0.00  0.00    +0.189 C 
BRANCH   7   8
ATOM      8  N   UNL     1      10.189  -5.366  25.381  0.00  0.00    -0.316 NA
ATOM      9  H1  UNL     1      10.357  -6.222  24.843  0.00  0.00    +0.119 HD
ATOM     10  H2  UNL     1      10.937  -4.733  25.061  0.00  0.00    +0.119 HD
ENDBRANCH   7   8
BRANCH   7  11
ATOM     11  C   UNL     1       7.754  -5.272  25.735  0.00  0.00    +0.324 C 
ATOM     12  OXT UNL     1       6.574  -5.167  25.444  0.00  0.00    -0.249 OA
BRANCH  11  13
ATOM     13  O   UNL     1       8.204  -5.875  26.866  0.00  0.00    -0.479 OA
ATOM     14  H   UNL     1       8.799  -6.610  26.560  0.00  0.00    +0.295 HD
ENDBRANCH  11  13
ENDBRANCH   7  11
ENDBRANCH   6   7
ENDBRANCH   4   6
ENDBRANCH   1   4
BRANCH   1  15
ATOM     15  C   UNL     1       8.887  -1.055  21.957  0.00  0.00    +0.091 C 
BRANCH  15  16
ATOM     16  CA  UNL     1       9.789   0.105  22.391  0.00  0.00    +0.165 C 
BRANCH  16  17
ATOM     17  N   UNL     1       9.828   0.317  23.862  0.00  0.00    -0.318 NA
ATOM     18  H1  UNL     1      10.502   1.063  24.060  0.00  0.00    +0.119 HD
ATOM     19  H2  UNL     1       8.924   0.699  24.158  0.00  0.00    +0.119 HD
ENDBRANCH  16  17
BRANCH  16  20
ATOM     20  C   UNL     1       9.305   1.399  21.729  0.00  0.00    +0.322 C 
ATOM     21  OXT UNL     1       8.157   1.628  21.387  0.00  0.00    -0.249 OA
BRANCH  20  22
ATOM     22  O   UNL     1      10.313   2.307  21.651  0.00  0.00    -0.480 OA
ATOM     23  H   UNL     1      10.891   2.006  20.902  0.00  0.00    +0.295 HD
ENDBRANCH  20  22
ENDBRANCH  16  20
ENDBRANCH  15  16
ENDBRANCH   1  15
TORSDOF 12
ENDMDL
MODEL 7
REMARK VINA RESULT:      -4.9      1.971      6.186
REMARK  Name = 
REMARK  13 active torsions:
REMARK  status: ('A' for Active; 'I' for Inactive)
REMARK    1  A    between atoms: C_1  and  C_2
REMARK    2  A    between atoms: C_2  and  O_4
REMARK    3  A    between atoms: C_2  and  C_15
REMARK    4  A    between atoms: O_4  and  C_5
REMARK    5  A    between atoms: C_5  and  O_7
REMARK    6  A    between atoms: C_5  and  C_8
REMARK    7  A    between atoms: C_8  and  C_9
REMARK    8  A    between atoms: C_9  and  N_11
REMARK    9  A    between atoms: C_9  and  C_12
REMARK   10  A    between atoms: C_12  and  O_13
REMARK   11  A    between atoms: C_15  and  N_17
REMARK   12  A    between atoms: C_15  and  C_18
REMARK   13  A    between atoms: C_18  and  O_19
REMARK                            x       y       z     vdW  Elec       q    Type
REMARK                         _______ _______ _______ _____ _____    ______ ____
ROOT
ATOM      1  C   UNL     1       8.899  -1.748  23.869  0.00  0.00    +0.249 C 
ENDROOT
BRANCH   1   2
ATOM      2  O   UNL     1      10.190  -2.223  23.513  0.00  0.00    -0.367 OA
ATOM      3  H   UNL     1      10.120  -2.557  22.603  0.00  0.00    +0.212 HD
ENDBRANCH   1   2
BRANCH   1   4
ATOM      4  OG1 UNL     1       8.491  -2.300  25.114  0.00  0.00    -0.346 OA
BRANCH   4   6
ATOM      5  CG2 UNL     1       6.341  -2.903  24.073  0.00  0.00    +0.040 C 
ATOM      6  CB  UNL     1       7.400  -3.247  25.119  0.00  0.00    +0.146 C 
BRANCH   6   7
ATOM      7  CA  UNL     1       7.899  -4.712  25.091  0.00  0.00    +0.189 C 
BRANCH   7   8
ATOM      8  N   UNL     1       7.898  -5.220  23.675  0.00  0.00    -0.316 NA
ATOM      9  H1  UNL     1       7.391  -4.537  23.101  0.00  0.00    +0.119 HD
ATOM     10  H2  UNL     1       8.872  -5.126  23.353  0.00  0.00    +0.119 HD
ENDBRANCH   7   8
BRANCH   7  11
ATOM     11  C   UNL     1       9.319  -4.844  25.650  0.00  0.00    +0.324 C 
ATOM     12  OXT UNL     1      10.320  -4.993  24.967  0.00  0.00    -0.249 OA
BRANCH  11  13
ATOM     13  O   UNL     1       9.332  -4.765  27.006  0.00  0.00    -0.479 OA
ATOM     14  H   UNL     1      10.271  -4.555  27.253  0.00  0.00    +0.295 HD
ENDBRANCH  11  13
ENDBRANCH   7  11
ENDBRANCH   6   7
ENDBRANCH   4   6
ENDBRANCH   1   4
BRANCH   1  15
ATOM     15  C   UNL     1       9.028  -0.222  23.989  0.00  0.00    +0.091 C 
BRANCH  15  16
ATOM     16  CA  UNL     1      10.248   0.408  23.307  0.00  0.00    +0.165 C 
BRANCH  16  17
ATOM     17  N   UNL     1      10.835   1.548  24.060  0.00  0.00    -0.318 NA
ATOM     18  H1  UNL     1      11.800   1.678  23.741  0.00  0.00    +0.119 HD
ATOM     19  H2  UNL     1      10.350   2.406  23.777  0.00  0.00    +0.119 HD
ENDBRANCH  16  17
BRANCH  16  20
ATOM     20  C   UNL     1       9.849   0.903  21.913  0.00  0.00    +0.322 C 
ATOM     21  OXT UNL     1       9.206   0.266  21.097  0.00  0.00    -0.249 OA
BRANCH  20  22
ATOM     22  O   UNL     1      10.230   2.195  21.734  0.00  0.00    -0.480 OA
ATOM     23  H   UNL     1      10.040   2.403  20.782  0.00  0.00    +0.295 HD
ENDBRANCH  20  22
ENDBRANCH  16  20
ENDBRANCH  15  16
ENDBRANCH   1  15
TORSDOF 12
ENDMDL
MODEL 8
REMARK VINA RESULT:      -4.8      2.179      2.408
REMARK  Name = 
REMARK  13 active torsions:
REMARK  status: ('A' for Active; 'I' for Inactive)
REMARK    1  A    between atoms: C_1  and  C_2
REMARK    2  A    between atoms: C_2  and  O_4
REMARK    3  A    between atoms: C_2  and  C_15
REMARK    4  A    between atoms: O_4  and  C_5
REMARK    5  A    between atoms: C_5  and  O_7
REMARK    6  A    between atoms: C_5  and  C_8
REMARK    7  A    between atoms: C_8  and  C_9
REMARK    8  A    between atoms: C_9  and  N_11
REMARK    9  A    between atoms: C_9  and  C_12
REMARK   10  A    between atoms: C_12  and  O_13
REMARK   11  A    between atoms: C_15  and  N_17
REMARK   12  A    between atoms: C_15  and  C_18
REMARK   13  A    between atoms: C_18  and  O_19
REMARK                            x       y       z     vdW  Elec       q    Type
REMARK                         _______ _______ _______ _____ _____    ______ ____
ROOT
ATOM      1  C   UNL     1       8.501  -1.203  25.986  0.00  0.00    +0.249 C 
ENDROOT
BRANCH   1   2
ATOM      2  O   UNL     1       9.130  -0.680  27.147  0.00  0.00    -0.367 OA
ATOM      3  H   UNL     1       9.095   0.289  27.067  0.00  0.00    +0.212 HD
ENDBRANCH   1   2
BRANCH   1   4
ATOM      4  OG1 UNL     1       9.269  -0.909  24.826  0.00  0.00    -0.346 OA
BRANCH   4   6
ATOM      5  CG2 UNL     1      11.058   0.753  24.500  0.00  0.00    +0.040 C 
ATOM      6  CB  UNL     1       9.556   0.475  24.527  0.00  0.00    +0.146 C 
BRANCH   6   7
ATOM      7  CA  UNL     1       8.772   0.979  23.292  0.00  0.00    +0.189 C 
BRANCH   7   8
ATOM      8  N   UNL     1       8.424   2.432  23.473  0.00  0.00    -0.316 NA
ATOM      9  H1  UNL     1       7.643   2.644  22.844  0.00  0.00    +0.119 HD
ATOM     10  H2  UNL     1       7.999   2.493  24.410  0.00  0.00    +0.119 HD
ENDBRANCH   7   8
BRANCH   7  11
ATOM     11  C   UNL     1       9.583   0.835  22.001  0.00  0.00    +0.324 C 
ATOM     12  OXT UNL     1       9.829  -0.227  21.453  0.00  0.00    -0.249 OA
BRANCH  11  13
ATOM     13  O   UNL     1       9.992   2.042  21.530  0.00  0.00    -0.479 OA
ATOM     14  H   UNL     1      10.107   1.924  20.551  0.00  0.00    +0.295 HD
ENDBRANCH  11  13
ENDBRANCH   7  11
ENDBRANCH   6   7
ENDBRANCH   4   6
ENDBRANCH   1   4
BRANCH   1  15
ATOM     15  C   UNL     1       8.426  -2.724  26.194  0.00  0.00    +0.091 C 
BRANCH  15  16
ATOM     16  CA  UNL     1       9.089  -3.586  25.114  0.00  0.00    +0.165 C 
BRANCH  16  17
ATOM     17  N   UNL     1       8.365  -3.583  23.815  0.00  0.00    -0.318 NA
ATOM     18  H1  UNL     1       7.497  -3.053  23.934  0.00  0.00    +0.119 HD
ATOM     19  H2  UNL     1       8.913  -3.036  23.142  0.00  0.00    +0.119 HD
ENDBRANCH  16  17
BRANCH  16  20
ATOM     20  C   UNL     1       9.184  -5.033  25.610  0.00  0.00    +0.322 C 
ATOM     21  OXT UNL     1       8.264  -5.678  26.082  0.00  0.00    -0.249 OA
BRANCH  20  22
ATOM     22  O   UNL     1      10.420  -5.544  25.369  0.00  0.00    -0.480 OA
ATOM     23  H   UNL     1      10.925  -4.824  24.907  0.00  0.00    +0.295 HD
ENDBRANCH  20  22
ENDBRANCH  16  20
ENDBRANCH  15  16
ENDBRANCH   1  15
TORSDOF 12
ENDMDL
MODEL 9
REMARK VINA RESULT:      -4.8      2.406      2.939
REMARK  Name = 
REMARK  13 active torsions:
REMARK  status: ('A' for Active; 'I' for Inactive)
REMARK    1  A    between atoms: C_1  and  C_2
REMARK    2  A    between atoms: C_2  and  O_4
REMARK    3  A    between atoms: C_2  and  C_15
REMARK    4  A    between atoms: O_4  and  C_5
REMARK    5  A    between atoms: C_5  and  O_7
REMARK    6  A    between atoms: C_5  and  C_8
REMARK    7  A    between atoms: C_8  and  C_9
REMARK    8  A    between atoms: C_9  and  N_11
REMARK    9  A    between atoms: C_9  and  C_12
REMARK   10  A    between atoms: C_12  and  O_13
REMARK   11  A    between atoms: C_15  and  N_17
REMARK   12  A    between atoms: C_15  and  C_18
REMARK   13  A    between atoms: C_18  and  O_19
REMARK                            x       y       z     vdW  Elec       q    Type
REMARK                         _______ _______ _______ _____ _____    ______ ____
ROOT
ATOM      1  C   UNL     1       9.894  -1.341  22.905  0.00  0.00    +0.249 C 
ENDROOT
BRANCH   1   2
ATOM      2  O   UNL     1      10.185  -1.755  21.577  0.00  0.00    -0.367 OA
ATOM      3  H   UNL     1       9.933  -1.017  20.996  0.00  0.00    +0.212 HD
ENDBRANCH   1   2
BRANCH   1   4
ATOM      4  OG1 UNL     1       8.566  -0.840  22.991  0.00  0.00    -0.346 OA
BRANCH   4   6
ATOM      5  CG2 UNL     1       6.923   0.995  22.957  0.00  0.00    +0.040 C 
ATOM      6  CB  UNL     1       8.314   0.513  22.550  0.00  0.00    +0.146 C 
BRANCH   6   7
ATOM      7  CA  UNL     1       9.474   1.470  22.913  0.00  0.00    +0.189 C 
BRANCH   7   8
ATOM      8  N   UNL     1       9.514   2.610  21.933  0.00  0.00    -0.316 NA
ATOM      9  H1  UNL     1       9.096   2.281  21.056  0.00  0.00    +0.119 HD
ATOM     10  H2  UNL     1       8.827   3.293  22.284  0.00  0.00    +0.119 HD
ENDBRANCH   7   8
BRANCH   7  11
ATOM     11  C   UNL     1       9.318   2.051  24.322  0.00  0.00    +0.324 C 
ATOM     12  OXT UNL     1       9.081   3.223  24.565  0.00  0.00    -0.249 OA
BRANCH  11  13
ATOM     13  O   UNL     1       9.468   1.095  25.276  0.00  0.00    -0.479 OA
ATOM     14  H   UNL     1       8.776   1.289  25.961  0.00  0.00    +0.295 HD
ENDBRANCH  11  13
ENDBRANCH   7  11
ENDBRANCH   6   7
ENDBRANCH   4   6
ENDBRANCH   1   4
BRANCH   1  15
ATOM     15  C   UNL     1      10.039  -2.596  23.780  0.00  0.00    +0.091 C 
BRANCH  15  16
ATOM     16  CA  UNL     1       8.872  -2.897  24.727  0.00  0.00    +0.165 C 
BRANCH  16  17
ATOM     17  N   UNL     1       8.670  -1.866  25.778  0.00  0.00    -0.318 NA
ATOM     18  H1  UNL     1       8.605  -2.341  26.684  0.00  0.00    +0.119 HD
ATOM     19  H2  UNL     1       9.521  -1.298  25.842  0.00  0.00    +0.119 HD
ENDBRANCH  16  17
BRANCH  16  20
ATOM     20  C   UNL     1       9.111  -4.246  25.412  0.00  0.00    +0.322 C 
ATOM     21  OXT UNL     1       9.090  -4.438  26.616  0.00  0.00    -0.249 OA
BRANCH  20  22
ATOM     22  O   UNL     1       9.264  -5.234  24.492  0.00  0.00    -0.480 OA
ATOM     23  H   UNL     1       8.622  -5.946  24.751  0.00  0.00    +0.295 HD
ENDBRANCH  20  22
ENDBRANCH  16  20
ENDBRANCH  15  16
ENDBRANCH   1  15
TORSDOF 12
ENDMDL
