MODEL 1
REMARK VINA RESULT:      -6.9      0.000      0.000
REMARK  Name = 
REMARK  6 active torsions:
REMARK  status: ('A' for Active; 'I' for Inactive)
REMARK    1  A    between atoms: C_2  and  O_3
REMARK    2  A    between atoms: C_14  and  O_15
REMARK    3  A    between atoms: C_21  and  C_23
REMARK    4  A    between atoms: C_23  and  O_24
REMARK    5  A    between atoms: O_24  and  C_25
REMARK    6  A    between atoms: C_27  and  C_28
REMARK                            x       y       z     vdW  Elec       q    Type
REMARK                         _______ _______ _______ _____ _____    ______ ____
ROOT
ATOM      1  C   UNL     1       6.582  -5.137  24.309  0.00  0.00    +0.121 C 
ATOM      2  C   UNL     1       7.030  -3.622  24.460  0.00  0.00    -0.003 C 
ATOM      3  C   UNL     1       5.778  -2.732  24.635  0.00  0.00    +0.014 C 
ATOM      4  C   UNL     1       7.874  -3.439  23.174  0.00  0.00    +0.001 C 
ATOM      5  C   UNL     1       8.283  -2.005  22.898  0.00  0.00    +0.001 C 
ATOM      6  C   UNL     1       9.268  -1.524  24.016  0.00  0.00    +0.028 C 
ATOM      7  C   UNL     1       8.696  -1.825  25.460  0.00  0.00    +0.023 C 
ATOM      8  C   UNL     1       9.769  -0.101  23.688  0.00  0.00    -0.040 A 
ATOM      9  C   UNL     1       9.665   0.411  22.370  0.00  0.00    -0.040 A 
ATOM     10  C   UNL     1      10.016   1.745  22.082  0.00  0.00    +0.049 A 
ATOM     11  C   UNL     1      10.517   2.562  23.088  0.00  0.00    +0.117 A 
ATOM     12  C   UNL     1      10.725   2.046  24.361  0.00  0.00    +0.046 A 
ATOM     13  C   UNL     1       9.164  -0.413  21.212  0.00  0.00    +0.036 C 
ATOM     14  C   UNL     1      10.380   0.717  24.651  0.00  0.00    +0.008 A 
ATOM     15  C   UNL     1       9.000  -1.881  21.552  0.00  0.00    +0.009 C 
ATOM     16  C   UNL     1       7.143  -4.253  22.127  0.00  0.00    +0.007 C 
ATOM     17  C   UNL     1       8.044  -3.270  25.588  0.00  0.00    +0.015 C 
ATOM     18  C   UNL     1       7.009  -5.570  22.888  0.00  0.00    +0.032 C 
ENDROOT
BRANCH  11  19
ATOM     19  O   UNL     1      10.832   3.865  22.842  0.00  0.00    -0.507 OA
ATOM     20  H   UNL     1      11.594   4.104  23.402  0.00  0.00    +0.292 HD
ENDBRANCH  11  19
BRANCH   1  21
ATOM     21  O   UNL     1       5.165  -5.336  24.406  0.00  0.00    -0.391 OA
ATOM     22  H   UNL     1       4.949  -6.281  24.298  0.00  0.00    +0.210 HD
ENDBRANCH   1  21
BRANCH   7  23
ATOM     23  C   UNL     1       7.807  -0.674  25.973  0.00  0.00    +0.163 C 
BRANCH  23  24
ATOM     24  O   UNL     1       8.154  -0.276  27.297  0.00  0.00    -0.383 OA
ATOM     25  C   UNL     1       7.190   0.643  27.804  0.00  0.00    +0.193 C 
ENDBRANCH  23  24
ENDBRANCH   7  23
TORSDOF 4
ENDMDL
MODEL 2
REMARK VINA RESULT:      -6.7      1.982      6.583
REMARK  Name = 
REMARK  6 active torsions:
REMARK  status: ('A' for Active; 'I' for Inactive)
REMARK    1  A    between atoms: C_2  and  O_3
REMARK    2  A    between atoms: C_14  and  O_15
REMARK    3  A    between atoms: C_21  and  C_23
REMARK    4  A    between atoms: C_23  and  O_24
REMARK    5  A    between atoms: O_24  and  C_25
REMARK    6  A    between atoms: C_27  and  C_28
REMARK                            x       y       z     vdW  Elec       q    Type
REMARK                         _______ _______ _______ _____ _____    ______ ____
ROOT
ATOM      1  C   UNL     1       9.921   1.659  22.143  0.00  0.00    +0.121 C 
ATOM      2  C   UNL     1       9.118   0.353  22.551  0.00  0.00    -0.003 C 
ATOM      3  C   UNL     1       7.619   0.548  22.225  0.00  0.00    +0.014 C 
ATOM      4  C   UNL     1       9.522   0.216  24.040  0.00  0.00    +0.001 C 
ATOM      5  C   UNL     1       8.741  -0.836  24.803  0.00  0.00    +0.001 C 
ATOM      6  C   UNL     1       9.087  -2.252  24.233  0.00  0.00    +0.028 C 
ATOM      7  C   UNL     1       8.958  -2.287  22.656  0.00  0.00    +0.023 C 
ATOM      8  C   UNL     1       8.374  -3.335  25.069  0.00  0.00    -0.040 A 
ATOM      9  C   UNL     1       7.892  -3.039  26.369  0.00  0.00    -0.040 A 
ATOM     10  C   UNL     1       7.145  -3.985  27.098  0.00  0.00    +0.049 A 
ATOM     11  C   UNL     1       6.914  -5.246  26.561  0.00  0.00    +0.117 A 
ATOM     12  C   UNL     1       7.468  -5.590  25.335  0.00  0.00    +0.046 A 
ATOM     13  C   UNL     1       8.125  -1.710  27.042  0.00  0.00    +0.036 C 
ATOM     14  C   UNL     1       8.215  -4.652  24.608  0.00  0.00    +0.008 A 
ATOM     15  C   UNL     1       9.101  -0.825  26.291  0.00  0.00    +0.009 C 
ATOM     16  C   UNL     1       9.595   1.645  24.541  0.00  0.00    +0.007 C 
ATOM     17  C   UNL     1       9.579  -1.006  21.946  0.00  0.00    +0.015 C 
ATOM     18  C   UNL     1      10.490   2.240  23.457  0.00  0.00    +0.032 C 
ENDROOT
BRANCH  11  19
ATOM     19  O   UNL     1       6.165  -6.167  27.232  0.00  0.00    -0.507 OA
ATOM     20  H   UNL     1       6.432  -7.054  26.929  0.00  0.00    +0.292 HD
ENDBRANCH  11  19
BRANCH   1  21
ATOM     21  O   UNL     1       9.107   2.678  21.545  0.00  0.00    -0.391 OA
ATOM     22  H   UNL     1       9.609   3.147  20.853  0.00  0.00    +0.210 HD
ENDBRANCH   1  21
BRANCH   7  23
ATOM     23  C   UNL     1       7.524  -2.635  22.209  0.00  0.00    +0.163 C 
BRANCH  23  24
ATOM     24  O   UNL     1       7.433  -3.955  21.676  0.00  0.00    -0.383 OA
ATOM     25  C   UNL     1       6.071  -4.371  21.623  0.00  0.00    +0.193 C 
ENDBRANCH  23  24
ENDBRANCH   7  23
TORSDOF 4
ENDMDL
MODEL 3
REMARK VINA RESULT:      -6.7      1.996      7.132
REMARK  Name = 
REMARK  6 active torsions:
REMARK  status: ('A' for Active; 'I' for Inactive)
REMARK    1  A    between atoms: C_2  and  O_3
REMARK    2  A    between atoms: C_14  and  O_15
REMARK    3  A    between atoms: C_21  and  C_23
REMARK    4  A    between atoms: C_23  and  O_24
REMARK    5  A    between atoms: O_24  and  C_25
REMARK    6  A    between atoms: C_27  and  C_28
REMARK                            x       y       z     vdW  Elec       q    Type
REMARK                         _______ _______ _______ _____ _____    ______ ____
ROOT
ATOM      1  C   UNL     1       9.539  -0.054  23.146  0.00  0.00    +0.121 C 
ATOM      2  C   UNL     1       8.360  -1.111  23.258  0.00  0.00    -0.003 C 
ATOM      3  C   UNL     1       7.002  -0.376  23.167  0.00  0.00    +0.014 C 
ATOM      4  C   UNL     1       8.718  -1.806  24.594  0.00  0.00    +0.001 C 
ATOM      5  C   UNL     1       7.647  -2.747  25.113  0.00  0.00    +0.001 C 
ATOM      6  C   UNL     1       7.505  -3.959  24.133  0.00  0.00    +0.028 C 
ATOM      7  C   UNL     1       7.349  -3.476  22.634  0.00  0.00    +0.023 C 
ATOM      8  C   UNL     1       6.490  -4.971  24.706  0.00  0.00    -0.040 A 
ATOM      9  C   UNL     1       6.149  -4.947  26.082  0.00  0.00    -0.040 A 
ATOM     10  C   UNL     1       5.144  -5.792  26.594  0.00  0.00    +0.049 A 
ATOM     11  C   UNL     1       4.507  -6.697  25.754  0.00  0.00    +0.117 A 
ATOM     12  C   UNL     1       4.901  -6.808  24.427  0.00  0.00    +0.046 A 
ATOM     13  C   UNL     1       6.811  -4.022  27.070  0.00  0.00    +0.036 C 
ATOM     14  C   UNL     1       5.903  -5.972  23.914  0.00  0.00    +0.008 A 
ATOM     15  C   UNL     1       8.012  -3.295  26.494  0.00  0.00    +0.009 C 
ATOM     16  C   UNL     1       9.260  -0.690  25.464  0.00  0.00    +0.007 C 
ATOM     17  C   UNL     1       8.344  -2.297  22.248  0.00  0.00    +0.015 C 
ATOM     18  C   UNL     1      10.284  -0.101  24.498  0.00  0.00    +0.032 C 
ENDROOT
BRANCH  11  19
ATOM     19  O   UNL     1       3.508  -7.501  26.219  0.00  0.00    -0.507 OA
ATOM     20  H   UNL     1       2.755  -7.434  25.603  0.00  0.00    +0.292 HD
ENDBRANCH  11  19
BRANCH   1  21
ATOM     21  O   UNL     1       9.094   1.295  22.951  0.00  0.00    -0.391 OA
ATOM     22  H   UNL     1       8.932   1.464  22.005  0.00  0.00    +0.210 HD
ENDBRANCH   1  21
BRANCH   7  23
ATOM     23  C   UNL     1       5.874  -3.216  22.269  0.00  0.00    +0.163 C 
BRANCH  23  24
ATOM     24  O   UNL     1       5.537  -3.740  20.987  0.00  0.00    -0.383 OA
ATOM     25  C   UNL     1       6.169  -5.001  20.788  0.00  0.00    +0.193 C 
ENDBRANCH  23  24
ENDBRANCH   7  23
TORSDOF 4
ENDMDL
MODEL 4
REMARK VINA RESULT:      -6.5      2.044      5.935
REMARK  Name = 
REMARK  6 active torsions:
REMARK  status: ('A' for Active; 'I' for Inactive)
REMARK    1  A    between atoms: C_2  and  O_3
REMARK    2  A    between atoms: C_14  and  O_15
REMARK    3  A    between atoms: C_21  and  C_23
REMARK    4  A    between atoms: C_23  and  O_24
REMARK    5  A    between atoms: O_24  and  C_25
REMARK    6  A    between atoms: C_27  and  C_28
REMARK                            x       y       z     vdW  Elec       q    Type
REMARK                         _______ _______ _______ _____ _____    ______ ____
ROOT
ATOM      1  C   UNL     1       8.386   2.347  22.453  0.00  0.00    +0.121 C 
ATOM      2  C   UNL     1       8.074   1.310  23.612  0.00  0.00    -0.003 C 
ATOM      3  C   UNL     1       8.694   1.816  24.936  0.00  0.00    +0.014 C 
ATOM      4  C   UNL     1       8.644   0.007  22.999  0.00  0.00    +0.001 C 
ATOM      5  C   UNL     1       8.698  -1.163  23.962  0.00  0.00    +0.001 C 
ATOM      6  C   UNL     1       7.241  -1.585  24.347  0.00  0.00    +0.028 C 
ATOM      7  C   UNL     1       6.379  -0.338  24.803  0.00  0.00    +0.023 C 
ATOM      8  C   UNL     1       7.286  -2.838  25.246  0.00  0.00    -0.040 A 
ATOM      9  C   UNL     1       8.444  -3.655  25.284  0.00  0.00    -0.040 A 
ATOM     10  C   UNL     1       8.537  -4.737  26.182  0.00  0.00    +0.049 A 
ATOM     11  C   UNL     1       7.465  -5.044  27.011  0.00  0.00    +0.117 A 
ATOM     12  C   UNL     1       6.283  -4.321  26.912  0.00  0.00    +0.046 A 
ATOM     13  C   UNL     1       9.640  -3.416  24.399  0.00  0.00    +0.036 C 
ATOM     14  C   UNL     1       6.184  -3.245  26.017  0.00  0.00    +0.008 A 
ATOM     15  C   UNL     1       9.389  -2.373  23.328  0.00  0.00    +0.009 C 
ATOM     16  C   UNL     1       9.882   0.456  22.250  0.00  0.00    +0.007 C 
ATOM     17  C   UNL     1       6.585   0.939  23.879  0.00  0.00    +0.015 C 
ATOM     18  C   UNL     1       9.278   1.599  21.438  0.00  0.00    +0.032 C 
ENDROOT
BRANCH  11  19
ATOM     19  O   UNL     1       7.544  -6.065  27.911  0.00  0.00    -0.507 OA
ATOM     20  H   UNL     1       8.162  -6.732  27.559  0.00  0.00    +0.292 HD
ENDBRANCH  11  19
BRANCH   1  21
ATOM     21  O   UNL     1       9.114   3.504  22.889  0.00  0.00    -0.391 OA
ATOM     22  H   UNL     1      10.045   3.441  22.608  0.00  0.00    +0.210 HD
ENDBRANCH   1  21
BRANCH   7  23
ATOM     23  C   UNL     1       6.527  -0.067  26.314  0.00  0.00    +0.163 C 
BRANCH  23  24
ATOM     24  O   UNL     1       5.707   1.015  26.748  0.00  0.00    -0.383 OA
ATOM     25  C   UNL     1       6.303   1.668  27.866  0.00  0.00    +0.193 C 
ENDBRANCH  23  24
ENDBRANCH   7  23
TORSDOF 4
ENDMDL
MODEL 5
REMARK VINA RESULT:      -6.4      2.107      3.933
REMARK  Name = 
REMARK  6 active torsions:
REMARK  status: ('A' for Active; 'I' for Inactive)
REMARK    1  A    between atoms: C_2  and  O_3
REMARK    2  A    between atoms: C_14  and  O_15
REMARK    3  A    between atoms: C_21  and  C_23
REMARK    4  A    between atoms: C_23  and  O_24
REMARK    5  A    between atoms: O_24  and  C_25
REMARK    6  A    between atoms: C_27  and  C_28
REMARK                            x       y       z     vdW  Elec       q    Type
REMARK                         _______ _______ _______ _____ _____    ______ ____
ROOT
ATOM      1  C   UNL     1       5.324  -5.226  26.303  0.00  0.00    +0.121 C 
ATOM      2  C   UNL     1       5.975  -4.285  25.204  0.00  0.00    -0.003 C 
ATOM      3  C   UNL     1       6.856  -5.135  24.258  0.00  0.00    +0.014 C 
ATOM      4  C   UNL     1       6.680  -3.236  26.099  0.00  0.00    +0.001 C 
ATOM      5  C   UNL     1       7.597  -2.291  25.346  0.00  0.00    +0.001 C 
ATOM      6  C   UNL     1       6.742  -1.394  24.390  0.00  0.00    +0.028 C 
ATOM      7  C   UNL     1       5.754  -2.263  23.511  0.00  0.00    +0.023 C 
ATOM      8  C   UNL     1       7.655  -0.361  23.696  0.00  0.00    -0.040 A 
ATOM      9  C   UNL     1       8.932  -0.055  24.232  0.00  0.00    -0.040 A 
ATOM     10  C   UNL     1       9.817   0.802  23.549  0.00  0.00    +0.049 A 
ATOM     11  C   UNL     1       9.423   1.397  22.356  0.00  0.00    +0.117 A 
ATOM     12  C   UNL     1       8.138   1.193  21.871  0.00  0.00    +0.046 A 
ATOM     13  C   UNL     1       9.428  -0.628  25.534  0.00  0.00    +0.036 C 
ATOM     14  C   UNL     1       7.252   0.343  22.550  0.00  0.00    +0.008 A 
ATOM     15  C   UNL     1       8.355  -1.371  26.306  0.00  0.00    +0.009 C 
ATOM     16  C   UNL     1       7.189  -4.034  27.282  0.00  0.00    +0.007 C 
ATOM     17  C   UNL     1       5.024  -3.410  24.335  0.00  0.00    +0.015 C 
ATOM     18  C   UNL     1       5.902  -4.763  27.660  0.00  0.00    +0.032 C 
ENDROOT
BRANCH  11  19
ATOM     19  O   UNL     1      10.274   2.203  21.660  0.00  0.00    -0.507 OA
ATOM     20  H   UNL     1       9.765   2.645  20.955  0.00  0.00    +0.292 HD
ENDBRANCH  11  19
BRANCH   1  21
ATOM     21  O   UNL     1       5.655  -6.613  26.151  0.00  0.00    -0.391 OA
ATOM     22  H   UNL     1       5.501  -6.898  25.232  0.00  0.00    +0.210 HD
ENDBRANCH   1  21
BRANCH   7  23
ATOM     23  C   UNL     1       6.422  -2.739  22.205  0.00  0.00    +0.163 C 
BRANCH  23  24
ATOM     24  O   UNL     1       5.529  -3.490  21.387  0.00  0.00    -0.383 OA
ATOM     25  C   UNL     1       6.151  -4.698  20.958  0.00  0.00    +0.193 C 
ENDBRANCH  23  24
ENDBRANCH   7  23
TORSDOF 4
ENDMDL
MODEL 6
REMARK VINA RESULT:      -6.4      2.039      6.856
REMARK  Name = 
REMARK  6 active torsions:
REMARK  status: ('A' for Active; 'I' for Inactive)
REMARK    1  A    between atoms: C_2  and  O_3
REMARK    2  A    between atoms: C_14  and  O_15
REMARK    3  A    between atoms: C_21  and  C_23
REMARK    4  A    between atoms: C_23  and  O_24
REMARK    5  A    between atoms: O_24  and  C_25
REMARK    6  A    between atoms: C_27  and  C_28
REMARK                            x       y       z     vdW  Elec       q    Type
REMARK                         _______ _______ _______ _____ _____    ______ ____
ROOT
ATOM      1  C   UNL     1      10.418  -0.014  23.308  0.00  0.00    +0.121 C 
ATOM      2  C   UNL     1       9.360  -1.161  23.593  0.00  0.00    -0.003 C 
ATOM      3  C   UNL     1       8.316  -1.191  22.452  0.00  0.00    +0.014 C 
ATOM      4  C   UNL     1       8.872  -0.764  25.008  0.00  0.00    +0.001 C 
ATOM      5  C   UNL     1       7.674  -1.553  25.498  0.00  0.00    +0.001 C 
ATOM      6  C   UNL     1       8.085  -3.050  25.694  0.00  0.00    +0.028 C 
ATOM      7  C   UNL     1       8.827  -3.619  24.417  0.00  0.00    +0.023 C 
ATOM      8  C   UNL     1       6.899  -3.839  26.289  0.00  0.00    -0.040 A 
ATOM      9  C   UNL     1       5.835  -3.160  26.933  0.00  0.00    -0.040 A 
ATOM     10  C   UNL     1       4.696  -3.859  27.382  0.00  0.00    +0.049 A 
ATOM     11  C   UNL     1       4.630  -5.239  27.237  0.00  0.00    +0.117 A 
ATOM     12  C   UNL     1       5.708  -5.934  26.705  0.00  0.00    +0.046 A 
ATOM     13  C   UNL     1       5.838  -1.671  27.162  0.00  0.00    +0.036 C 
ATOM     14  C   UNL     1       6.845  -5.242  26.260  0.00  0.00    +0.008 A 
ATOM     15  C   UNL     1       7.170  -1.021  26.841  0.00  0.00    +0.009 C 
ATOM     16  C   UNL     1       8.849   0.751  24.984  0.00  0.00    +0.007 C 
ATOM     17  C   UNL     1       9.893  -2.609  23.808  0.00  0.00    +0.015 C 
ATOM     18  C   UNL     1      10.256   1.011  24.454  0.00  0.00    +0.032 C 
ENDROOT
BRANCH  11  19
ATOM     19  O   UNL     1       3.524  -5.933  27.632  0.00  0.00    -0.507 OA
ATOM     20  H   UNL     1       2.992  -5.353  28.208  0.00  0.00    +0.292 HD
ENDBRANCH  11  19
BRANCH   1  21
ATOM     21  O   UNL     1      10.198   0.687  22.076  0.00  0.00    -0.391 OA
ATOM     22  H   UNL     1       9.916   1.603  22.255  0.00  0.00    +0.210 HD
ENDBRANCH   1  21
BRANCH   7  23
ATOM     23  C   UNL     1       7.831  -4.196  23.390  0.00  0.00    +0.163 C 
BRANCH  23  24
ATOM     24  O   UNL     1       8.102  -5.562  23.088  0.00  0.00    -0.383 OA
ATOM     25  C   UNL     1       7.214  -6.029  22.075  0.00  0.00    +0.193 C 
ENDBRANCH  23  24
ENDBRANCH   7  23
TORSDOF 4
ENDMDL
MODEL 7
REMARK VINA RESULT:      -6.4      2.342      3.126
REMARK  Name = 
REMARK  6 active torsions:
REMARK  status: ('A' for Active; 'I' for Inactive)
REMARK    1  A    between atoms: C_2  and  O_3
REMARK    2  A    between atoms: C_14  and  O_15
REMARK    3  A    between atoms: C_21  and  C_23
REMARK    4  A    between atoms: C_23  and  O_24
REMARK    5  A    between atoms: O_24  and  C_25
REMARK    6  A    between atoms: C_27  and  C_28
REMARK                            x       y       z     vdW  Elec       q    Type
REMARK                         _______ _______ _______ _____ _____    ______ ____
ROOT
ATOM      1  C   UNL     1       7.627  -3.622  24.714  0.00  0.00    +0.121 C 
ATOM      2  C   UNL     1       7.489  -2.067  24.428  0.00  0.00    -0.003 C 
ATOM      3  C   UNL     1       6.873  -1.856  23.026  0.00  0.00    +0.014 C 
ATOM      4  C   UNL     1       8.948  -1.599  24.655  0.00  0.00    +0.001 C 
ATOM      5  C   UNL     1       9.212  -0.163  24.245  0.00  0.00    +0.001 C 
ATOM      6  C   UNL     1       8.403   0.798  25.180  0.00  0.00    +0.028 C 
ATOM      7  C   UNL     1       6.885   0.364  25.282  0.00  0.00    +0.023 C 
ATOM      8  C   UNL     1       8.745   2.263  24.835  0.00  0.00    -0.040 A 
ATOM      9  C   UNL     1       9.923   2.575  24.110  0.00  0.00    -0.040 A 
ATOM     10  C   UNL     1      10.189   3.895  23.695  0.00  0.00    +0.049 A 
ATOM     11  C   UNL     1       9.313   4.919  24.038  0.00  0.00    +0.117 A 
ATOM     12  C   UNL     1       8.210   4.649  24.837  0.00  0.00    +0.046 A 
ATOM     13  C   UNL     1      10.943   1.535  23.725  0.00  0.00    +0.036 C 
ATOM     14  C   UNL     1       7.943   3.337  25.256  0.00  0.00    +0.008 A 
ATOM     15  C   UNL     1      10.696   0.188  24.375  0.00  0.00    +0.009 C 
ATOM     16  C   UNL     1       9.794  -2.731  24.108  0.00  0.00    +0.007 C 
ATOM     17  C   UNL     1       6.691  -1.205  25.450  0.00  0.00    +0.015 C 
ATOM     18  C   UNL     1       9.142  -3.902  24.839  0.00  0.00    +0.032 C 
ENDROOT
BRANCH  11  19
ATOM     19  O   UNL     1       9.531   6.198  23.619  0.00  0.00    -0.507 OA
ATOM     20  H   UNL     1       9.842   6.718  24.383  0.00  0.00    +0.292 HD
ENDBRANCH  11  19
BRANCH   1  21
ATOM     21  O   UNL     1       7.127  -4.454  23.658  0.00  0.00    -0.391 OA
ATOM     22  H   UNL     1       6.672  -5.232  24.028  0.00  0.00    +0.210 HD
ENDBRANCH   1  21
BRANCH   7  23
ATOM     23  C   UNL     1       6.035   0.999  24.163  0.00  0.00    +0.163 C 
BRANCH  23  24
ATOM     24  O   UNL     1       4.792   1.498  24.651  0.00  0.00    -0.383 OA
ATOM     25  C   UNL     1       4.504   2.764  24.061  0.00  0.00    +0.193 C 
ENDBRANCH  23  24
ENDBRANCH   7  23
TORSDOF 4
ENDMDL
MODEL 8
REMARK VINA RESULT:      -6.3      1.776      2.294
REMARK  Name = 
REMARK  6 active torsions:
REMARK  status: ('A' for Active; 'I' for Inactive)
REMARK    1  A    between atoms: C_2  and  O_3
REMARK    2  A    between atoms: C_14  and  O_15
REMARK    3  A    between atoms: C_21  and  C_23
REMARK    4  A    between atoms: C_23  and  O_24
REMARK    5  A    between atoms: O_24  and  C_25
REMARK    6  A    between atoms: C_27  and  C_28
REMARK                            x       y       z     vdW  Elec       q    Type
REMARK                         _______ _______ _______ _____ _____    ______ ____
ROOT
ATOM      1  C   UNL     1       5.460  -4.665  26.587  0.00  0.00    +0.121 C 
ATOM      2  C   UNL     1       5.860  -3.320  25.846  0.00  0.00    -0.003 C 
ATOM      3  C   UNL     1       4.863  -3.054  24.693  0.00  0.00    +0.014 C 
ATOM      4  C   UNL     1       7.332  -3.620  25.472  0.00  0.00    +0.001 C 
ATOM      5  C   UNL     1       7.960  -2.598  24.544  0.00  0.00    +0.001 C 
ATOM      6  C   UNL     1       8.076  -1.226  25.289  0.00  0.00    +0.028 C 
ATOM      7  C   UNL     1       6.704  -0.814  25.962  0.00  0.00    +0.023 C 
ATOM      8  C   UNL     1       8.806  -0.208  24.386  0.00  0.00    -0.040 A 
ATOM      9  C   UNL     1       9.593  -0.650  23.294  0.00  0.00    -0.040 A 
ATOM     10  C   UNL     1      10.173   0.271  22.399  0.00  0.00    +0.049 A 
ATOM     11  C   UNL     1      10.015   1.636  22.612  0.00  0.00    +0.117 A 
ATOM     12  C   UNL     1       9.337   2.088  23.735  0.00  0.00    +0.046 A 
ATOM     13  C   UNL     1       9.845  -2.108  23.007  0.00  0.00    +0.036 C 
ATOM     14  C   UNL     1       8.761   1.175  24.630  0.00  0.00    +0.008 A 
ATOM     15  C   UNL     1       9.366  -3.025  24.116  0.00  0.00    +0.009 C 
ATOM     16  C   UNL     1       7.338  -5.094  25.122  0.00  0.00    +0.007 C 
ATOM     17  C   UNL     1       5.980  -2.023  26.699  0.00  0.00    +0.015 C 
ATOM     18  C   UNL     1       6.634  -5.644  26.360  0.00  0.00    +0.032 C 
ENDROOT
BRANCH  11  19
ATOM     19  O   UNL     1      10.538   2.546  21.741  0.00  0.00    -0.507 OA
ATOM     20  H   UNL     1      10.613   3.400  22.205  0.00  0.00    +0.292 HD
ENDBRANCH  11  19
BRANCH   1  21
ATOM     21  O   UNL     1       4.279  -5.288  26.065  0.00  0.00    -0.391 OA
ATOM     22  H   UNL     1       4.490  -6.174  25.719  0.00  0.00    +0.210 HD
ENDBRANCH   1  21
BRANCH   7  23
ATOM     23  C   UNL     1       5.806  -0.026  24.988  0.00  0.00    +0.163 C 
BRANCH  23  24
ATOM     24  O   UNL     1       4.572   0.361  25.590  0.00  0.00    -0.383 OA
ATOM     25  C   UNL     1       4.744   1.562  26.337  0.00  0.00    +0.193 C 
ENDBRANCH  23  24
ENDBRANCH   7  23
TORSDOF 4
ENDMDL
MODEL 9
REMARK VINA RESULT:      -6.2      2.109      6.299
REMARK  Name = 
REMARK  6 active torsions:
REMARK  status: ('A' for Active; 'I' for Inactive)
REMARK    1  A    between atoms: C_2  and  O_3
REMARK    2  A    between atoms: C_14  and  O_15
REMARK    3  A    between atoms: C_21  and  C_23
REMARK    4  A    between atoms: C_23  and  O_24
REMARK    5  A    between atoms: O_24  and  C_25
REMARK    6  A    between atoms: C_27  and  C_28
REMARK                            x       y       z     vdW  Elec       q    Type
REMARK                         _______ _______ _______ _____ _____    ______ ____
ROOT
ATOM      1  C   UNL     1       9.396   4.049  23.641  0.00  0.00    +0.121 C 
ATOM      2  C   UNL     1       8.603   2.694  23.873  0.00  0.00    -0.003 C 
ATOM      3  C   UNL     1       8.197   2.586  25.361  0.00  0.00    +0.014 C 
ATOM      4  C   UNL     1       9.620   1.663  23.324  0.00  0.00    +0.001 C 
ATOM      5  C   UNL     1       9.252   0.218  23.599  0.00  0.00    +0.001 C 
ATOM      6  C   UNL     1       7.951  -0.143  22.808  0.00  0.00    +0.028 C 
ATOM      7  C   UNL     1       6.812   0.930  23.047  0.00  0.00    +0.023 C 
ATOM      8  C   UNL     1       7.626  -1.640  23.002  0.00  0.00    -0.040 A 
ATOM      9  C   UNL     1       8.626  -2.540  23.449  0.00  0.00    -0.040 A 
ATOM     10  C   UNL     1       8.314  -3.884  23.734  0.00  0.00    +0.049 A 
ATOM     11  C   UNL     1       7.022  -4.353  23.533  0.00  0.00    +0.117 A 
ATOM     12  C   UNL     1       6.055  -3.513  22.996  0.00  0.00    +0.046 A 
ATOM     13  C   UNL     1      10.059  -2.127  23.663  0.00  0.00    +0.036 C 
ATOM     14  C   UNL     1       6.362  -2.175  22.706  0.00  0.00    +0.008 A 
ATOM     15  C   UNL     1      10.361  -0.734  23.146  0.00  0.00    +0.009 C 
ATOM     16  C   UNL     1      10.970   2.213  23.737  0.00  0.00    +0.007 C 
ATOM     17  C   UNL     1       7.342   2.428  22.999  0.00  0.00    +0.015 C 
ATOM     18  C   UNL     1      10.825   3.641  23.216  0.00  0.00    +0.032 C 
ENDROOT
BRANCH  11  19
ATOM     19  O   UNL     1       6.688  -5.641  23.834  0.00  0.00    -0.507 OA
ATOM     20  H   UNL     1       7.351  -5.987  24.460  0.00  0.00    +0.292 HD
ENDBRANCH  11  19
BRANCH   1  21
ATOM     21  O   UNL     1       9.518   4.860  24.818  0.00  0.00    -0.391 OA
ATOM     22  H   UNL     1       9.701   5.785  24.572  0.00  0.00    +0.210 HD
ENDBRANCH   1  21
BRANCH   7  23
ATOM     23  C   UNL     1       5.960   0.590  24.286  0.00  0.00    +0.163 C 
BRANCH  23  24
ATOM     24  O   UNL     1       4.902   1.525  24.483  0.00  0.00    -0.383 OA
ATOM     25  C   UNL     1       4.666   1.717  25.875  0.00  0.00    +0.193 C 
ENDBRANCH  23  24
ENDBRANCH   7  23
TORSDOF 4
ENDMDL
