MODEL 1
REMARK VINA RESULT:      -5.7      0.000      0.000
REMARK  Name = 
REMARK  8 active torsions:
REMARK  status: ('A' for Active; 'I' for Inactive)
REMARK    1  A    between atoms: O_1  and  C_2
REMARK    2  A    between atoms: C_5  and  C_20
REMARK    3  A    between atoms: C_7  and  O_9
REMARK    4  A    between atoms: C_10  and  O_12
REMARK    5  A    between atoms: C_13  and  O_15
REMARK    6  A    between atoms: O_15  and  S_16
REMARK    7  A    between atoms: S_16  and  O_17
REMARK    8  A    between atoms: C_20  and  O_21
REMARK                            x       y       z     vdW  Elec       q    Type
REMARK                         _______ _______ _______ _____ _____    ______ ____
ROOT
ATOM      1  C   UNL     1      10.148  -1.441  22.141  0.00  0.00    +0.282 C 
ATOM      2  C   UNL     1       9.242  -2.338  23.007  0.00  0.00    +0.238 C 
ATOM      3  C   UNL     1       8.137  -1.466  23.630  0.00  0.00    +0.182 C 
ATOM      4  C   UNL     1       8.721  -0.247  24.364  0.00  0.00    +0.185 C 
ATOM      5  C   UNL     1       9.791   0.487  23.539  0.00  0.00    +0.260 C 
ATOM      6  O   UNL     1      10.733  -0.373  22.881  0.00  0.00    -0.332 OA
ENDROOT
BRANCH   1   7
ATOM      7  O   UNL     1       9.405  -0.903  21.055  0.00  0.00    -0.365 OA
ATOM      8  H   UNL     1       9.181  -1.652  20.471  0.00  0.00    +0.213 HD
ENDBRANCH   1   7
BRANCH   3   9
ATOM      9  O   UNL     1       7.174  -1.059  22.654  0.00  0.00    -0.386 OA
ATOM     10  H   UNL     1       7.135  -0.079  22.624  0.00  0.00    +0.210 HD
ENDBRANCH   3   9
BRANCH   4  11
ATOM     11  O   UNL     1       9.312  -0.710  25.596  0.00  0.00    -0.386 OA
ATOM     12  H   UNL     1      10.277  -0.745  25.479  0.00  0.00    +0.210 HD
ENDBRANCH   4  11
BRANCH   5  13
ATOM     13  C   UNL     1       9.215   1.522  22.570  0.00  0.00    +0.337 C 
ATOM     14  O   UNL     1       8.065   1.927  22.557  0.00  0.00    -0.248 OA
BRANCH  13  15
ATOM     15  O   UNL     1      10.177   2.011  21.741  0.00  0.00    -0.479 OA
ATOM     16  H   UNL     1       9.751   2.411  20.951  0.00  0.00    +0.295 HD
ENDBRANCH  13  15
ENDBRANCH   5  13
BRANCH   2  17
ATOM     17  O   UNL     1       9.959  -2.987  24.056  0.00  0.00    -0.205 OA
BRANCH  17  18
ATOM     18  S   UNL     1       9.295  -4.254  24.810  0.00  0.00    +0.208 S 
ATOM     19  O   UNL     1       8.423  -4.941  23.886  0.00  0.00    -0.118 OA
ATOM     20  O   UNL     1       8.834  -3.808  26.104  0.00  0.00    -0.118 OA
BRANCH  18  21
ATOM     21  O   UNL     1      10.562  -5.203  25.094  0.00  0.00    -0.231 OA
ATOM     22  H   UNL     1      11.375  -4.670  24.988  0.00  0.00    +0.247 HD
ENDBRANCH  18  21
ENDBRANCH  17  18
ENDBRANCH   2  17
TORSDOF 8
ENDMDL
MODEL 2
REMARK VINA RESULT:      -5.4      2.669      5.490
REMARK  Name = 
REMARK  8 active torsions:
REMARK  status: ('A' for Active; 'I' for Inactive)
REMARK    1  A    between atoms: O_1  and  C_2
REMARK    2  A    between atoms: C_5  and  C_20
REMARK    3  A    between atoms: C_7  and  O_9
REMARK    4  A    between atoms: C_10  and  O_12
REMARK    5  A    between atoms: C_13  and  O_15
REMARK    6  A    between atoms: O_15  and  S_16
REMARK    7  A    between atoms: S_16  and  O_17
REMARK    8  A    between atoms: C_20  and  O_21
REMARK                            x       y       z     vdW  Elec       q    Type
REMARK                         _______ _______ _______ _____ _____    ______ ____
ROOT
ATOM      1  C   UNL     1       7.193  -4.040  23.757  0.00  0.00    +0.282 C 
ATOM      2  C   UNL     1       8.579  -3.368  23.686  0.00  0.00    +0.238 C 
ATOM      3  C   UNL     1       9.397  -3.798  24.917  0.00  0.00    +0.182 C 
ATOM      4  C   UNL     1       8.630  -3.547  26.227  0.00  0.00    +0.185 C 
ATOM      5  C   UNL     1       7.174  -4.037  26.165  0.00  0.00    +0.260 C 
ATOM      6  O   UNL     1       6.484  -3.713  24.949  0.00  0.00    -0.332 OA
ENDROOT
BRANCH   1   7
ATOM      7  O   UNL     1       7.332  -5.452  23.671  0.00  0.00    -0.365 OA
ATOM      8  H   UNL     1       8.090  -5.622  23.080  0.00  0.00    +0.213 HD
ENDBRANCH   1   7
BRANCH   3   9
ATOM      9  O   UNL     1       9.811  -5.164  24.824  0.00  0.00    -0.386 OA
ATOM     10  H   UNL     1       9.076  -5.747  25.111  0.00  0.00    +0.210 HD
ENDBRANCH   3   9
BRANCH   4  11
ATOM     11  O   UNL     1       8.639  -2.127  26.482  0.00  0.00    -0.386 OA
ATOM     12  H   UNL     1       8.934  -1.982  27.398  0.00  0.00    +0.210 HD
ENDBRANCH   4  11
BRANCH   5  13
ATOM     13  C   UNL     1       7.011  -5.518  26.517  0.00  0.00    +0.337 C 
ATOM     14  O   UNL     1       6.058  -6.222  26.224  0.00  0.00    -0.248 OA
BRANCH  13  15
ATOM     15  O   UNL     1       8.112  -5.998  27.154  0.00  0.00    -0.479 OA
ATOM     16  H   UNL     1       8.458  -5.311  27.766  0.00  0.00    +0.295 HD
ENDBRANCH  13  15
ENDBRANCH   5  13
BRANCH   2  17
ATOM     17  O   UNL     1       8.494  -1.944  23.668  0.00  0.00    -0.205 OA
BRANCH  17  18
ATOM     18  S   UNL     1       9.797  -1.074  23.268  0.00  0.00    +0.208 S 
ATOM     19  O   UNL     1      10.617  -1.850  22.367  0.00  0.00    -0.118 OA
ATOM     20  O   UNL     1      10.333  -0.495  24.478  0.00  0.00    -0.118 OA
BRANCH  18  21
ATOM     21  O   UNL     1       9.166   0.149  22.434  0.00  0.00    -0.231 OA
ATOM     22  H   UNL     1       8.260  -0.100  22.164  0.00  0.00    +0.247 HD
ENDBRANCH  18  21
ENDBRANCH  17  18
ENDBRANCH   2  17
TORSDOF 8
ENDMDL
MODEL 3
REMARK VINA RESULT:      -5.4      2.073      3.473
REMARK  Name = 
REMARK  8 active torsions:
REMARK  status: ('A' for Active; 'I' for Inactive)
REMARK    1  A    between atoms: O_1  and  C_2
REMARK    2  A    between atoms: C_5  and  C_20
REMARK    3  A    between atoms: C_7  and  O_9
REMARK    4  A    between atoms: C_10  and  O_12
REMARK    5  A    between atoms: C_13  and  O_15
REMARK    6  A    between atoms: O_15  and  S_16
REMARK    7  A    between atoms: S_16  and  O_17
REMARK    8  A    between atoms: C_20  and  O_21
REMARK                            x       y       z     vdW  Elec       q    Type
REMARK                         _______ _______ _______ _____ _____    ______ ____
ROOT
ATOM      1  C   UNL     1       8.914  -3.111  24.148  0.00  0.00    +0.282 C 
ATOM      2  C   UNL     1       8.178  -3.225  22.798  0.00  0.00    +0.238 C 
ATOM      3  C   UNL     1       8.355  -1.903  22.029  0.00  0.00    +0.182 C 
ATOM      4  C   UNL     1       7.947  -0.689  22.881  0.00  0.00    +0.185 C 
ATOM      5  C   UNL     1       8.530  -0.739  24.303  0.00  0.00    +0.260 C 
ATOM      6  O   UNL     1       8.447  -2.023  24.940  0.00  0.00    -0.332 OA
ENDROOT
BRANCH   1   7
ATOM      7  O   UNL     1      10.311  -2.961  23.929  0.00  0.00    -0.365 OA
ATOM      8  H   UNL     1      10.712  -2.782  24.800  0.00  0.00    +0.213 HD
ENDBRANCH   1   7
BRANCH   3   9
ATOM      9  O   UNL     1       9.691  -1.754  21.539  0.00  0.00    -0.386 OA
ATOM     10  H   UNL     1       9.701  -1.087  20.820  0.00  0.00    +0.210 HD
ENDBRANCH   3   9
BRANCH   4  11
ATOM     11  O   UNL     1       6.507  -0.667  22.963  0.00  0.00    -0.386 OA
ATOM     12  H   UNL     1       6.191  -1.583  23.060  0.00  0.00    +0.210 HD
ENDBRANCH   4  11
BRANCH   5  13
ATOM     13  C   UNL     1       9.943  -0.160  24.407  0.00  0.00    +0.337 C 
ATOM     14  O   UNL     1      10.738  -0.046  23.490  0.00  0.00    -0.248 OA
BRANCH  13  15
ATOM     15  O   UNL     1      10.198   0.294  25.664  0.00  0.00    -0.479 OA
ATOM     16  H   UNL     1      10.501  -0.455  26.223  0.00  0.00    +0.295 HD
ENDBRANCH  13  15
ENDBRANCH   5  13
BRANCH   2  17
ATOM     17  O   UNL     1       6.783  -3.478  22.957  0.00  0.00    -0.205 OA
BRANCH  17  18
ATOM     18  S   UNL     1       6.045  -4.522  21.968  0.00  0.00    +0.208 S 
ATOM     19  O   UNL     1       5.627  -3.819  20.777  0.00  0.00    -0.118 OA
ATOM     20  O   UNL     1       5.121  -5.303  22.755  0.00  0.00    -0.118 OA
BRANCH  18  21
ATOM     21  O   UNL     1       7.235  -5.525  21.558  0.00  0.00    -0.231 OA
ATOM     22  H   UNL     1       7.403  -6.125  22.311  0.00  0.00    +0.247 HD
ENDBRANCH  18  21
ENDBRANCH  17  18
ENDBRANCH   2  17
TORSDOF 8
ENDMDL
MODEL 4
REMARK VINA RESULT:      -5.4      1.332      2.599
REMARK  Name = 
REMARK  8 active torsions:
REMARK  status: ('A' for Active; 'I' for Inactive)
REMARK    1  A    between atoms: O_1  and  C_2
REMARK    2  A    between atoms: C_5  and  C_20
REMARK    3  A    between atoms: C_7  and  O_9
REMARK    4  A    between atoms: C_10  and  O_12
REMARK    5  A    between atoms: C_13  and  O_15
REMARK    6  A    between atoms: O_15  and  S_16
REMARK    7  A    between atoms: S_16  and  O_17
REMARK    8  A    between atoms: C_20  and  O_21
REMARK                            x       y       z     vdW  Elec       q    Type
REMARK                         _______ _______ _______ _____ _____    ______ ____
ROOT
ATOM      1  C   UNL     1       7.669  -0.111  23.644  0.00  0.00    +0.282 C 
ATOM      2  C   UNL     1       8.438  -1.125  24.514  0.00  0.00    +0.238 C 
ATOM      3  C   UNL     1       9.926  -0.732  24.529  0.00  0.00    +0.182 C 
ATOM      4  C   UNL     1      10.483  -0.559  23.105  0.00  0.00    +0.185 C 
ATOM      5  C   UNL     1       9.560   0.280  22.205  0.00  0.00    +0.260 C 
ATOM      6  O   UNL     1       8.166  -0.044  22.310  0.00  0.00    -0.332 OA
ENDROOT
BRANCH   1   7
ATOM      7  O   UNL     1       7.735   1.182  24.231  0.00  0.00    -0.365 OA
ATOM      8  H   UNL     1       8.187   1.758  23.586  0.00  0.00    +0.213 HD
ENDBRANCH   1   7
BRANCH   3   9
ATOM      9  O   UNL     1      10.153   0.445  25.310  0.00  0.00    -0.386 OA
ATOM     10  H   UNL     1       9.364   1.025  25.261  0.00  0.00    +0.210 HD
ENDBRANCH   3   9
BRANCH   4  11
ATOM     11  O   UNL     1      10.641  -1.870  22.526  0.00  0.00    -0.386 OA
ATOM     12  H   UNL     1      10.101  -2.499  23.037  0.00  0.00    +0.210 HD
ENDBRANCH   4  11
BRANCH   5  13
ATOM     13  C   UNL     1       9.789   1.788  22.327  0.00  0.00    +0.337 C 
ATOM     14  O   UNL     1      10.619   2.330  23.038  0.00  0.00    -0.248 OA
BRANCH  13  15
ATOM     15  O   UNL     1       8.986   2.480  21.475  0.00  0.00    -0.479 OA
ATOM     16  H   UNL     1       9.299   3.410  21.419  0.00  0.00    +0.295 HD
ENDBRANCH  13  15
ENDBRANCH   5  13
BRANCH   2  17
ATOM     17  O   UNL     1       8.323  -2.461  24.027  0.00  0.00    -0.205 OA
BRANCH  17  18
ATOM     18  S   UNL     1       8.756  -3.696  24.977  0.00  0.00    +0.208 S 
ATOM     19  O   UNL     1       8.524  -3.327  26.354  0.00  0.00    -0.118 OA
ATOM     20  O   UNL     1      10.039  -4.176  24.522  0.00  0.00    -0.118 OA
BRANCH  18  21
ATOM     21  O   UNL     1       7.692  -4.837  24.584  0.00  0.00    -0.231 OA
ATOM     22  H   UNL     1       7.628  -5.466  25.329  0.00  0.00    +0.247 HD
ENDBRANCH  18  21
ENDBRANCH  17  18
ENDBRANCH   2  17
TORSDOF 8
ENDMDL
MODEL 5
REMARK VINA RESULT:      -5.4      1.173      2.248
REMARK  Name = 
REMARK  8 active torsions:
REMARK  status: ('A' for Active; 'I' for Inactive)
REMARK    1  A    between atoms: O_1  and  C_2
REMARK    2  A    between atoms: C_5  and  C_20
REMARK    3  A    between atoms: C_7  and  O_9
REMARK    4  A    between atoms: C_10  and  O_12
REMARK    5  A    between atoms: C_13  and  O_15
REMARK    6  A    between atoms: O_15  and  S_16
REMARK    7  A    between atoms: S_16  and  O_17
REMARK    8  A    between atoms: C_20  and  O_21
REMARK                            x       y       z     vdW  Elec       q    Type
REMARK                         _______ _______ _______ _____ _____    ______ ____
ROOT
ATOM      1  C   UNL     1       9.941  -0.422  24.554  0.00  0.00    +0.282 C 
ATOM      2  C   UNL     1       9.782  -1.892  24.120  0.00  0.00    +0.238 C 
ATOM      3  C   UNL     1       9.308  -1.924  22.656  0.00  0.00    +0.182 C 
ATOM      4  C   UNL     1       8.057  -1.055  22.443  0.00  0.00    +0.185 C 
ATOM      5  C   UNL     1       8.180   0.332  23.095  0.00  0.00    +0.260 C 
ATOM      6  O   UNL     1       8.735   0.325  24.418  0.00  0.00    -0.332 OA
ENDROOT
BRANCH   1   7
ATOM      7  O   UNL     1      10.964   0.204  23.790  0.00  0.00    -0.365 OA
ATOM      8  H   UNL     1      11.322  -0.478  23.191  0.00  0.00    +0.213 HD
ENDBRANCH   1   7
BRANCH   3   9
ATOM      9  O   UNL     1      10.352  -1.541  21.755  0.00  0.00    -0.386 OA
ATOM     10  H   UNL     1      10.092  -1.769  20.838  0.00  0.00    +0.210 HD
ENDBRANCH   3   9
BRANCH   4  11
ATOM     11  O   UNL     1       6.931  -1.748  23.020  0.00  0.00    -0.386 OA
ATOM     12  H   UNL     1       6.279  -1.913  22.317  0.00  0.00    +0.210 HD
ENDBRANCH   4  11
BRANCH   5  13
ATOM     13  C   UNL     1       8.877   1.366  22.208  0.00  0.00    +0.337 C 
ATOM     14  O   UNL     1       9.392   2.404  22.589  0.00  0.00    -0.248 OA
BRANCH  13  15
ATOM     15  O   UNL     1       8.923   0.954  20.912  0.00  0.00    -0.479 OA
ATOM     16  H   UNL     1       9.270   0.036  20.877  0.00  0.00    +0.295 HD
ENDBRANCH  13  15
ENDBRANCH   5  13
BRANCH   2  17
ATOM     17  O   UNL     1       8.837  -2.599  24.922  0.00  0.00    -0.205 OA
BRANCH  17  18
ATOM     18  S   UNL     1       8.841  -4.216  24.918  0.00  0.00    +0.208 S 
ATOM     19  O   UNL     1      10.194  -4.678  24.713  0.00  0.00    -0.118 OA
ATOM     20  O   UNL     1       7.750  -4.660  24.083  0.00  0.00    -0.118 OA
BRANCH  18  21
ATOM     21  O   UNL     1       8.419  -4.576  26.428  0.00  0.00    -0.231 OA
ATOM     22  H   UNL     1       7.655  -5.186  26.396  0.00  0.00    +0.247 HD
ENDBRANCH  18  21
ENDBRANCH  17  18
ENDBRANCH   2  17
TORSDOF 8
ENDMDL
MODEL 6
REMARK VINA RESULT:      -5.3      2.015      3.468
REMARK  Name = 
REMARK  8 active torsions:
REMARK  status: ('A' for Active; 'I' for Inactive)
REMARK    1  A    between atoms: O_1  and  C_2
REMARK    2  A    between atoms: C_5  and  C_20
REMARK    3  A    between atoms: C_7  and  O_9
REMARK    4  A    between atoms: C_10  and  O_12
REMARK    5  A    between atoms: C_13  and  O_15
REMARK    6  A    between atoms: O_15  and  S_16
REMARK    7  A    between atoms: S_16  and  O_17
REMARK    8  A    between atoms: C_20  and  O_21
REMARK                            x       y       z     vdW  Elec       q    Type
REMARK                         _______ _______ _______ _____ _____    ______ ____
ROOT
ATOM      1  C   UNL     1       9.868   1.499  24.317  0.00  0.00    +0.282 C 
ATOM      2  C   UNL     1       9.698   0.479  23.174  0.00  0.00    +0.238 C 
ATOM      3  C   UNL     1       8.922   1.151  22.027  0.00  0.00    +0.182 C 
ATOM      4  C   UNL     1       7.610   1.783  22.521  0.00  0.00    +0.185 C 
ATOM      5  C   UNL     1       7.796   2.613  23.802  0.00  0.00    +0.260 C 
ATOM      6  O   UNL     1       8.623   1.997  24.800  0.00  0.00    -0.332 OA
ENDROOT
BRANCH   1   7
ATOM      7  O   UNL     1      10.667   2.591  23.880  0.00  0.00    -0.365 OA
ATOM      8  H   UNL     1      10.950   3.069  24.682  0.00  0.00    +0.213 HD
ENDBRANCH   1   7
BRANCH   3   9
ATOM      9  O   UNL     1       9.725   2.116  21.342  0.00  0.00    -0.386 OA
ATOM     10  H   UNL     1       9.260   2.979  21.333  0.00  0.00    +0.210 HD
ENDBRANCH   3   9
BRANCH   4  11
ATOM     11  O   UNL     1       6.673   0.718  22.783  0.00  0.00    -0.386 OA
ATOM     12  H   UNL     1       5.965   0.761  22.117  0.00  0.00    +0.210 HD
ENDBRANCH   4  11
BRANCH   5  13
ATOM     13  C   UNL     1       8.230   4.058  23.539  0.00  0.00    +0.337 C 
ATOM     14  O   UNL     1       8.808   4.786  24.328  0.00  0.00    -0.248 OA
BRANCH  13  15
ATOM     15  O   UNL     1       7.953   4.431  22.260  0.00  0.00    -0.479 OA
ATOM     16  H   UNL     1       8.788   4.462  21.744  0.00  0.00    +0.295 HD
ENDBRANCH  13  15
ENDBRANCH   5  13
BRANCH   2  17
ATOM     17  O   UNL     1       8.987  -0.688  23.586  0.00  0.00    -0.205 OA
BRANCH  17  18
ATOM     18  S   UNL     1       9.326  -2.111  22.897  0.00  0.00    +0.208 S 
ATOM     19  O   UNL     1       8.147  -2.590  22.213  0.00  0.00    -0.118 OA
ATOM     20  O   UNL     1      10.024  -2.919  23.869  0.00  0.00    -0.118 OA
BRANCH  18  21
ATOM     21  O   UNL     1      10.418  -1.715  21.783  0.00  0.00    -0.231 OA
ATOM     22  H   UNL     1      11.124  -2.392  21.792  0.00  0.00    +0.247 HD
ENDBRANCH  18  21
ENDBRANCH  17  18
ENDBRANCH   2  17
TORSDOF 8
ENDMDL
MODEL 7
REMARK VINA RESULT:      -5.3      3.242      5.620
REMARK  Name = 
REMARK  8 active torsions:
REMARK  status: ('A' for Active; 'I' for Inactive)
REMARK    1  A    between atoms: O_1  and  C_2
REMARK    2  A    between atoms: C_5  and  C_20
REMARK    3  A    between atoms: C_7  and  O_9
REMARK    4  A    between atoms: C_10  and  O_12
REMARK    5  A    between atoms: C_13  and  O_15
REMARK    6  A    between atoms: O_15  and  S_16
REMARK    7  A    between atoms: S_16  and  O_17
REMARK    8  A    between atoms: C_20  and  O_21
REMARK                            x       y       z     vdW  Elec       q    Type
REMARK                         _______ _______ _______ _____ _____    ______ ____
ROOT
ATOM      1  C   UNL     1       6.028  -3.284  22.027  0.00  0.00    +0.282 C 
ATOM      2  C   UNL     1       7.496  -3.472  22.459  0.00  0.00    +0.238 C 
ATOM      3  C   UNL     1       7.620  -4.811  23.209  0.00  0.00    +0.182 C 
ATOM      4  C   UNL     1       6.598  -4.919  24.353  0.00  0.00    +0.185 C 
ATOM      5  C   UNL     1       5.181  -4.501  23.925  0.00  0.00    +0.260 C 
ATOM      6  O   UNL     1       5.123  -3.309  23.129  0.00  0.00    -0.332 OA
ENDROOT
BRANCH   1   7
ATOM      7  O   UNL     1       5.659  -4.297  21.100  0.00  0.00    -0.365 OA
ATOM      8  H   UNL     1       5.020  -3.893  20.484  0.00  0.00    +0.213 HD
ENDBRANCH   1   7
BRANCH   3   9
ATOM      9  O   UNL     1       7.508  -5.926  22.319  0.00  0.00    -0.386 OA
ATOM     10  H   UNL     1       7.381  -6.747  22.840  0.00  0.00    +0.210 HD
ENDBRANCH   3   9
BRANCH   4  11
ATOM     11  O   UNL     1       7.038  -4.061  25.425  0.00  0.00    -0.386 OA
ATOM     12  H   UNL     1       6.689  -4.413  26.263  0.00  0.00    +0.210 HD
ENDBRANCH   4  11
BRANCH   5  13
ATOM     13  C   UNL     1       4.375  -5.634  23.285  0.00  0.00    +0.337 C 
ATOM     14  O   UNL     1       3.355  -5.503  22.629  0.00  0.00    -0.248 OA
BRANCH  13  15
ATOM     15  O   UNL     1       4.979  -6.838  23.475  0.00  0.00    -0.479 OA
ATOM     16  H   UNL     1       4.669  -7.468  22.787  0.00  0.00    +0.295 HD
ENDBRANCH  13  15
ENDBRANCH   5  13
BRANCH   2  17
ATOM     17  O   UNL     1       7.952  -2.425  23.313  0.00  0.00    -0.205 OA
BRANCH  17  18
ATOM     18  S   UNL     1       9.493  -1.942  23.228  0.00  0.00    +0.208 S 
ATOM     19  O   UNL     1      10.336  -2.980  23.775  0.00  0.00    -0.118 OA
ATOM     20  O   UNL     1       9.558  -0.580  23.701  0.00  0.00    -0.118 OA
BRANCH  18  21
ATOM     21  O   UNL     1       9.757  -1.875  21.643  0.00  0.00    -0.231 OA
ATOM     22  H   UNL     1       9.313  -1.078  21.291  0.00  0.00    +0.247 HD
ENDBRANCH  18  21
ENDBRANCH  17  18
ENDBRANCH   2  17
TORSDOF 8
ENDMDL
MODEL 8
REMARK VINA RESULT:      -5.3      2.151      5.135
REMARK  Name = 
REMARK  8 active torsions:
REMARK  status: ('A' for Active; 'I' for Inactive)
REMARK    1  A    between atoms: O_1  and  C_2
REMARK    2  A    between atoms: C_5  and  C_20
REMARK    3  A    between atoms: C_7  and  O_9
REMARK    4  A    between atoms: C_10  and  O_12
REMARK    5  A    between atoms: C_13  and  O_15
REMARK    6  A    between atoms: O_15  and  S_16
REMARK    7  A    between atoms: S_16  and  O_17
REMARK    8  A    between atoms: C_20  and  O_21
REMARK                            x       y       z     vdW  Elec       q    Type
REMARK                         _______ _______ _______ _____ _____    ______ ____
ROOT
ATOM      1  C   UNL     1       8.911  -0.968  24.929  0.00  0.00    +0.282 C 
ATOM      2  C   UNL     1       8.679   0.213  23.966  0.00  0.00    +0.238 C 
ATOM      3  C   UNL     1       7.993  -0.317  22.694  0.00  0.00    +0.182 C 
ATOM      4  C   UNL     1       8.765  -1.499  22.082  0.00  0.00    +0.185 C 
ATOM      5  C   UNL     1       9.173  -2.548  23.130  0.00  0.00    +0.260 C 
ATOM      6  O   UNL     1       9.700  -2.004  24.349  0.00  0.00    -0.332 OA
ENDROOT
BRANCH   1   7
ATOM      7  O   UNL     1       7.664  -1.511  25.343  0.00  0.00    -0.365 OA
ATOM      8  H   UNL     1       7.188  -0.796  25.807  0.00  0.00    +0.213 HD
ENDBRANCH   1   7
BRANCH   3   9
ATOM      9  O   UNL     1       6.630  -0.673  22.938  0.00  0.00    -0.386 OA
ATOM     10  H   UNL     1       6.179   0.063  23.404  0.00  0.00    +0.210 HD
ENDBRANCH   3   9
BRANCH   4  11
ATOM     11  O   UNL     1       9.953  -0.976  21.453  0.00  0.00    -0.386 OA
ATOM     12  H   UNL     1       9.811  -0.966  20.490  0.00  0.00    +0.210 HD
ENDBRANCH   4  11
BRANCH   5  13
ATOM     13  C   UNL     1       8.084  -3.587  23.413  0.00  0.00    +0.337 C 
ATOM     14  O   UNL     1       6.898  -3.466  23.159  0.00  0.00    -0.248 OA
BRANCH  13  15
ATOM     15  O   UNL     1       8.614  -4.727  23.933  0.00  0.00    -0.479 OA
ATOM     16  H   UNL     1       9.517  -4.538  24.273  0.00  0.00    +0.295 HD
ENDBRANCH  13  15
ENDBRANCH   5  13
BRANCH   2  17
ATOM     17  O   UNL     1       9.894   0.862  23.595  0.00  0.00    -0.205 OA
BRANCH  17  18
ATOM     18  S   UNL     1       9.849   2.380  23.041  0.00  0.00    +0.208 S 
ATOM     19  O   UNL     1      11.039   3.071  23.480  0.00  0.00    -0.118 OA
ATOM     20  O   UNL     1       8.527   2.905  23.291  0.00  0.00    -0.118 OA
BRANCH  18  21
ATOM     21  O   UNL     1       9.953   2.180  21.448  0.00  0.00    -0.231 OA
ATOM     22  H   UNL     1       9.120   2.495  21.045  0.00  0.00    +0.247 HD
ENDBRANCH  18  21
ENDBRANCH  17  18
ENDBRANCH   2  17
TORSDOF 8
ENDMDL
MODEL 9
REMARK VINA RESULT:      -5.2      2.802      5.692
REMARK  Name = 
REMARK  8 active torsions:
REMARK  status: ('A' for Active; 'I' for Inactive)
REMARK    1  A    between atoms: O_1  and  C_2
REMARK    2  A    between atoms: C_5  and  C_20
REMARK    3  A    between atoms: C_7  and  O_9
REMARK    4  A    between atoms: C_10  and  O_12
REMARK    5  A    between atoms: C_13  and  O_15
REMARK    6  A    between atoms: O_15  and  S_16
REMARK    7  A    between atoms: S_16  and  O_17
REMARK    8  A    between atoms: C_20  and  O_21
REMARK                            x       y       z     vdW  Elec       q    Type
REMARK                         _______ _______ _______ _____ _____    ______ ____
ROOT
ATOM      1  C   UNL     1       7.663  -2.808  25.637  0.00  0.00    +0.282 C 
ATOM      2  C   UNL     1       8.266  -3.164  24.264  0.00  0.00    +0.238 C 
ATOM      3  C   UNL     1       8.194  -4.690  24.075  0.00  0.00    +0.182 C 
ATOM      4  C   UNL     1       8.821  -5.440  25.262  0.00  0.00    +0.185 C 
ATOM      5  C   UNL     1       8.356  -4.894  26.622  0.00  0.00    +0.260 C 
ATOM      6  O   UNL     1       8.328  -3.462  26.715  0.00  0.00    -0.332 OA
ENDROOT
BRANCH   1   7
ATOM      7  O   UNL     1       6.284  -3.150  25.666  0.00  0.00    -0.365 OA
ATOM      8  H   UNL     1       6.007  -3.114  26.601  0.00  0.00    +0.213 HD
ENDBRANCH   1   7
BRANCH   3   9
ATOM      9  O   UNL     1       6.852  -5.130  23.847  0.00  0.00    -0.386 OA
ATOM     10  H   UNL     1       6.532  -4.772  22.992  0.00  0.00    +0.210 HD
ENDBRANCH   3   9
BRANCH   4  11
ATOM     11  O   UNL     1      10.254  -5.306  25.166  0.00  0.00    -0.386 OA
ATOM     12  H   UNL     1      10.473  -4.358  25.143  0.00  0.00    +0.210 HD
ENDBRANCH   4  11
BRANCH   5  13
ATOM     13  C   UNL     1       7.041  -5.506  27.111  0.00  0.00    +0.337 C 
ATOM     14  O   UNL     1       6.374  -6.337  26.517  0.00  0.00    -0.248 OA
BRANCH  13  15
ATOM     15  O   UNL     1       6.721  -5.059  28.355  0.00  0.00    -0.479 OA
ATOM     16  H   UNL     1       7.546  -4.840  28.842  0.00  0.00    +0.295 HD
ENDBRANCH  13  15
ENDBRANCH   5  13
BRANCH   2  17
ATOM     17  O   UNL     1       9.626  -2.751  24.141  0.00  0.00    -0.205 OA
BRANCH  17  18
ATOM     18  S   UNL     1       9.978  -1.399  23.328  0.00  0.00    +0.208 S 
ATOM     19  O   UNL     1      10.778  -1.743  22.175  0.00  0.00    -0.118 OA
ATOM     20  O   UNL     1      10.407  -0.406  24.284  0.00  0.00    -0.118 OA
BRANCH  18  21
ATOM     21  O   UNL     1       8.536  -0.915  22.803  0.00  0.00    -0.231 OA
ATOM     22  H   UNL     1       8.661  -0.440  21.957  0.00  0.00    +0.247 HD
ENDBRANCH  18  21
ENDBRANCH  17  18
ENDBRANCH   2  17
TORSDOF 8
ENDMDL
