MODEL 1
REMARK VINA RESULT:      -4.4      0.000      0.000
REMARK  Name = 
REMARK  4 active torsions:
REMARK  status: ('A' for Active; 'I' for Inactive)
REMARK    1  A    between atoms: O_1  and  C_2
REMARK    2  A    between atoms: C_6  and  O_8
REMARK    3  A    between atoms: C_9  and  O_11
REMARK    4  A    between atoms: C_12  and  O_14
REMARK                            x       y       z     vdW  Elec       q    Type
REMARK                         _______ _______ _______ _____ _____    ______ ____
ROOT
ATOM      1  C   UNL     1       9.954   1.114  21.954  0.00  0.00    +0.171 C 
ATOM      2  C   UNL     1       9.860   1.347  23.471  0.00  0.00    +0.178 C 
ATOM      3  C   UNL     1      10.557   0.202  24.225  0.00  0.00    +0.201 C 
ATOM      4  C   UNL     1       9.985  -1.151  23.744  0.00  0.00    +0.279 C 
ATOM      5  O   UNL     1      10.149  -1.306  22.341  0.00  0.00    -0.346 OA
ATOM      6  C   UNL     1       9.486  -0.290  21.587  0.00  0.00    +0.197 C 
ENDROOT
BRANCH   1   7
ATOM      7  O   UNL     1       9.178   2.071  21.230  0.00  0.00    -0.387 OA
ATOM      8  H   UNL     1       8.487   1.577  20.749  0.00  0.00    +0.210 HD
ENDBRANCH   1   7
BRANCH   2   9
ATOM      9  O   UNL     1      10.434   2.634  23.763  0.00  0.00    -0.386 OA
ATOM     10  H   UNL     1      10.601   3.090  22.917  0.00  0.00    +0.210 HD
ENDBRANCH   2   9
BRANCH   3  11
ATOM     11  O   UNL     1      10.436   0.393  25.640  0.00  0.00    -0.384 OA
ATOM     12  H   UNL     1      11.265   0.107  26.061  0.00  0.00    +0.210 HD
ENDBRANCH   3  11
BRANCH   4  13
ATOM     13  O   UNL     1       8.617  -1.277  24.094  0.00  0.00    -0.365 OA
ATOM     14  H   UNL     1       8.292  -0.367  24.209  0.00  0.00    +0.213 HD
ENDBRANCH   4  13
TORSDOF 4
ENDMDL
MODEL 2
REMARK VINA RESULT:      -4.4      1.051      3.530
REMARK  Name = 
REMARK  4 active torsions:
REMARK  status: ('A' for Active; 'I' for Inactive)
REMARK    1  A    between atoms: O_1  and  C_2
REMARK    2  A    between atoms: C_6  and  O_8
REMARK    3  A    between atoms: C_9  and  O_11
REMARK    4  A    between atoms: C_12  and  O_14
REMARK                            x       y       z     vdW  Elec       q    Type
REMARK                         _______ _______ _______ _____ _____    ______ ____
ROOT
ATOM      1  C   UNL     1      10.173  -0.956  23.406  0.00  0.00    +0.171 C 
ATOM      2  C   UNL     1       9.480  -0.113  22.322  0.00  0.00    +0.178 C 
ATOM      3  C   UNL     1      10.090   1.297  22.280  0.00  0.00    +0.201 C 
ATOM      4  C   UNL     1      10.053   1.913  23.697  0.00  0.00    +0.279 C 
ATOM      5  O   UNL     1      10.749   1.097  24.629  0.00  0.00    -0.346 OA
ATOM      6  C   UNL     1      10.198  -0.216  24.738  0.00  0.00    +0.197 C 
ENDROOT
BRANCH   1   7
ATOM      7  O   UNL     1       9.522  -2.217  23.582  0.00  0.00    -0.387 OA
ATOM      8  H   UNL     1      10.185  -2.835  23.945  0.00  0.00    +0.210 HD
ENDBRANCH   1   7
BRANCH   2   9
ATOM      9  O   UNL     1       9.603  -0.808  21.068  0.00  0.00    -0.386 OA
ATOM     10  H   UNL     1      10.524  -1.122  20.984  0.00  0.00    +0.210 HD
ENDBRANCH   2   9
BRANCH   3  11
ATOM     11  O   UNL     1       9.420   2.099  21.299  0.00  0.00    -0.384 OA
ATOM     12  H   UNL     1       8.496   1.805  21.238  0.00  0.00    +0.210 HD
ENDBRANCH   3  11
BRANCH   4  13
ATOM     13  O   UNL     1       8.717   2.118  24.127  0.00  0.00    -0.365 OA
ATOM     14  H   UNL     1       8.332   1.229  24.213  0.00  0.00    +0.213 HD
ENDBRANCH   4  13
TORSDOF 4
ENDMDL
MODEL 3
REMARK VINA RESULT:      -4.3      1.257      2.669
REMARK  Name = 
REMARK  4 active torsions:
REMARK  status: ('A' for Active; 'I' for Inactive)
REMARK    1  A    between atoms: O_1  and  C_2
REMARK    2  A    between atoms: C_6  and  O_8
REMARK    3  A    between atoms: C_9  and  O_11
REMARK    4  A    between atoms: C_12  and  O_14
REMARK                            x       y       z     vdW  Elec       q    Type
REMARK                         _______ _______ _______ _____ _____    ______ ____
ROOT
ATOM      1  C   UNL     1       9.369   1.424  22.392  0.00  0.00    +0.171 C 
ATOM      2  C   UNL     1      10.018   0.042  22.574  0.00  0.00    +0.178 C 
ATOM      3  C   UNL     1       9.356  -0.701  23.745  0.00  0.00    +0.201 C 
ATOM      4  C   UNL     1       9.386   0.195  25.004  0.00  0.00    +0.279 C 
ATOM      5  O   UNL     1       8.732   1.434  24.766  0.00  0.00    -0.346 OA
ATOM      6  C   UNL     1       9.332   2.187  23.712  0.00  0.00    +0.197 C 
ENDROOT
BRANCH   1   7
ATOM      7  O   UNL     1      10.068   2.205  21.419  0.00  0.00    -0.387 OA
ATOM      8  H   UNL     1      10.577   2.883  21.905  0.00  0.00    +0.210 HD
ENDBRANCH   1   7
BRANCH   2   9
ATOM      9  O   UNL     1       9.906  -0.672  21.329  0.00  0.00    -0.386 OA
ATOM     10  H   UNL     1       9.207  -1.346  21.428  0.00  0.00    +0.210 HD
ENDBRANCH   2   9
BRANCH   3  11
ATOM     11  O   UNL     1       9.984  -1.974  23.945  0.00  0.00    -0.384 OA
ATOM     12  H   UNL     1      10.946  -1.859  23.869  0.00  0.00    +0.210 HD
ENDBRANCH   3  11
BRANCH   4  13
ATOM     13  O   UNL     1      10.719   0.420  25.434  0.00  0.00    -0.365 OA
ATOM     14  H   UNL     1      10.942  -0.339  26.000  0.00  0.00    +0.213 HD
ENDBRANCH   4  13
TORSDOF 4
ENDMDL
MODEL 4
REMARK VINA RESULT:      -4.3      4.507      6.022
REMARK  Name = 
REMARK  4 active torsions:
REMARK  status: ('A' for Active; 'I' for Inactive)
REMARK    1  A    between atoms: O_1  and  C_2
REMARK    2  A    between atoms: C_6  and  O_8
REMARK    3  A    between atoms: C_9  and  O_11
REMARK    4  A    between atoms: C_12  and  O_14
REMARK                            x       y       z     vdW  Elec       q    Type
REMARK                         _______ _______ _______ _____ _____    ______ ____
ROOT
ATOM      1  C   UNL     1       8.967  -4.040  24.398  0.00  0.00    +0.171 C 
ATOM      2  C   UNL     1       9.115  -4.665  25.794  0.00  0.00    +0.178 C 
ATOM      3  C   UNL     1       7.800  -5.345  26.210  0.00  0.00    +0.201 C 
ATOM      4  C   UNL     1       6.637  -4.336  26.076  0.00  0.00    +0.279 C 
ATOM      5  O   UNL     1       6.542  -3.838  24.749  0.00  0.00    -0.346 OA
ATOM      6  C   UNL     1       7.725  -3.159  24.323  0.00  0.00    +0.197 C 
ENDROOT
BRANCH   1   7
ATOM      7  O   UNL     1      10.114  -3.261  24.049  0.00  0.00    -0.387 OA
ATOM      8  H   UNL     1       9.986  -2.953  23.132  0.00  0.00    +0.210 HD
ENDBRANCH   1   7
BRANCH   2   9
ATOM      9  O   UNL     1      10.226  -5.580  25.760  0.00  0.00    -0.386 OA
ATOM     10  H   UNL     1      10.648  -5.578  26.639  0.00  0.00    +0.210 HD
ENDBRANCH   2   9
BRANCH   3  11
ATOM     11  O   UNL     1       7.921  -5.895  27.528  0.00  0.00    -0.384 OA
ATOM     12  H   UNL     1       7.683  -5.206  28.173  0.00  0.00    +0.210 HD
ENDBRANCH   3  11
BRANCH   4  13
ATOM     13  O   UNL     1       6.788  -3.264  26.992  0.00  0.00    -0.365 OA
ATOM     14  H   UNL     1       6.120  -2.605  26.735  0.00  0.00    +0.213 HD
ENDBRANCH   4  13
TORSDOF 4
ENDMDL
MODEL 5
REMARK VINA RESULT:      -4.2      0.890      2.969
REMARK  Name = 
REMARK  4 active torsions:
REMARK  status: ('A' for Active; 'I' for Inactive)
REMARK    1  A    between atoms: O_1  and  C_2
REMARK    2  A    between atoms: C_6  and  O_8
REMARK    3  A    between atoms: C_9  and  O_11
REMARK    4  A    between atoms: C_12  and  O_14
REMARK                            x       y       z     vdW  Elec       q    Type
REMARK                         _______ _______ _______ _____ _____    ______ ____
ROOT
ATOM      1  C   UNL     1       9.774   0.122  24.454  0.00  0.00    +0.171 C 
ATOM      2  C   UNL     1       9.891   0.897  23.131  0.00  0.00    +0.178 C 
ATOM      3  C   UNL     1       8.846   0.385  22.126  0.00  0.00    +0.201 C 
ATOM      4  C   UNL     1       8.976  -1.149  21.989  0.00  0.00    +0.279 C 
ATOM      5  O   UNL     1       8.814  -1.791  23.246  0.00  0.00    -0.346 OA
ATOM      6  C   UNL     1       9.787  -1.382  24.209  0.00  0.00    +0.197 C 
ENDROOT
BRANCH   1   7
ATOM      7  O   UNL     1      10.835   0.459  25.352  0.00  0.00    -0.387 OA
ATOM      8  H   UNL     1      10.570   0.152  26.240  0.00  0.00    +0.210 HD
ENDBRANCH   1   7
BRANCH   2   9
ATOM      9  O   UNL     1       9.744   2.299  23.419  0.00  0.00    -0.386 OA
ATOM     10  H   UNL     1       8.794   2.518  23.383  0.00  0.00    +0.210 HD
ENDBRANCH   2   9
BRANCH   3  11
ATOM     11  O   UNL     1       8.977   1.076  20.878  0.00  0.00    -0.384 OA
ATOM     12  H   UNL     1       8.176   1.607  20.733  0.00  0.00    +0.210 HD
ENDBRANCH   3  11
BRANCH   4  13
ATOM     13  O   UNL     1      10.223  -1.503  21.414  0.00  0.00    -0.365 OA
ATOM     14  H   UNL     1      10.638  -0.663  21.154  0.00  0.00    +0.213 HD
ENDBRANCH   4  13
TORSDOF 4
ENDMDL
MODEL 6
REMARK VINA RESULT:      -4.2      0.992      3.635
REMARK  Name = 
REMARK  4 active torsions:
REMARK  status: ('A' for Active; 'I' for Inactive)
REMARK    1  A    between atoms: O_1  and  C_2
REMARK    2  A    between atoms: C_6  and  O_8
REMARK    3  A    between atoms: C_9  and  O_11
REMARK    4  A    between atoms: C_12  and  O_14
REMARK                            x       y       z     vdW  Elec       q    Type
REMARK                         _______ _______ _______ _____ _____    ______ ____
ROOT
ATOM      1  C   UNL     1      10.342   0.365  24.527  0.00  0.00    +0.171 C 
ATOM      2  C   UNL     1       9.692  -0.584  23.507  0.00  0.00    +0.178 C 
ATOM      3  C   UNL     1      10.084  -0.172  22.079  0.00  0.00    +0.201 C 
ATOM      4  C   UNL     1       9.755   1.323  21.868  0.00  0.00    +0.279 C 
ATOM      5  O   UNL     1      10.426   2.135  22.822  0.00  0.00    -0.346 OA
ATOM      6  C   UNL     1      10.068   1.822  24.169  0.00  0.00    +0.197 C 
ENDROOT
BRANCH   1   7
ATOM      7  O   UNL     1       9.869   0.111  25.852  0.00  0.00    -0.387 OA
ATOM      8  H   UNL     1       8.951   0.439  25.898  0.00  0.00    +0.210 HD
ENDBRANCH   1   7
BRANCH   2   9
ATOM      9  O   UNL     1      10.095  -1.928  23.827  0.00  0.00    -0.386 OA
ATOM     10  H   UNL     1       9.675  -2.178  24.672  0.00  0.00    +0.210 HD
ENDBRANCH   2   9
BRANCH   3  11
ATOM     11  O   UNL     1       9.448  -1.029  21.122  0.00  0.00    -0.384 OA
ATOM     12  H   UNL     1       9.581  -0.654  20.235  0.00  0.00    +0.210 HD
ENDBRANCH   3  11
BRANCH   4  13
ATOM     13  O   UNL     1       8.356   1.548  21.931  0.00  0.00    -0.365 OA
ATOM     14  H   UNL     1       8.030   0.968  22.640  0.00  0.00    +0.213 HD
ENDBRANCH   4  13
TORSDOF 4
ENDMDL
MODEL 7
REMARK VINA RESULT:      -4.2      4.958      6.441
REMARK  Name = 
REMARK  4 active torsions:
REMARK  status: ('A' for Active; 'I' for Inactive)
REMARK    1  A    between atoms: O_1  and  C_2
REMARK    2  A    between atoms: C_6  and  O_8
REMARK    3  A    between atoms: C_9  and  O_11
REMARK    4  A    between atoms: C_12  and  O_14
REMARK                            x       y       z     vdW  Elec       q    Type
REMARK                         _______ _______ _______ _____ _____    ______ ____
ROOT
ATOM      1  C   UNL     1       6.901  -4.211  24.380  0.00  0.00    +0.171 C 
ATOM      2  C   UNL     1       6.904  -5.280  25.485  0.00  0.00    +0.178 C 
ATOM      3  C   UNL     1       7.982  -4.954  26.532  0.00  0.00    +0.201 C 
ATOM      4  C   UNL     1       9.341  -4.756  25.823  0.00  0.00    +0.279 C 
ATOM      5  O   UNL     1       9.265  -3.724  24.849  0.00  0.00    -0.346 OA
ATOM      6  C   UNL     1       8.305  -3.994  23.826  0.00  0.00    +0.197 C 
ENDROOT
BRANCH   1   7
ATOM      7  O   UNL     1       6.025  -4.569  23.309  0.00  0.00    -0.387 OA
ATOM      8  H   UNL     1       5.239  -4.990  23.707  0.00  0.00    +0.210 HD
ENDBRANCH   1   7
BRANCH   2   9
ATOM      9  O   UNL     1       5.582  -5.343  26.051  0.00  0.00    -0.386 OA
ATOM     10  H   UNL     1       5.400  -4.491  26.492  0.00  0.00    +0.210 HD
ENDBRANCH   2   9
BRANCH   3  11
ATOM     11  O   UNL     1       8.016  -5.969  27.543  0.00  0.00    -0.384 OA
ATOM     12  H   UNL     1       8.853  -5.891  28.031  0.00  0.00    +0.210 HD
ENDBRANCH   3  11
BRANCH   4  13
ATOM     13  O   UNL     1       9.782  -5.963  25.225  0.00  0.00    -0.365 OA
ATOM     14  H   UNL     1      10.670  -6.125  25.587  0.00  0.00    +0.213 HD
ENDBRANCH   4  13
TORSDOF 4
ENDMDL
MODEL 8
REMARK VINA RESULT:      -4.1      1.628      3.391
REMARK  Name = 
REMARK  4 active torsions:
REMARK  status: ('A' for Active; 'I' for Inactive)
REMARK    1  A    between atoms: O_1  and  C_2
REMARK    2  A    between atoms: C_6  and  O_8
REMARK    3  A    between atoms: C_9  and  O_11
REMARK    4  A    between atoms: C_12  and  O_14
REMARK                            x       y       z     vdW  Elec       q    Type
REMARK                         _______ _______ _______ _____ _____    ______ ____
ROOT
ATOM      1  C   UNL     1       9.593   0.697  24.441  0.00  0.00    +0.171 C 
ATOM      2  C   UNL     1       9.293   2.189  24.226  0.00  0.00    +0.178 C 
ATOM      3  C   UNL     1       8.498   2.386  22.926  0.00  0.00    +0.201 C 
ATOM      4  C   UNL     1       9.248   1.705  21.759  0.00  0.00    +0.279 C 
ATOM      5  O   UNL     1       9.448   0.322  22.016  0.00  0.00    -0.346 OA
ATOM      6  C   UNL     1      10.218   0.081  23.194  0.00  0.00    +0.197 C 
ENDROOT
BRANCH   1   7
ATOM      7  O   UNL     1      10.470   0.495  25.553  0.00  0.00    -0.387 OA
ATOM      8  H   UNL     1      10.413   1.292  26.113  0.00  0.00    +0.210 HD
ENDBRANCH   1   7
BRANCH   2   9
ATOM      9  O   UNL     1       8.592   2.676  25.385  0.00  0.00    -0.386 OA
ATOM     10  H   UNL     1       8.812   2.096  26.139  0.00  0.00    +0.210 HD
ENDBRANCH   2   9
BRANCH   3  11
ATOM     11  O   UNL     1       8.250   3.779  22.700  0.00  0.00    -0.384 OA
ATOM     12  H   UNL     1       9.087   4.204  22.448  0.00  0.00    +0.210 HD
ENDBRANCH   3  11
BRANCH   4  13
ATOM     13  O   UNL     1      10.490   2.343  21.513  0.00  0.00    -0.365 OA
ATOM     14  H   UNL     1      11.158   1.637  21.552  0.00  0.00    +0.213 HD
ENDBRANCH   4  13
TORSDOF 4
ENDMDL
MODEL 9
REMARK VINA RESULT:      -4.1      0.973      2.896
REMARK  Name = 
REMARK  4 active torsions:
REMARK  status: ('A' for Active; 'I' for Inactive)
REMARK    1  A    between atoms: O_1  and  C_2
REMARK    2  A    between atoms: C_6  and  O_8
REMARK    3  A    between atoms: C_9  and  O_11
REMARK    4  A    between atoms: C_12  and  O_14
REMARK                            x       y       z     vdW  Elec       q    Type
REMARK                         _______ _______ _______ _____ _____    ______ ____
ROOT
ATOM      1  C   UNL     1       9.499  -0.671  22.293  0.00  0.00    +0.171 C 
ATOM      2  C   UNL     1      10.019  -0.809  23.733  0.00  0.00    +0.178 C 
ATOM      3  C   UNL     1       9.375   0.260  24.631  0.00  0.00    +0.201 C 
ATOM      4  C   UNL     1       9.586   1.655  24.000  0.00  0.00    +0.279 C 
ATOM      5  O   UNL     1       9.042   1.712  22.688  0.00  0.00    -0.346 OA
ATOM      6  C   UNL     1       9.634   0.765  21.798  0.00  0.00    +0.197 C 
ENDROOT
BRANCH   1   7
ATOM      7  O   UNL     1      10.198  -1.542  21.399  0.00  0.00    -0.387 OA
ATOM      8  H   UNL     1      11.152  -1.427  21.573  0.00  0.00    +0.210 HD
ENDBRANCH   1   7
BRANCH   2   9
ATOM      9  O   UNL     1       9.746  -2.148  24.182  0.00  0.00    -0.386 OA
ATOM     10  H   UNL     1       9.232  -2.092  25.009  0.00  0.00    +0.210 HD
ENDBRANCH   2   9
BRANCH   3  11
ATOM     11  O   UNL     1       9.887   0.162  25.966  0.00  0.00    -0.384 OA
ATOM     12  H   UNL     1      10.477   0.918  26.126  0.00  0.00    +0.210 HD
ENDBRANCH   3  11
BRANCH   4  13
ATOM     13  O   UNL     1      10.963   1.997  23.974  0.00  0.00    -0.365 OA
ATOM     14  H   UNL     1      11.412   1.238  23.563  0.00  0.00    +0.213 HD
ENDBRANCH   4  13
TORSDOF 4
ENDMDL
