MODEL 1
REMARK VINA RESULT:      -7.0      0.000      0.000
REMARK  Name = 
REMARK  21 active torsions:
REMARK  status: ('A' for Active; 'I' for Inactive)
REMARK    1  A    between atoms: C_1  and  C_2
REMARK    2  A    between atoms: C_2  and  C_3
REMARK    3  A    between atoms: C_3  and  C_5
REMARK    4  A    between atoms: C_5  and  C_7
REMARK    5  A    between atoms: C_5  and  C_8
REMARK    6  A    between atoms: N_11  and  C_17
REMARK    7  A    between atoms: C_13  and  C_14
REMARK    8  A    between atoms: C_20  and  C_22
REMARK    9  A    between atoms: C_22  and  O_23
REMARK   10  A    between atoms: O_23  and  P_24
REMARK   11  A    between atoms: P_24  and  O_27
REMARK   12  A    between atoms: O_27  and  P_28
REMARK   13  A    between atoms: P_28  and  O_29
REMARK   14  A    between atoms: P_28  and  O_31
REMARK   15  A    between atoms: O_31  and  C_32
REMARK   16  A    between atoms: C_32  and  C_33
REMARK   17  A    between atoms: C_36  and  N_44
REMARK   18  A    between atoms: C_38  and  O_40
REMARK   19  A    between atoms: C_41  and  O_43
REMARK   20  A    between atoms: C_54  and  O_56
REMARK   21  A    between atoms: C_57  and  O_59
REMARK                            x       y       z     vdW  Elec       q    Type
REMARK                         _______ _______ _______ _____ _____    ______ ____
ROOT
ATOM      1  P   UNL     1       6.538  -4.887  22.451  0.00  0.00    +0.222 P 
ATOM      2  O   UNL     1       7.846  -5.615  22.301  0.00  0.00    -0.437 OA
ATOM      3  O   UNL     1       5.700  -4.437  21.291  0.00  0.00    -0.517 OA
ENDROOT
BRANCH   1   4
ATOM      4  O   UNL     1       5.640  -5.659  23.536  0.00  0.00    -0.229 OA
BRANCH   4   5
ATOM      5  P   UNL     1       4.067  -5.531  23.660  0.00  0.00    +0.480 P 
ATOM      6  O   UNL     1       3.163  -6.092  22.618  0.00  0.00    -0.227 OA
BRANCH   5   7
ATOM      7  O   UNL     1       3.813  -3.947  23.797  0.00  0.00    -0.302 OA
ATOM      8  H   UNL     1       3.536  -3.791  24.717  0.00  0.00    +0.222 HD
ENDBRANCH   5   7
BRANCH   5   9
ATOM      9  O   UNL     1       3.653  -6.011  25.159  0.00  0.00    -0.284 OA
BRANCH   9  10
ATOM     10  C   UNL     1       4.770  -6.537  25.866  0.00  0.00    +0.206 C 
BRANCH  10  11
ATOM     11  C   UNL     1       4.964  -5.996  27.283  0.00  0.00    +0.178 C 
ATOM     12  C   UNL     1       6.458  -5.708  27.492  0.00  0.00    +0.178 C 
ATOM     13  C   UNL     1       6.605  -4.201  27.255  0.00  0.00    +0.195 C 
ATOM     14  C   UNL     1       5.177  -3.717  26.971  0.00  0.00    +0.253 C 
ATOM     15  O   UNL     1       4.295  -4.737  27.469  0.00  0.00    -0.346 OA
BRANCH  14  16
ATOM     16  N   UNL     1       4.885  -2.455  27.623  0.00  0.00    -0.286 N 
ATOM     17  C   UNL     1       5.441  -1.251  27.276  0.00  0.00    +0.167 A 
ATOM     18  N   UNL     1       6.294  -0.995  26.266  0.00  0.00    -0.216 NA
ATOM     19  C   UNL     1       6.620   0.317  26.246  0.00  0.00    +0.225 A 
ATOM     20  N   UNL     1       6.237   1.294  27.098  0.00  0.00    -0.219 NA
ATOM     21  C   UNL     1       5.412   0.968  28.119  0.00  0.00    +0.147 A 
ATOM     22  N   UNL     1       5.045   1.958  29.023  0.00  0.00    -0.341 N 
ATOM     23  H   UNL     1       4.199   1.734  29.534  0.00  0.00    +0.144 HD
ATOM     24  H   UNL     1       5.130   2.886  28.632  0.00  0.00    +0.144 HD
ATOM     25  C   UNL     1       4.957  -0.356  28.216  0.00  0.00    +0.147 A 
ATOM     26  N   UNL     1       4.096  -0.983  29.093  0.00  0.00    -0.231 NA
ATOM     27  C   UNL     1       4.063  -2.238  28.693  0.00  0.00    +0.203 A 
ENDBRANCH  14  16
BRANCH  13  28
ATOM     28  O   UNL     1       7.471  -3.937  26.148  0.00  0.00    -0.385 OA
ATOM     29  H   UNL     1       7.113  -4.432  25.382  0.00  0.00    +0.210 HD
ENDBRANCH  13  28
BRANCH  12  30
ATOM     30  O   UNL     1       6.851  -6.051  28.826  0.00  0.00    -0.386 OA
ATOM     31  H   UNL     1       7.065  -5.233  29.306  0.00  0.00    +0.210 HD
ENDBRANCH  12  30
ENDBRANCH  10  11
ENDBRANCH   9  10
ENDBRANCH   5   9
ENDBRANCH   4   5
ENDBRANCH   1   4
BRANCH   1  32
ATOM     32  O   UNL     1       6.896  -3.518  23.253  0.00  0.00    -0.324 OA
BRANCH  32  33
ATOM     33  C   UNL     1       6.516  -2.293  22.683  0.00  0.00    +0.202 C 
BRANCH  33  37
ATOM     34  C   UNL     1       9.208   0.056  22.083  0.00  0.00    +0.439 C 
ATOM     35  C   UNL     1      10.000  -1.031  22.816  0.00  0.00    +0.244 C 
ATOM     36  C   UNL     1       8.922  -1.919  23.457  0.00  0.00    +0.183 C 
ATOM     37  C   UNL     1       7.600  -1.290  22.998  0.00  0.00    +0.182 C 
ATOM     38  O   UNL     1       7.897  -0.466  21.863  0.00  0.00    -0.309 OA
BRANCH  34  42
ATOM     39  C   UNL     1       9.111   3.947  23.832  0.00  0.00    -0.014 A 
ATOM     40  C   UNL     1       8.079   3.519  22.978  0.00  0.00    +0.104 A 
ATOM     41  C   UNL     1       8.067   2.206  22.541  0.00  0.00    +0.325 A 
ATOM     42  N   UNL     1       9.070   1.346  22.821  0.00  0.00    -0.173 N 
ATOM     43  C   UNL     1      10.072   1.727  23.646  0.00  0.00    +0.312 A 
ATOM     44  C   UNL     1      10.096   3.012  24.187  0.00  0.00    +0.075 A 
BRANCH  40  45
ATOM     45  C   UNL     1       7.003   4.392  22.431  0.00  0.00    +0.248 C 
ATOM     46  O   UNL     1       5.836   4.173  22.674  0.00  0.00    -0.270 OA
ATOM     47  N   UNL     1       7.383   5.445  21.648  0.00  0.00    -0.325 N 
ATOM     48  H   UNL     1       6.640   6.078  21.369  0.00  0.00    +0.145 HD
ATOM     49  H   UNL     1       8.308   5.861  21.650  0.00  0.00    +0.145 HD
ENDBRANCH  40  45
BRANCH  39  50
ATOM     50  C   UNL     1       9.309   5.409  24.232  0.00  0.00    +0.083 C 
ATOM     51  C   UNL     1      10.691   5.930  23.845  0.00  0.00    +0.020 C 
BRANCH  50  52
ATOM     52  C   UNL     1       8.833   5.619  25.680  0.00  0.00    +0.140 C 
ATOM     53  O   UNL     1       9.501   6.340  26.433  0.00  0.00    -0.297 OA
BRANCH  52  55
ATOM     54  C   UNL     1       6.346   5.674  25.918  0.00  0.00    +0.012 C 
ATOM     55  C   UNL     1       7.614   4.877  26.178  0.00  0.00    +0.071 C 
ENDBRANCH  52  55
ENDBRANCH  50  52
ENDBRANCH  39  50
ENDBRANCH  34  42
BRANCH  36  56
ATOM     56  O   UNL     1       9.023  -1.841  24.880  0.00  0.00    -0.386 OA
ATOM     57  H   UNL     1       9.736  -1.188  25.073  0.00  0.00    +0.210 HD
ENDBRANCH  36  56
BRANCH  35  58
ATOM     58  O   UNL     1      10.813  -1.752  21.878  0.00  0.00    -0.380 OA
ATOM     59  H   UNL     1      11.475  -2.290  22.351  0.00  0.00    +0.210 HD
ENDBRANCH  35  58
ENDBRANCH  33  37
ENDBRANCH  32  33
ENDBRANCH   1  32
TORSDOF 19
ENDMDL
MODEL 2
REMARK VINA RESULT:      -7.0      2.611      8.463
REMARK  Name = 
REMARK  21 active torsions:
REMARK  status: ('A' for Active; 'I' for Inactive)
REMARK    1  A    between atoms: C_1  and  C_2
REMARK    2  A    between atoms: C_2  and  C_3
REMARK    3  A    between atoms: C_3  and  C_5
REMARK    4  A    between atoms: C_5  and  C_7
REMARK    5  A    between atoms: C_5  and  C_8
REMARK    6  A    between atoms: N_11  and  C_17
REMARK    7  A    between atoms: C_13  and  C_14
REMARK    8  A    between atoms: C_20  and  C_22
REMARK    9  A    between atoms: C_22  and  O_23
REMARK   10  A    between atoms: O_23  and  P_24
REMARK   11  A    between atoms: P_24  and  O_27
REMARK   12  A    between atoms: O_27  and  P_28
REMARK   13  A    between atoms: P_28  and  O_29
REMARK   14  A    between atoms: P_28  and  O_31
REMARK   15  A    between atoms: O_31  and  C_32
REMARK   16  A    between atoms: C_32  and  C_33
REMARK   17  A    between atoms: C_36  and  N_44
REMARK   18  A    between atoms: C_38  and  O_40
REMARK   19  A    between atoms: C_41  and  O_43
REMARK   20  A    between atoms: C_54  and  O_56
REMARK   21  A    between atoms: C_57  and  O_59
REMARK                            x       y       z     vdW  Elec       q    Type
REMARK                         _______ _______ _______ _____ _____    ______ ____
ROOT
ATOM      1  P   UNL     1       9.725  -0.828  22.076  0.00  0.00    +0.222 P 
ATOM      2  O   UNL     1       9.009  -0.759  20.755  0.00  0.00    -0.437 OA
ATOM      3  O   UNL     1      11.019  -1.560  22.282  0.00  0.00    -0.517 OA
ENDROOT
BRANCH   1   4
ATOM      4  O   UNL     1       9.802   0.650  22.698  0.00  0.00    -0.229 OA
BRANCH   4   5
ATOM      5  P   UNL     1      10.313   0.988  24.159  0.00  0.00    +0.480 P 
ATOM      6  O   UNL     1      11.738   0.793  24.541  0.00  0.00    -0.227 OA
BRANCH   5   7
ATOM      7  O   UNL     1       9.371   0.102  25.118  0.00  0.00    -0.302 OA
ATOM      8  H   UNL     1       8.488   0.509  25.089  0.00  0.00    +0.222 HD
ENDBRANCH   5   7
BRANCH   5   9
ATOM      9  O   UNL     1       9.772   2.477  24.535  0.00  0.00    -0.284 OA
BRANCH   9  10
ATOM     10  C   UNL     1       9.203   3.127  23.404  0.00  0.00    +0.206 C 
BRANCH  10  11
ATOM     11  C   UNL     1       7.760   3.601  23.576  0.00  0.00    +0.178 C 
ATOM     12  C   UNL     1       6.901   2.951  22.482  0.00  0.00    +0.178 C 
ATOM     13  C   UNL     1       6.238   1.750  23.166  0.00  0.00    +0.195 C 
ATOM     14  C   UNL     1       6.723   1.820  24.619  0.00  0.00    +0.253 C 
ATOM     15  O   UNL     1       7.200   3.160  24.825  0.00  0.00    -0.346 OA
BRANCH  14  16
ATOM     16  N   UNL     1       5.665   1.524  25.567  0.00  0.00    -0.286 N 
ATOM     17  C   UNL     1       5.232   0.264  25.883  0.00  0.00    +0.167 A 
ATOM     18  N   UNL     1       5.716  -0.912  25.441  0.00  0.00    -0.216 NA
ATOM     19  C   UNL     1       5.023  -1.941  25.981  0.00  0.00    +0.225 A 
ATOM     20  N   UNL     1       3.958  -1.894  26.812  0.00  0.00    -0.219 NA
ATOM     21  C   UNL     1       3.490  -0.683  27.189  0.00  0.00    +0.147 A 
ATOM     22  N   UNL     1       2.371  -0.627  28.012  0.00  0.00    -0.341 N 
ATOM     23  H   UNL     1       2.287   0.254  28.507  0.00  0.00    +0.144 HD
ATOM     24  H   UNL     1       2.237  -1.479  28.538  0.00  0.00    +0.144 HD
ATOM     25  C   UNL     1       4.161   0.464  26.738  0.00  0.00    +0.147 A 
ATOM     26  N   UNL     1       3.965   1.810  26.973  0.00  0.00    -0.231 NA
ATOM     27  C   UNL     1       4.900   2.414  26.268  0.00  0.00    +0.203 A 
ENDBRANCH  14  16
BRANCH  13  28
ATOM     28  O   UNL     1       6.630   0.523  22.546  0.00  0.00    -0.385 OA
ATOM     29  H   UNL     1       7.349   0.741  21.916  0.00  0.00    +0.210 HD
ENDBRANCH  13  28
BRANCH  12  30
ATOM     30  O   UNL     1       5.914   3.872  22.007  0.00  0.00    -0.386 OA
ATOM     31  H   UNL     1       5.130   3.371  21.728  0.00  0.00    +0.210 HD
ENDBRANCH  12  30
ENDBRANCH  10  11
ENDBRANCH   9  10
ENDBRANCH   5   9
ENDBRANCH   4   5
ENDBRANCH   1   4
BRANCH   1  32
ATOM     32  O   UNL     1       8.681  -1.547  23.096  0.00  0.00    -0.324 OA
BRANCH  32  33
ATOM     33  C   UNL     1       8.801  -2.929  23.307  0.00  0.00    +0.202 C 
BRANCH  33  37
ATOM     34  C   UNL     1       6.149  -5.391  23.475  0.00  0.00    +0.439 C 
ATOM     35  C   UNL     1       5.665  -4.602  22.254  0.00  0.00    +0.244 C 
ATOM     36  C   UNL     1       6.489  -3.306  22.289  0.00  0.00    +0.183 C 
ATOM     37  C   UNL     1       7.410  -3.482  23.504  0.00  0.00    +0.182 C 
ATOM     38  O   UNL     1       7.441  -4.882  23.809  0.00  0.00    -0.309 OA
BRANCH  34  42
ATOM     39  C   UNL     1       3.560  -5.556  26.864  0.00  0.00    -0.014 A 
ATOM     40  C   UNL     1       4.948  -5.737  27.012  0.00  0.00    +0.104 A 
ATOM     41  C   UNL     1       5.773  -5.538  25.919  0.00  0.00    +0.325 A 
ATOM     42  N   UNL     1       5.285  -5.277  24.687  0.00  0.00    -0.173 N 
ATOM     43  C   UNL     1       3.956  -5.090  24.516  0.00  0.00    +0.312 A 
ATOM     44  C   UNL     1       3.080  -5.194  25.595  0.00  0.00    +0.075 A 
BRANCH  40  45
ATOM     45  C   UNL     1       5.622  -6.201  28.255  0.00  0.00    +0.248 C 
ATOM     46  O   UNL     1       6.236  -5.429  28.960  0.00  0.00    -0.270 OA
ATOM     47  N   UNL     1       5.523  -7.527  28.569  0.00  0.00    -0.325 N 
ATOM     48  H   UNL     1       5.908  -7.799  29.468  0.00  0.00    +0.145 HD
ATOM     49  H   UNL     1       4.804  -8.150  28.217  0.00  0.00    +0.145 HD
ENDBRANCH  40  45
BRANCH  39  50
ATOM     50  C   UNL     1       2.553  -5.913  27.956  0.00  0.00    +0.083 C 
ATOM     51  C   UNL     1       1.371  -6.712  27.411  0.00  0.00    +0.020 C 
BRANCH  50  52
ATOM     52  C   UNL     1       2.255  -4.670  28.813  0.00  0.00    +0.140 C 
ATOM     53  O   UNL     1       1.547  -3.771  28.340  0.00  0.00    -0.297 OA
BRANCH  52  55
ATOM     54  C   UNL     1       3.753  -3.277  30.248  0.00  0.00    +0.012 C 
ATOM     55  C   UNL     1       2.898  -4.532  30.174  0.00  0.00    +0.071 C 
ENDBRANCH  52  55
ENDBRANCH  50  52
ENDBRANCH  39  50
ENDBRANCH  34  42
BRANCH  36  56
ATOM     56  O   UNL     1       5.619  -2.193  22.503  0.00  0.00    -0.386 OA
ATOM     57  H   UNL     1       6.027  -1.656  23.221  0.00  0.00    +0.210 HD
ENDBRANCH  36  56
BRANCH  35  58
ATOM     58  O   UNL     1       5.900  -5.366  21.062  0.00  0.00    -0.380 OA
ATOM     59  H   UNL     1       6.859  -5.457  20.905  0.00  0.00    +0.210 HD
ENDBRANCH  35  58
ENDBRANCH  33  37
ENDBRANCH  32  33
ENDBRANCH   1  32
TORSDOF 19
ENDMDL
MODEL 3
REMARK VINA RESULT:      -6.9      3.494      7.952
REMARK  Name = 
REMARK  21 active torsions:
REMARK  status: ('A' for Active; 'I' for Inactive)
REMARK    1  A    between atoms: C_1  and  C_2
REMARK    2  A    between atoms: C_2  and  C_3
REMARK    3  A    between atoms: C_3  and  C_5
REMARK    4  A    between atoms: C_5  and  C_7
REMARK    5  A    between atoms: C_5  and  C_8
REMARK    6  A    between atoms: N_11  and  C_17
REMARK    7  A    between atoms: C_13  and  C_14
REMARK    8  A    between atoms: C_20  and  C_22
REMARK    9  A    between atoms: C_22  and  O_23
REMARK   10  A    between atoms: O_23  and  P_24
REMARK   11  A    between atoms: P_24  and  O_27
REMARK   12  A    between atoms: O_27  and  P_28
REMARK   13  A    between atoms: P_28  and  O_29
REMARK   14  A    between atoms: P_28  and  O_31
REMARK   15  A    between atoms: O_31  and  C_32
REMARK   16  A    between atoms: C_32  and  C_33
REMARK   17  A    between atoms: C_36  and  N_44
REMARK   18  A    between atoms: C_38  and  O_40
REMARK   19  A    between atoms: C_41  and  O_43
REMARK   20  A    between atoms: C_54  and  O_56
REMARK   21  A    between atoms: C_57  and  O_59
REMARK                            x       y       z     vdW  Elec       q    Type
REMARK                         _______ _______ _______ _____ _____    ______ ____
ROOT
ATOM      1  P   UNL     1       7.728   4.108  23.008  0.00  0.00    +0.222 P 
ATOM      2  O   UNL     1       7.220   4.991  21.901  0.00  0.00    -0.437 OA
ATOM      3  O   UNL     1       9.183   3.920  23.319  0.00  0.00    -0.517 OA
ENDROOT
BRANCH   1   4
ATOM      4  O   UNL     1       6.897   4.430  24.345  0.00  0.00    -0.229 OA
BRANCH   4   5
ATOM      5  P   UNL     1       7.407   4.136  25.815  0.00  0.00    +0.480 P 
ATOM      6  O   UNL     1       8.211   5.139  26.567  0.00  0.00    -0.227 OA
BRANCH   5   7
ATOM      7  O   UNL     1       8.247   2.770  25.673  0.00  0.00    -0.302 OA
ATOM      8  H   UNL     1       8.900   2.771  26.394  0.00  0.00    +0.222 HD
ENDBRANCH   5   7
BRANCH   5   9
ATOM      9  O   UNL     1       6.136   3.594  26.676  0.00  0.00    -0.284 OA
BRANCH   9  10
ATOM     10  C   UNL     1       5.825   2.243  26.352  0.00  0.00    +0.206 C 
BRANCH  10  11
ATOM     11  C   UNL     1       5.661   1.302  27.545  0.00  0.00    +0.178 C 
ATOM     12  C   UNL     1       4.224   1.431  28.071  0.00  0.00    +0.178 C 
ATOM     13  C   UNL     1       3.473   0.246  27.457  0.00  0.00    +0.195 C 
ATOM     14  C   UNL     1       4.540  -0.512  26.656  0.00  0.00    +0.253 C 
ATOM     15  O   UNL     1       5.812  -0.076  27.162  0.00  0.00    -0.346 OA
BRANCH  14  16
ATOM     16  N   UNL     1       4.420  -1.950  26.805  0.00  0.00    -0.286 N 
ATOM     17  C   UNL     1       3.325  -2.683  26.430  0.00  0.00    +0.167 A 
ATOM     18  N   UNL     1       2.205  -2.246  25.823  0.00  0.00    -0.216 NA
ATOM     19  C   UNL     1       1.349  -3.273  25.617  0.00  0.00    +0.225 A 
ATOM     20  N   UNL     1       1.487  -4.570  25.973  0.00  0.00    -0.219 NA
ATOM     21  C   UNL     1       2.616  -4.941  26.619  0.00  0.00    +0.147 A 
ATOM     22  N   UNL     1       2.747  -6.264  27.025  0.00  0.00    -0.341 N 
ATOM     23  H   UNL     1       3.711  -6.535  27.187  0.00  0.00    +0.144 HD
ATOM     24  H   UNL     1       2.164  -6.891  26.488  0.00  0.00    +0.144 HD
ATOM     25  C   UNL     1       3.608  -3.975  26.843  0.00  0.00    +0.147 A 
ATOM     26  N   UNL     1       4.860  -4.042  27.420  0.00  0.00    -0.231 NA
ATOM     27  C   UNL     1       5.324  -2.810  27.362  0.00  0.00    +0.203 A 
ENDBRANCH  14  16
BRANCH  13  28
ATOM     28  O   UNL     1       2.410   0.692  26.611  0.00  0.00    -0.385 OA
ATOM     29  H   UNL     1       2.827   1.075  25.810  0.00  0.00    +0.210 HD
ENDBRANCH  13  28
BRANCH  12  30
ATOM     30  O   UNL     1       4.207   1.356  29.501  0.00  0.00    -0.386 OA
ATOM     31  H   UNL     1       3.282   1.350  29.800  0.00  0.00    +0.210 HD
ENDBRANCH  12  30
ENDBRANCH  10  11
ENDBRANCH   9  10
ENDBRANCH   5   9
ENDBRANCH   4   5
ENDBRANCH   1   4
BRANCH   1  32
ATOM     32  O   UNL     1       7.188   2.615  22.651  0.00  0.00    -0.324 OA
BRANCH  32  33
ATOM     33  C   UNL     1       8.014   1.773  21.891  0.00  0.00    +0.202 C 
BRANCH  33  37
ATOM     34  C   UNL     1       8.190  -0.379  24.799  0.00  0.00    +0.439 C 
ATOM     35  C   UNL     1       9.680  -0.330  24.449  0.00  0.00    +0.244 C 
ATOM     36  C   UNL     1       9.716   0.243  23.024  0.00  0.00    +0.183 C 
ATOM     37  C   UNL     1       8.243   0.515  22.694  0.00  0.00    +0.182 C 
ATOM     38  O   UNL     1       7.533   0.552  23.939  0.00  0.00    -0.309 OA
BRANCH  34  42
ATOM     39  C   UNL     1       6.605  -4.225  23.847  0.00  0.00    -0.014 A 
ATOM     40  C   UNL     1       7.687  -4.095  24.737  0.00  0.00    +0.104 A 
ATOM     41  C   UNL     1       8.084  -2.831  25.133  0.00  0.00    +0.325 A 
ATOM     42  N   UNL     1       7.539  -1.709  24.616  0.00  0.00    -0.173 N 
ATOM     43  C   UNL     1       6.492  -1.803  23.763  0.00  0.00    +0.312 A 
ATOM     44  C   UNL     1       5.990  -3.049  23.390  0.00  0.00    +0.075 A 
BRANCH  40  45
ATOM     45  C   UNL     1       8.509  -5.224  25.254  0.00  0.00    +0.248 C 
ATOM     46  O   UNL     1       9.410  -5.696  24.595  0.00  0.00    -0.270 OA
ATOM     47  N   UNL     1       8.208  -5.706  26.497  0.00  0.00    -0.325 N 
ATOM     48  H   UNL     1       8.843  -6.407  26.864  0.00  0.00    +0.145 HD
ATOM     49  H   UNL     1       7.699  -5.190  27.207  0.00  0.00    +0.145 HD
ENDBRANCH  40  45
BRANCH  39  50
ATOM     50  C   UNL     1       6.199  -5.558  23.219  0.00  0.00    +0.083 C 
ATOM     51  C   UNL     1       6.343  -5.546  21.698  0.00  0.00    +0.020 C 
BRANCH  50  52
ATOM     52  C   UNL     1       4.861  -6.026  23.817  0.00  0.00    +0.140 C 
ATOM     53  O   UNL     1       4.873  -6.800  24.784  0.00  0.00    -0.297 OA
BRANCH  52  55
ATOM     54  C   UNL     1       2.532  -6.717  23.227  0.00  0.00    +0.012 C 
ATOM     55  C   UNL     1       3.565  -5.602  23.165  0.00  0.00    +0.071 C 
ENDBRANCH  52  55
ENDBRANCH  50  52
ENDBRANCH  39  50
ENDBRANCH  34  42
BRANCH  36  56
ATOM     56  O   UNL     1      10.235  -0.742  22.128  0.00  0.00    -0.386 OA
ATOM     57  H   UNL     1       9.473  -1.053  21.586  0.00  0.00    +0.210 HD
ENDBRANCH  36  56
BRANCH  35  58
ATOM     58  O   UNL     1      10.370   0.507  25.390  0.00  0.00    -0.380 OA
ATOM     59  H   UNL     1      10.350   0.101  26.278  0.00  0.00    +0.210 HD
ENDBRANCH  35  58
ENDBRANCH  33  37
ENDBRANCH  32  33
ENDBRANCH   1  32
TORSDOF 19
ENDMDL
MODEL 4
REMARK VINA RESULT:      -6.9      1.865      3.094
REMARK  Name = 
REMARK  21 active torsions:
REMARK  status: ('A' for Active; 'I' for Inactive)
REMARK    1  A    between atoms: C_1  and  C_2
REMARK    2  A    between atoms: C_2  and  C_3
REMARK    3  A    between atoms: C_3  and  C_5
REMARK    4  A    between atoms: C_5  and  C_7
REMARK    5  A    between atoms: C_5  and  C_8
REMARK    6  A    between atoms: N_11  and  C_17
REMARK    7  A    between atoms: C_13  and  C_14
REMARK    8  A    between atoms: C_20  and  C_22
REMARK    9  A    between atoms: C_22  and  O_23
REMARK   10  A    between atoms: O_23  and  P_24
REMARK   11  A    between atoms: P_24  and  O_27
REMARK   12  A    between atoms: O_27  and  P_28
REMARK   13  A    between atoms: P_28  and  O_29
REMARK   14  A    between atoms: P_28  and  O_31
REMARK   15  A    between atoms: O_31  and  C_32
REMARK   16  A    between atoms: C_32  and  C_33
REMARK   17  A    between atoms: C_36  and  N_44
REMARK   18  A    between atoms: C_38  and  O_40
REMARK   19  A    between atoms: C_41  and  O_43
REMARK   20  A    between atoms: C_54  and  O_56
REMARK   21  A    between atoms: C_57  and  O_59
REMARK                            x       y       z     vdW  Elec       q    Type
REMARK                         _______ _______ _______ _____ _____    ______ ____
ROOT
ATOM      1  P   UNL     1       8.908  -4.047  25.064  0.00  0.00    +0.222 P 
ATOM      2  O   UNL     1       9.120  -4.463  26.494  0.00  0.00    -0.437 OA
ATOM      3  O   UNL     1      10.028  -3.754  24.109  0.00  0.00    -0.517 OA
ENDROOT
BRANCH   1   4
ATOM      4  O   UNL     1       7.833  -5.035  24.394  0.00  0.00    -0.229 OA
BRANCH   4   5
ATOM      5  P   UNL     1       7.221  -4.852  22.945  0.00  0.00    +0.480 P 
ATOM      6  O   UNL     1       7.601  -5.760  21.828  0.00  0.00    -0.227 OA
BRANCH   5   7
ATOM      7  O   UNL     1       7.587  -3.334  22.553  0.00  0.00    -0.302 OA
ATOM      8  H   UNL     1       7.652  -3.307  21.583  0.00  0.00    +0.222 HD
ENDBRANCH   5   7
BRANCH   5   9
ATOM      9  O   UNL     1       5.607  -4.717  23.107  0.00  0.00    -0.284 OA
BRANCH   9  10
ATOM     10  C   UNL     1       5.011  -5.963  23.449  0.00  0.00    +0.206 C 
BRANCH  10  11
ATOM     11  C   UNL     1       4.005  -5.917  24.599  0.00  0.00    +0.178 C 
ATOM     12  C   UNL     1       4.529  -6.802  25.739  0.00  0.00    +0.178 C 
ATOM     13  C   UNL     1       5.192  -5.828  26.720  0.00  0.00    +0.195 C 
ATOM     14  C   UNL     1       4.964  -4.444  26.099  0.00  0.00    +0.253 C 
ATOM     15  O   UNL     1       3.892  -4.594  25.154  0.00  0.00    -0.346 OA
BRANCH  14  16
ATOM     16  N   UNL     1       4.605  -3.449  27.093  0.00  0.00    -0.286 N 
ATOM     17  C   UNL     1       4.668  -2.095  26.898  0.00  0.00    +0.167 A 
ATOM     18  N   UNL     1       5.007  -1.436  25.774  0.00  0.00    -0.216 NA
ATOM     19  C   UNL     1       4.951  -0.100  25.975  0.00  0.00    +0.225 A 
ATOM     20  N   UNL     1       4.655   0.569  27.112  0.00  0.00    -0.219 NA
ATOM     21  C   UNL     1       4.363  -0.147  28.221  0.00  0.00    +0.147 A 
ATOM     22  N   UNL     1       4.097   0.533  29.403  0.00  0.00    -0.341 N 
ATOM     23  H   UNL     1       3.578  -0.023  30.073  0.00  0.00    +0.144 HD
ATOM     24  H   UNL     1       3.792   1.483  29.241  0.00  0.00    +0.144 HD
ATOM     25  C   UNL     1       4.334  -1.547  28.125  0.00  0.00    +0.147 A 
ATOM     26  N   UNL     1       4.036  -2.536  29.040  0.00  0.00    -0.231 NA
ATOM     27  C   UNL     1       4.191  -3.665  28.378  0.00  0.00    +0.203 A 
ENDBRANCH  14  16
BRANCH  13  28
ATOM     28  O   UNL     1       6.588  -6.109  26.860  0.00  0.00    -0.385 OA
ATOM     29  H   UNL     1       6.834  -6.700  26.117  0.00  0.00    +0.210 HD
ENDBRANCH  13  28
BRANCH  12  30
ATOM     30  O   UNL     1       3.448  -7.497  26.370  0.00  0.00    -0.386 OA
ATOM     31  H   UNL     1       3.464  -7.298  27.321  0.00  0.00    +0.210 HD
ENDBRANCH  12  30
ENDBRANCH  10  11
ENDBRANCH   9  10
ENDBRANCH   5   9
ENDBRANCH   4   5
ENDBRANCH   1   4
BRANCH   1  32
ATOM     32  O   UNL     1       8.060  -2.660  25.139  0.00  0.00    -0.324 OA
BRANCH  32  33
ATOM     33  C   UNL     1       8.646  -1.555  25.775  0.00  0.00    +0.202 C 
BRANCH  33  37
ATOM     34  C   UNL     1       8.192   0.167  22.621  0.00  0.00    +0.439 C 
ATOM     35  C   UNL     1       9.723   0.124  22.650  0.00  0.00    +0.244 C 
ATOM     36  C   UNL     1      10.064  -0.246  24.101  0.00  0.00    +0.183 C 
ATOM     37  C   UNL     1       8.696  -0.428  24.772  0.00  0.00    +0.182 C 
ATOM     38  O   UNL     1       7.736  -0.616  23.724  0.00  0.00    -0.309 OA
BRANCH  34  42
ATOM     39  C   UNL     1       6.488   3.983  23.490  0.00  0.00    -0.014 A 
ATOM     40  C   UNL     1       7.873   3.846  23.281  0.00  0.00    +0.104 A 
ATOM     41  C   UNL     1       8.373   2.626  22.864  0.00  0.00    +0.325 A 
ATOM     42  N   UNL     1       7.594   1.529  22.748  0.00  0.00    -0.173 N 
ATOM     43  C   UNL     1       6.258   1.631  22.935  0.00  0.00    +0.312 A 
ATOM     44  C   UNL     1       5.680   2.854  23.276  0.00  0.00    +0.075 A 
BRANCH  40  45
ATOM     45  C   UNL     1       8.885   4.907  23.541  0.00  0.00    +0.248 C 
ATOM     46  O   UNL     1       9.653   4.823  24.475  0.00  0.00    -0.270 OA
ATOM     47  N   UNL     1       8.914   5.974  22.688  0.00  0.00    -0.325 N 
ATOM     48  H   UNL     1       9.674   6.632  22.829  0.00  0.00    +0.145 HD
ATOM     49  H   UNL     1       8.534   5.970  21.748  0.00  0.00    +0.145 HD
ENDBRANCH  40  45
BRANCH  39  50
ATOM     50  C   UNL     1       5.858   5.229  24.110  0.00  0.00    +0.083 C 
ATOM     51  C   UNL     1       5.016   4.897  25.341  0.00  0.00    +0.020 C 
BRANCH  50  52
ATOM     52  C   UNL     1       5.222   6.091  23.006  0.00  0.00    +0.140 C 
ATOM     53  O   UNL     1       5.954   6.613  22.155  0.00  0.00    -0.297 OA
BRANCH  52  55
ATOM     54  C   UNL     1       3.004   5.459  22.042  0.00  0.00    +0.012 C 
ATOM     55  C   UNL     1       3.733   6.355  23.032  0.00  0.00    +0.071 C 
ENDBRANCH  52  55
ENDBRANCH  50  52
ENDBRANCH  39  50
ENDBRANCH  34  42
BRANCH  36  56
ATOM     56  O   UNL     1      10.762   0.837  24.718  0.00  0.00    -0.386 OA
ATOM     57  H   UNL     1      11.060   1.428  23.989  0.00  0.00    +0.210 HD
ENDBRANCH  36  56
BRANCH  35  58
ATOM     58  O   UNL     1      10.196  -0.855  21.712  0.00  0.00    -0.380 OA
ATOM     59  H   UNL     1      11.131  -0.682  21.489  0.00  0.00    +0.210 HD
ENDBRANCH  35  58
ENDBRANCH  33  37
ENDBRANCH  32  33
ENDBRANCH   1  32
TORSDOF 19
ENDMDL
MODEL 5
REMARK VINA RESULT:      -6.9      3.451      8.488
REMARK  Name = 
REMARK  21 active torsions:
REMARK  status: ('A' for Active; 'I' for Inactive)
REMARK    1  A    between atoms: C_1  and  C_2
REMARK    2  A    between atoms: C_2  and  C_3
REMARK    3  A    between atoms: C_3  and  C_5
REMARK    4  A    between atoms: C_5  and  C_7
REMARK    5  A    between atoms: C_5  and  C_8
REMARK    6  A    between atoms: N_11  and  C_17
REMARK    7  A    between atoms: C_13  and  C_14
REMARK    8  A    between atoms: C_20  and  C_22
REMARK    9  A    between atoms: C_22  and  O_23
REMARK   10  A    between atoms: O_23  and  P_24
REMARK   11  A    between atoms: P_24  and  O_27
REMARK   12  A    between atoms: O_27  and  P_28
REMARK   13  A    between atoms: P_28  and  O_29
REMARK   14  A    between atoms: P_28  and  O_31
REMARK   15  A    between atoms: O_31  and  C_32
REMARK   16  A    between atoms: C_32  and  C_33
REMARK   17  A    between atoms: C_36  and  N_44
REMARK   18  A    between atoms: C_38  and  O_40
REMARK   19  A    between atoms: C_41  and  O_43
REMARK   20  A    between atoms: C_54  and  O_56
REMARK   21  A    between atoms: C_57  and  O_59
REMARK                            x       y       z     vdW  Elec       q    Type
REMARK                         _______ _______ _______ _____ _____    ______ ____
ROOT
ATOM      1  P   UNL     1       9.490  -1.512  22.892  0.00  0.00    +0.222 P 
ATOM      2  O   UNL     1      10.569  -1.679  21.857  0.00  0.00    -0.437 OA
ATOM      3  O   UNL     1       9.718  -1.678  24.365  0.00  0.00    -0.517 OA
ENDROOT
BRANCH   1   4
ATOM      4  O   UNL     1       8.693  -0.150  22.590  0.00  0.00    -0.229 OA
BRANCH   4   5
ATOM      5  P   UNL     1       9.159   1.290  23.057  0.00  0.00    +0.480 P 
ATOM      6  O   UNL     1       9.742   2.262  22.093  0.00  0.00    -0.227 OA
BRANCH   5   7
ATOM      7  O   UNL     1      10.219   0.996  24.233  0.00  0.00    -0.302 OA
ATOM      8  H   UNL     1      10.068   1.673  24.916  0.00  0.00    +0.222 HD
ENDBRANCH   5   7
BRANCH   5   9
ATOM      9  O   UNL     1       7.947   1.938  23.930  0.00  0.00    -0.284 OA
BRANCH   9  10
ATOM     10  C   UNL     1       8.078   1.630  25.313  0.00  0.00    +0.206 C 
BRANCH  10  11
ATOM     11  C   UNL     1       6.779   1.259  26.029  0.00  0.00    +0.178 C 
ATOM     12  C   UNL     1       5.714   0.944  24.969  0.00  0.00    +0.178 C 
ATOM     13  C   UNL     1       5.703  -0.585  24.864  0.00  0.00    +0.195 C 
ATOM     14  C   UNL     1       6.731  -1.048  25.905  0.00  0.00    +0.253 C 
ATOM     15  O   UNL     1       6.924   0.056  26.805  0.00  0.00    -0.346 OA
BRANCH  14  16
ATOM     16  N   UNL     1       6.278  -2.210  26.645  0.00  0.00    -0.286 N 
ATOM     17  C   UNL     1       7.002  -3.361  26.808  0.00  0.00    +0.167 A 
ATOM     18  N   UNL     1       8.253  -3.619  26.381  0.00  0.00    -0.216 NA
ATOM     19  C   UNL     1       8.624  -4.870  26.735  0.00  0.00    +0.225 A 
ATOM     20  N   UNL     1       7.901  -5.812  27.381  0.00  0.00    -0.219 NA
ATOM     21  C   UNL     1       6.635  -5.510  27.749  0.00  0.00    +0.147 A 
ATOM     22  N   UNL     1       5.872  -6.487  28.378  0.00  0.00    -0.341 N 
ATOM     23  H   UNL     1       5.095  -6.105  28.905  0.00  0.00    +0.144 HD
ATOM     24  H   UNL     1       6.441  -7.194  28.821  0.00  0.00    +0.144 HD
ATOM     25  C   UNL     1       6.152  -4.219  27.486  0.00  0.00    +0.147 A 
ATOM     26  N   UNL     1       4.951  -3.600  27.766  0.00  0.00    -0.231 NA
ATOM     27  C   UNL     1       5.071  -2.388  27.263  0.00  0.00    +0.203 A 
ENDBRANCH  14  16
BRANCH  13  28
ATOM     28  O   UNL     1       6.068  -1.013  23.550  0.00  0.00    -0.385 OA
ATOM     29  H   UNL     1       7.048  -1.054  23.527  0.00  0.00    +0.210 HD
ENDBRANCH  13  28
BRANCH  12  30
ATOM     30  O   UNL     1       4.434   1.432  25.387  0.00  0.00    -0.386 OA
ATOM     31  H   UNL     1       4.248   1.092  26.279  0.00  0.00    +0.210 HD
ENDBRANCH  12  30
ENDBRANCH  10  11
ENDBRANCH   9  10
ENDBRANCH   5   9
ENDBRANCH   4   5
ENDBRANCH   1   4
BRANCH   1  32
ATOM     32  O   UNL     1       8.363  -2.626  22.523  0.00  0.00    -0.324 OA
BRANCH  32  33
ATOM     33  C   UNL     1       8.223  -3.737  23.369  0.00  0.00    +0.202 C 
BRANCH  33  37
ATOM     34  C   UNL     1       5.847  -6.317  22.464  0.00  0.00    +0.439 C 
ATOM     35  C   UNL     1       5.694  -5.412  21.238  0.00  0.00    +0.244 C 
ATOM     36  C   UNL     1       6.364  -4.094  21.653  0.00  0.00    +0.183 C 
ATOM     37  C   UNL     1       6.885  -4.370  23.070  0.00  0.00    +0.182 C 
ATOM     38  O   UNL     1       6.933  -5.794  23.230  0.00  0.00    -0.309 OA
BRANCH  34  42
ATOM     39  C   UNL     1       2.487  -6.011  25.078  0.00  0.00    -0.014 A 
ATOM     40  C   UNL     1       2.315  -5.975  23.682  0.00  0.00    +0.104 A 
ATOM     41  C   UNL     1       3.404  -6.218  22.864  0.00  0.00    +0.325 A 
ATOM     42  N   UNL     1       4.651  -6.385  23.355  0.00  0.00    -0.173 N 
ATOM     43  C   UNL     1       4.845  -6.432  24.693  0.00  0.00    +0.312 A 
ATOM     44  C   UNL     1       3.774  -6.278  25.572  0.00  0.00    +0.075 A 
BRANCH  40  45
ATOM     45  C   UNL     1       1.047  -5.624  22.985  0.00  0.00    +0.248 C 
ATOM     46  O   UNL     1       0.549  -4.526  23.108  0.00  0.00    -0.270 OA
ATOM     47  N   UNL     1       0.470  -6.585  22.204  0.00  0.00    -0.325 N 
ATOM     48  H   UNL     1      -0.338  -6.289  21.665  0.00  0.00    +0.145 HD
ATOM     49  H   UNL     1       0.959  -7.385  21.818  0.00  0.00    +0.145 HD
ENDBRANCH  40  45
BRANCH  39  50
ATOM     50  C   UNL     1       1.395  -5.592  26.062  0.00  0.00    +0.083 C 
ATOM     51  C   UNL     1       1.653  -4.209  26.655  0.00  0.00    +0.020 C 
BRANCH  50  52
ATOM     52  C   UNL     1       1.097  -6.752  27.029  0.00  0.00    +0.140 C 
ATOM     53  O   UNL     1       0.730  -7.840  26.566  0.00  0.00    -0.297 OA
BRANCH  52  55
ATOM     54  C   UNL     1       2.373  -7.235  29.124  0.00  0.00    +0.012 C 
ATOM     55  C   UNL     1       1.176  -6.517  28.520  0.00  0.00    +0.071 C 
ENDBRANCH  52  55
ENDBRANCH  50  52
ENDBRANCH  39  50
ENDBRANCH  34  42
BRANCH  36  56
ATOM     56  O   UNL     1       5.386  -3.053  21.696  0.00  0.00    -0.386 OA
ATOM     57  H   UNL     1       5.662  -2.383  21.029  0.00  0.00    +0.210 HD
ENDBRANCH  36  56
BRANCH  35  58
ATOM     58  O   UNL     1       6.337  -6.019  20.108  0.00  0.00    -0.380 OA
ATOM     59  H   UNL     1       6.102  -6.964  20.055  0.00  0.00    +0.210 HD
ENDBRANCH  35  58
ENDBRANCH  33  37
ENDBRANCH  32  33
ENDBRANCH   1  32
TORSDOF 19
ENDMDL
MODEL 6
REMARK VINA RESULT:      -6.7      3.360      8.385
REMARK  Name = 
REMARK  21 active torsions:
REMARK  status: ('A' for Active; 'I' for Inactive)
REMARK    1  A    between atoms: C_1  and  C_2
REMARK    2  A    between atoms: C_2  and  C_3
REMARK    3  A    between atoms: C_3  and  C_5
REMARK    4  A    between atoms: C_5  and  C_7
REMARK    5  A    between atoms: C_5  and  C_8
REMARK    6  A    between atoms: N_11  and  C_17
REMARK    7  A    between atoms: C_13  and  C_14
REMARK    8  A    between atoms: C_20  and  C_22
REMARK    9  A    between atoms: C_22  and  O_23
REMARK   10  A    between atoms: O_23  and  P_24
REMARK   11  A    between atoms: P_24  and  O_27
REMARK   12  A    between atoms: O_27  and  P_28
REMARK   13  A    between atoms: P_28  and  O_29
REMARK   14  A    between atoms: P_28  and  O_31
REMARK   15  A    between atoms: O_31  and  C_32
REMARK   16  A    between atoms: C_32  and  C_33
REMARK   17  A    between atoms: C_36  and  N_44
REMARK   18  A    between atoms: C_38  and  O_40
REMARK   19  A    between atoms: C_41  and  O_43
REMARK   20  A    between atoms: C_54  and  O_56
REMARK   21  A    between atoms: C_57  and  O_59
REMARK                            x       y       z     vdW  Elec       q    Type
REMARK                         _______ _______ _______ _____ _____    ______ ____
ROOT
ATOM      1  P   UNL     1       8.625   3.961  24.493  0.00  0.00    +0.222 P 
ATOM      2  O   UNL     1       9.524   5.165  24.543  0.00  0.00    -0.437 OA
ATOM      3  O   UNL     1       8.080   3.280  25.714  0.00  0.00    -0.517 OA
ENDROOT
BRANCH   1   4
ATOM      4  O   UNL     1       7.457   4.234  23.425  0.00  0.00    -0.229 OA
BRANCH   4   5
ATOM      5  P   UNL     1       7.024   5.667  22.909  0.00  0.00    +0.480 P 
ATOM      6  O   UNL     1       7.657   6.278  21.708  0.00  0.00    -0.227 OA
BRANCH   5   7
ATOM      7  O   UNL     1       7.248   6.626  24.182  0.00  0.00    -0.302 OA
ATOM      8  H   UNL     1       6.812   6.191  24.936  0.00  0.00    +0.222 HD
ENDBRANCH   5   7
BRANCH   5   9
ATOM      9  O   UNL     1       5.398   5.688  22.826  0.00  0.00    -0.284 OA
BRANCH   9  10
ATOM     10  C   UNL     1       4.817   6.022  24.082  0.00  0.00    +0.206 C 
BRANCH  10  11
ATOM     11  C   UNL     1       3.540   5.259  24.438  0.00  0.00    +0.178 C 
ATOM     12  C   UNL     1       3.196   4.319  23.274  0.00  0.00    +0.178 C 
ATOM     13  C   UNL     1       3.737   2.950  23.701  0.00  0.00    +0.195 C 
ATOM     14  C   UNL     1       4.314   3.186  25.103  0.00  0.00    +0.253 C 
ATOM     15  O   UNL     1       3.730   4.409  25.582  0.00  0.00    -0.346 OA
BRANCH  14  16
ATOM     16  N   UNL     1       4.002   2.103  26.015  0.00  0.00    -0.286 N 
ATOM     17  C   UNL     1       4.778   0.988  26.196  0.00  0.00    +0.167 A 
ATOM     18  N   UNL     1       5.966   0.708  25.629  0.00  0.00    -0.216 NA
ATOM     19  C   UNL     1       6.421  -0.492  26.057  0.00  0.00    +0.225 A 
ATOM     20  N   UNL     1       5.823  -1.372  26.891  0.00  0.00    -0.219 NA
ATOM     21  C   UNL     1       4.609  -1.053  27.396  0.00  0.00    +0.147 A 
ATOM     22  N   UNL     1       3.969  -1.970  28.222  0.00  0.00    -0.341 N 
ATOM     23  H   UNL     1       3.259  -1.546  28.809  0.00  0.00    +0.144 HD
ATOM     24  H   UNL     1       4.615  -2.616  28.654  0.00  0.00    +0.144 HD
ATOM     25  C   UNL     1       4.054   0.193  27.069  0.00  0.00    +0.147 A 
ATOM     26  N   UNL     1       2.883   0.819  27.447  0.00  0.00    -0.231 NA
ATOM     27  C   UNL     1       2.896   1.971  26.808  0.00  0.00    +0.203 A 
ENDBRANCH  14  16
BRANCH  13  28
ATOM     28  O   UNL     1       4.744   2.490  22.797  0.00  0.00    -0.385 OA
ATOM     29  H   UNL     1       4.407   1.661  22.395  0.00  0.00    +0.210 HD
ENDBRANCH  13  28
BRANCH  12  30
ATOM     30  O   UNL     1       1.779   4.264  23.077  0.00  0.00    -0.386 OA
ATOM     31  H   UNL     1       1.352   4.115  23.938  0.00  0.00    +0.210 HD
ENDBRANCH  12  30
ENDBRANCH  10  11
ENDBRANCH   9  10
ENDBRANCH   5   9
ENDBRANCH   4   5
ENDBRANCH   1   4
BRANCH   1  32
ATOM     32  O   UNL     1       9.487   2.809  23.732  0.00  0.00    -0.324 OA
BRANCH  32  33
ATOM     33  C   UNL     1       9.874   1.676  24.463  0.00  0.00    +0.202 C 
BRANCH  33  37
ATOM     34  C   UNL     1       9.245  -1.553  22.947  0.00  0.00    +0.439 C 
ATOM     35  C   UNL     1       8.646  -0.659  21.858  0.00  0.00    +0.244 C 
ATOM     36  C   UNL     1       8.508   0.716  22.529  0.00  0.00    +0.183 C 
ATOM     37  C   UNL     1       9.082   0.503  23.936  0.00  0.00    +0.182 C 
ATOM     38  O   UNL     1       9.878  -0.688  23.890  0.00  0.00    -0.309 OA
BRANCH  34  42
ATOM     39  C   UNL     1       6.523  -4.321  24.721  0.00  0.00    -0.014 A 
ATOM     40  C   UNL     1       7.838  -4.198  25.205  0.00  0.00    +0.104 A 
ATOM     41  C   UNL     1       8.648  -3.196  24.704  0.00  0.00    +0.325 A 
ATOM     42  N   UNL     1       8.259  -2.395  23.689  0.00  0.00    -0.173 N 
ATOM     43  C   UNL     1       6.998  -2.485  23.207  0.00  0.00    +0.312 A 
ATOM     44  C   UNL     1       6.104  -3.419  23.729  0.00  0.00    +0.075 A 
BRANCH  40  45
ATOM     45  C   UNL     1       8.476  -5.115  26.189  0.00  0.00    +0.248 C 
ATOM     46  O   UNL     1       8.081  -5.180  27.333  0.00  0.00    -0.270 OA
ATOM     47  N   UNL     1       9.522  -5.879  25.753  0.00  0.00    -0.325 N 
ATOM     48  H   UNL     1       9.875  -6.564  26.414  0.00  0.00    +0.145 HD
ATOM     49  H   UNL     1       9.705  -6.103  24.781  0.00  0.00    +0.145 HD
ENDBRANCH  40  45
BRANCH  39  50
ATOM     50  C   UNL     1       5.608  -5.491  25.082  0.00  0.00    +0.083 C 
ATOM     51  C   UNL     1       5.143  -6.262  23.848  0.00  0.00    +0.020 C 
BRANCH  50  52
ATOM     52  C   UNL     1       4.543  -5.024  26.089  0.00  0.00    +0.140 C 
ATOM     53  O   UNL     1       4.890  -4.747  27.245  0.00  0.00    -0.297 OA
BRANCH  52  55
ATOM     54  C   UNL     1       2.692  -3.611  25.179  0.00  0.00    +0.012 C 
ATOM     55  C   UNL     1       3.089  -4.993  25.676  0.00  0.00    +0.071 C 
ENDBRANCH  52  55
ENDBRANCH  50  52
ENDBRANCH  39  50
ENDBRANCH  34  42
BRANCH  36  56
ATOM     56  O   UNL     1       7.126   1.065  22.622  0.00  0.00    -0.386 OA
ATOM     57  H   UNL     1       6.675   0.303  23.054  0.00  0.00    +0.210 HD
ENDBRANCH  36  56
BRANCH  35  58
ATOM     58  O   UNL     1       9.526  -0.626  20.724  0.00  0.00    -0.380 OA
ATOM     59  H   UNL     1       9.630  -1.523  20.354  0.00  0.00    +0.210 HD
ENDBRANCH  35  58
ENDBRANCH  33  37
ENDBRANCH  32  33
ENDBRANCH   1  32
TORSDOF 19
ENDMDL
MODEL 7
REMARK VINA RESULT:      -6.7      1.435      2.347
REMARK  Name = 
REMARK  21 active torsions:
REMARK  status: ('A' for Active; 'I' for Inactive)
REMARK    1  A    between atoms: C_1  and  C_2
REMARK    2  A    between atoms: C_2  and  C_3
REMARK    3  A    between atoms: C_3  and  C_5
REMARK    4  A    between atoms: C_5  and  C_7
REMARK    5  A    between atoms: C_5  and  C_8
REMARK    6  A    between atoms: N_11  and  C_17
REMARK    7  A    between atoms: C_13  and  C_14
REMARK    8  A    between atoms: C_20  and  C_22
REMARK    9  A    between atoms: C_22  and  O_23
REMARK   10  A    between atoms: O_23  and  P_24
REMARK   11  A    between atoms: P_24  and  O_27
REMARK   12  A    between atoms: O_27  and  P_28
REMARK   13  A    between atoms: P_28  and  O_29
REMARK   14  A    between atoms: P_28  and  O_31
REMARK   15  A    between atoms: O_31  and  C_32
REMARK   16  A    between atoms: C_32  and  C_33
REMARK   17  A    between atoms: C_36  and  N_44
REMARK   18  A    between atoms: C_38  and  O_40
REMARK   19  A    between atoms: C_41  and  O_43
REMARK   20  A    between atoms: C_54  and  O_56
REMARK   21  A    between atoms: C_57  and  O_59
REMARK                            x       y       z     vdW  Elec       q    Type
REMARK                         _______ _______ _______ _____ _____    ______ ____
ROOT
ATOM      1  P   UNL     1       7.193  -4.801  23.423  0.00  0.00    +0.222 P 
ATOM      2  O   UNL     1       8.265  -5.758  22.981  0.00  0.00    -0.437 OA
ATOM      3  O   UNL     1       5.725  -5.106  23.351  0.00  0.00    -0.517 OA
ENDROOT
BRANCH   1   4
ATOM      4  O   UNL     1       7.583  -4.222  24.870  0.00  0.00    -0.229 OA
BRANCH   4   5
ATOM      5  P   UNL     1       7.718  -5.095  26.183  0.00  0.00    +0.480 P 
ATOM      6  O   UNL     1       7.981  -4.463  27.506  0.00  0.00    -0.227 OA
BRANCH   5   7
ATOM      7  O   UNL     1       8.894  -6.139  25.841  0.00  0.00    -0.302 OA
ATOM      8  H   UNL     1       8.761  -6.906  26.426  0.00  0.00    +0.222 HD
ENDBRANCH   5   7
BRANCH   5   9
ATOM      9  O   UNL     1       6.447  -6.112  26.229  0.00  0.00    -0.284 OA
BRANCH   9  10
ATOM     10  C   UNL     1       5.488  -5.705  27.198  0.00  0.00    +0.206 C 
BRANCH  10  11
ATOM     11  C   UNL     1       4.332  -4.859  26.663  0.00  0.00    +0.178 C 
ATOM     12  C   UNL     1       3.357  -4.585  27.816  0.00  0.00    +0.178 C 
ATOM     13  C   UNL     1       3.718  -3.180  28.312  0.00  0.00    +0.195 C 
ATOM     14  C   UNL     1       4.847  -2.723  27.378  0.00  0.00    +0.253 C 
ATOM     15  O   UNL     1       4.780  -3.567  26.217  0.00  0.00    -0.346 OA
BRANCH  14  16
ATOM     16  N   UNL     1       4.705  -1.334  26.984  0.00  0.00    -0.286 N 
ATOM     17  C   UNL     1       5.749  -0.499  26.685  0.00  0.00    +0.167 A 
ATOM     18  N   UNL     1       7.061  -0.797  26.644  0.00  0.00    -0.216 NA
ATOM     19  C   UNL     1       7.783   0.297  26.310  0.00  0.00    +0.225 A 
ATOM     20  N   UNL     1       7.347   1.556  26.079  0.00  0.00    -0.219 NA
ATOM     21  C   UNL     1       6.022   1.804  26.177  0.00  0.00    +0.147 A 
ATOM     22  N   UNL     1       5.570   3.104  25.981  0.00  0.00    -0.341 N 
ATOM     23  H   UNL     1       4.586   3.151  25.742  0.00  0.00    +0.144 HD
ATOM     24  H   UNL     1       6.216   3.658  25.434  0.00  0.00    +0.144 HD
ATOM     25  C   UNL     1       5.159   0.735  26.465  0.00  0.00    +0.147 A 
ATOM     26  N   UNL     1       3.787   0.652  26.586  0.00  0.00    -0.231 NA
ATOM     27  C   UNL     1       3.551  -0.610  26.879  0.00  0.00    +0.203 A 
ENDBRANCH  14  16
BRANCH  13  28
ATOM     28  O   UNL     1       4.153  -3.211  29.674  0.00  0.00    -0.385 OA
ATOM     29  H   UNL     1       4.529  -2.327  29.871  0.00  0.00    +0.210 HD
ENDBRANCH  13  28
BRANCH  12  30
ATOM     30  O   UNL     1       2.004  -4.623  27.347  0.00  0.00    -0.386 OA
ATOM     31  H   UNL     1       1.882  -5.430  26.818  0.00  0.00    +0.210 HD
ENDBRANCH  12  30
ENDBRANCH  10  11
ENDBRANCH   9  10
ENDBRANCH   5   9
ENDBRANCH   4   5
ENDBRANCH   1   4
BRANCH   1  32
ATOM     32  O   UNL     1       7.382  -3.480  22.492  0.00  0.00    -0.324 OA
BRANCH  32  33
ATOM     33  C   UNL     1       6.744  -2.293  22.882  0.00  0.00    +0.202 C 
BRANCH  33  37
ATOM     34  C   UNL     1       9.244   0.183  22.022  0.00  0.00    +0.439 C 
ATOM     35  C   UNL     1      10.162  -0.881  22.630  0.00  0.00    +0.244 C 
ATOM     36  C   UNL     1       9.207  -1.827  23.373  0.00  0.00    +0.183 C 
ATOM     37  C   UNL     1       7.814  -1.249  23.090  0.00  0.00    +0.182 C 
ATOM     38  O   UNL     1       7.939  -0.392  21.948  0.00  0.00    -0.309 OA
BRANCH  34  42
ATOM     39  C   UNL     1       9.218   4.028  23.874  0.00  0.00    -0.014 A 
ATOM     40  C   UNL     1       8.132   3.604  23.087  0.00  0.00    +0.104 A 
ATOM     41  C   UNL     1       8.108   2.302  22.618  0.00  0.00    +0.325 A 
ATOM     42  N   UNL     1       9.141   1.452  22.801  0.00  0.00    -0.173 N 
ATOM     43  C   UNL     1      10.196   1.829  23.561  0.00  0.00    +0.312 A 
ATOM     44  C   UNL     1      10.240   3.100  24.132  0.00  0.00    +0.075 A 
BRANCH  40  45
ATOM     45  C   UNL     1       7.007   4.472  22.643  0.00  0.00    +0.248 C 
ATOM     46  O   UNL     1       5.920   4.408  23.175  0.00  0.00    -0.270 OA
ATOM     47  N   UNL     1       7.247   5.340  21.616  0.00  0.00    -0.325 N 
ATOM     48  H   UNL     1       6.495   5.987  21.398  0.00  0.00    +0.145 HD
ATOM     49  H   UNL     1       8.168   5.662  21.337  0.00  0.00    +0.145 HD
ENDBRANCH  40  45
BRANCH  39  50
ATOM     50  C   UNL     1       9.423   5.482  24.296  0.00  0.00    +0.083 C 
ATOM     51  C   UNL     1      10.863   5.946  24.084  0.00  0.00    +0.020 C 
BRANCH  50  52
ATOM     52  C   UNL     1       8.781   5.717  25.674  0.00  0.00    +0.140 C 
ATOM     53  O   UNL     1       8.216   4.772  26.243  0.00  0.00    -0.297 OA
BRANCH  52  55
ATOM     54  C   UNL     1       8.487   7.064  27.759  0.00  0.00    +0.012 C 
ATOM     55  C   UNL     1       8.776   7.108  26.267  0.00  0.00    +0.071 C 
ENDBRANCH  52  55
ENDBRANCH  50  52
ENDBRANCH  39  50
ENDBRANCH  34  42
BRANCH  36  56
ATOM     56  O   UNL     1       9.474  -1.771  24.775  0.00  0.00    -0.386 OA
ATOM     57  H   UNL     1       8.716  -1.292  25.184  0.00  0.00    +0.210 HD
ENDBRANCH  36  56
BRANCH  35  58
ATOM     58  O   UNL     1      10.886  -1.548  21.585  0.00  0.00    -0.380 OA
ATOM     59  H   UNL     1      11.229  -0.895  20.945  0.00  0.00    +0.210 HD
ENDBRANCH  35  58
ENDBRANCH  33  37
ENDBRANCH  32  33
ENDBRANCH   1  32
TORSDOF 19
ENDMDL
MODEL 8
REMARK VINA RESULT:      -6.7      3.417      7.403
REMARK  Name = 
REMARK  21 active torsions:
REMARK  status: ('A' for Active; 'I' for Inactive)
REMARK    1  A    between atoms: C_1  and  C_2
REMARK    2  A    between atoms: C_2  and  C_3
REMARK    3  A    between atoms: C_3  and  C_5
REMARK    4  A    between atoms: C_5  and  C_7
REMARK    5  A    between atoms: C_5  and  C_8
REMARK    6  A    between atoms: N_11  and  C_17
REMARK    7  A    between atoms: C_13  and  C_14
REMARK    8  A    between atoms: C_20  and  C_22
REMARK    9  A    between atoms: C_22  and  O_23
REMARK   10  A    between atoms: O_23  and  P_24
REMARK   11  A    between atoms: P_24  and  O_27
REMARK   12  A    between atoms: O_27  and  P_28
REMARK   13  A    between atoms: P_28  and  O_29
REMARK   14  A    between atoms: P_28  and  O_31
REMARK   15  A    between atoms: O_31  and  C_32
REMARK   16  A    between atoms: C_32  and  C_33
REMARK   17  A    between atoms: C_36  and  N_44
REMARK   18  A    between atoms: C_38  and  O_40
REMARK   19  A    between atoms: C_41  and  O_43
REMARK   20  A    between atoms: C_54  and  O_56
REMARK   21  A    between atoms: C_57  and  O_59
REMARK                            x       y       z     vdW  Elec       q    Type
REMARK                         _______ _______ _______ _____ _____    ______ ____
ROOT
ATOM      1  P   UNL     1       5.928   5.500  28.156  0.00  0.00    +0.222 P 
ATOM      2  O   UNL     1       4.918   6.406  28.805  0.00  0.00    -0.437 OA
ATOM      3  O   UNL     1       7.397   5.797  28.102  0.00  0.00    -0.517 OA
ENDROOT
BRANCH   1   4
ATOM      4  O   UNL     1       5.670   3.997  28.661  0.00  0.00    -0.229 OA
BRANCH   4   5
ATOM      5  P   UNL     1       6.748   2.837  28.628  0.00  0.00    +0.480 P 
ATOM      6  O   UNL     1       7.701   2.640  29.755  0.00  0.00    -0.227 OA
BRANCH   5   7
ATOM      7  O   UNL     1       7.567   3.102  27.269  0.00  0.00    -0.302 OA
ATOM      8  H   UNL     1       8.306   3.692  27.502  0.00  0.00    +0.222 HD
ENDBRANCH   5   7
BRANCH   5   9
ATOM      9  O   UNL     1       5.977   1.462  28.225  0.00  0.00    -0.284 OA
BRANCH   9  10
ATOM     10  C   UNL     1       4.643   1.717  27.799  0.00  0.00    +0.206 C 
BRANCH  10  11
ATOM     11  C   UNL     1       4.232   1.045  26.488  0.00  0.00    +0.178 C 
ATOM     12  C   UNL     1       5.485   0.875  25.617  0.00  0.00    +0.178 C 
ATOM     13  C   UNL     1       5.923  -0.577  25.838  0.00  0.00    +0.195 C 
ATOM     14  C   UNL     1       4.865  -1.157  26.786  0.00  0.00    +0.253 C 
ATOM     15  O   UNL     1       3.727  -0.284  26.707  0.00  0.00    -0.346 OA
BRANCH  14  16
ATOM     16  N   UNL     1       4.476  -2.504  26.416  0.00  0.00    -0.286 N 
ATOM     17  C   UNL     1       5.280  -3.608  26.534  0.00  0.00    +0.167 A 
ATOM     18  N   UNL     1       6.523  -3.674  27.048  0.00  0.00    -0.216 NA
ATOM     19  C   UNL     1       6.990  -4.942  26.989  0.00  0.00    +0.225 A 
ATOM     20  N   UNL     1       6.393  -6.037  26.469  0.00  0.00    -0.219 NA
ATOM     21  C   UNL     1       5.161  -5.900  25.929  0.00  0.00    +0.147 A 
ATOM     22  N   UNL     1       4.556  -7.013  25.356  0.00  0.00    -0.341 N 
ATOM     23  H   UNL     1       3.549  -6.923  25.283  0.00  0.00    +0.144 HD
ATOM     24  H   UNL     1       4.928  -7.881  25.715  0.00  0.00    +0.144 HD
ATOM     25  C   UNL     1       4.544  -4.641  25.978  0.00  0.00    +0.147 A 
ATOM     26  N   UNL     1       3.305  -4.193  25.565  0.00  0.00    -0.231 NA
ATOM     27  C   UNL     1       3.294  -2.910  25.862  0.00  0.00    +0.203 A 
ENDBRANCH  14  16
BRANCH  13  28
ATOM     28  O   UNL     1       7.228  -0.638  26.419  0.00  0.00    -0.385 OA
ATOM     29  H   UNL     1       7.602  -1.514  26.186  0.00  0.00    +0.210 HD
ENDBRANCH  13  28
BRANCH  12  30
ATOM     30  O   UNL     1       5.171   1.104  24.239  0.00  0.00    -0.386 OA
ATOM     31  H   UNL     1       5.438   0.324  23.726  0.00  0.00    +0.210 HD
ENDBRANCH  12  30
ENDBRANCH  10  11
ENDBRANCH   9  10
ENDBRANCH   5   9
ENDBRANCH   4   5
ENDBRANCH   1   4
BRANCH   1  32
ATOM     32  O   UNL     1       5.473   5.393  26.597  0.00  0.00    -0.324 OA
BRANCH  32  33
ATOM     33  C   UNL     1       6.197   6.122  25.642  0.00  0.00    +0.202 C 
BRANCH  33  37
ATOM     34  C   UNL     1       8.272   4.599  23.092  0.00  0.00    +0.439 C 
ATOM     35  C   UNL     1       7.169   5.166  22.194  0.00  0.00    +0.244 C 
ATOM     36  C   UNL     1       6.032   5.518  23.165  0.00  0.00    +0.183 C 
ATOM     37  C   UNL     1       6.597   5.163  24.546  0.00  0.00    +0.182 C 
ATOM     38  O   UNL     1       8.023   5.088  24.411  0.00  0.00    -0.309 OA
BRANCH  34  42
ATOM     39  C   UNL     1       8.827   0.369  22.961  0.00  0.00    -0.014 A 
ATOM     40  C   UNL     1       9.406   1.137  23.988  0.00  0.00    +0.104 A 
ATOM     41  C   UNL     1       9.091   2.481  24.082  0.00  0.00    +0.325 A 
ATOM     42  N   UNL     1       8.330   3.109  23.161  0.00  0.00    -0.173 N 
ATOM     43  C   UNL     1       7.754   2.395  22.166  0.00  0.00    +0.312 A 
ATOM     44  C   UNL     1       7.964   1.020  22.065  0.00  0.00    +0.075 A 
BRANCH  40  45
ATOM     45  C   UNL     1      10.406   0.636  24.971  0.00  0.00    +0.248 C 
ATOM     46  O   UNL     1      11.595   0.774  24.779  0.00  0.00    -0.270 OA
ATOM     47  N   UNL     1       9.932   0.017  26.093  0.00  0.00    -0.325 N 
ATOM     48  H   UNL     1      10.629  -0.228  26.790  0.00  0.00    +0.145 HD
ATOM     49  H   UNL     1       8.995   0.131  26.461  0.00  0.00    +0.145 HD
ENDBRANCH  40  45
BRANCH  39  50
ATOM     50  C   UNL     1       9.237  -1.073  22.668  0.00  0.00    +0.083 C 
ATOM     51  C   UNL     1       9.481  -1.312  21.179  0.00  0.00    +0.020 C 
BRANCH  50  52
ATOM     52  C   UNL     1       8.301  -2.039  23.414  0.00  0.00    +0.140 C 
ATOM     53  O   UNL     1       8.616  -2.428  24.546  0.00  0.00    -0.297 OA
BRANCH  52  55
ATOM     54  C   UNL     1       6.798  -4.011  23.092  0.00  0.00    +0.012 C 
ATOM     55  C   UNL     1       7.062  -2.560  22.720  0.00  0.00    +0.071 C 
ENDBRANCH  52  55
ENDBRANCH  50  52
ENDBRANCH  39  50
ENDBRANCH  34  42
BRANCH  36  56
ATOM     56  O   UNL     1       4.896   4.698  22.886  0.00  0.00    -0.386 OA
ATOM     57  H   UNL     1       4.165   5.310  22.636  0.00  0.00    +0.210 HD
ENDBRANCH  36  56
BRANCH  35  58
ATOM     58  O   UNL     1       7.663   6.318  21.493  0.00  0.00    -0.380 OA
ATOM     59  H   UNL     1       7.931   6.070  20.587  0.00  0.00    +0.210 HD
ENDBRANCH  35  58
ENDBRANCH  33  37
ENDBRANCH  32  33
ENDBRANCH   1  32
TORSDOF 19
ENDMDL
MODEL 9
REMARK VINA RESULT:      -6.7      2.882      4.741
REMARK  Name = 
REMARK  21 active torsions:
REMARK  status: ('A' for Active; 'I' for Inactive)
REMARK    1  A    between atoms: C_1  and  C_2
REMARK    2  A    between atoms: C_2  and  C_3
REMARK    3  A    between atoms: C_3  and  C_5
REMARK    4  A    between atoms: C_5  and  C_7
REMARK    5  A    between atoms: C_5  and  C_8
REMARK    6  A    between atoms: N_11  and  C_17
REMARK    7  A    between atoms: C_13  and  C_14
REMARK    8  A    between atoms: C_20  and  C_22
REMARK    9  A    between atoms: C_22  and  O_23
REMARK   10  A    between atoms: O_23  and  P_24
REMARK   11  A    between atoms: P_24  and  O_27
REMARK   12  A    between atoms: O_27  and  P_28
REMARK   13  A    between atoms: P_28  and  O_29
REMARK   14  A    between atoms: P_28  and  O_31
REMARK   15  A    between atoms: O_31  and  C_32
REMARK   16  A    between atoms: C_32  and  C_33
REMARK   17  A    between atoms: C_36  and  N_44
REMARK   18  A    between atoms: C_38  and  O_40
REMARK   19  A    between atoms: C_41  and  O_43
REMARK   20  A    between atoms: C_54  and  O_56
REMARK   21  A    between atoms: C_57  and  O_59
REMARK                            x       y       z     vdW  Elec       q    Type
REMARK                         _______ _______ _______ _____ _____    ______ ____
ROOT
ATOM      1  P   UNL     1       7.531  -4.905  23.891  0.00  0.00    +0.222 P 
ATOM      2  O   UNL     1       8.983  -5.245  24.088  0.00  0.00    -0.437 OA
ATOM      3  O   UNL     1       6.548  -5.818  23.220  0.00  0.00    -0.517 OA
ENDROOT
BRANCH   1   4
ATOM      4  O   UNL     1       6.938  -4.352  25.278  0.00  0.00    -0.229 OA
BRANCH   4   5
ATOM      5  P   UNL     1       7.669  -4.463  26.679  0.00  0.00    +0.480 P 
ATOM      6  O   UNL     1       8.722  -3.489  27.078  0.00  0.00    -0.227 OA
BRANCH   5   7
ATOM      7  O   UNL     1       8.282  -5.951  26.684  0.00  0.00    -0.302 OA
ATOM      8  H   UNL     1       9.198  -5.871  27.003  0.00  0.00    +0.222 HD
ENDBRANCH   5   7
BRANCH   5   9
ATOM      9  O   UNL     1       6.520  -4.630  27.819  0.00  0.00    -0.284 OA
BRANCH   9  10
ATOM     10  C   UNL     1       6.129  -5.990  27.971  0.00  0.00    +0.206 C 
BRANCH  10  11
ATOM     11  C   UNL     1       4.628  -6.258  27.863  0.00  0.00    +0.178 C 
ATOM     12  C   UNL     1       3.885  -4.921  27.996  0.00  0.00    +0.178 C 
ATOM     13  C   UNL     1       3.577  -4.497  26.556  0.00  0.00    +0.195 C 
ATOM     14  C   UNL     1       4.122  -5.643  25.694  0.00  0.00    +0.253 C 
ATOM     15  O   UNL     1       4.271  -6.774  26.568  0.00  0.00    -0.346 OA
BRANCH  14  16
ATOM     16  N   UNL     1       3.228  -5.982  24.603  0.00  0.00    -0.286 N 
ATOM     17  C   UNL     1       2.496  -7.137  24.525  0.00  0.00    +0.167 A 
ATOM     18  N   UNL     1       2.415  -8.128  25.433  0.00  0.00    -0.216 NA
ATOM     19  C   UNL     1       1.587  -9.103  24.995  0.00  0.00    +0.225 A 
ATOM     20  N   UNL     1       0.930  -9.184  23.816  0.00  0.00    -0.219 NA
ATOM     21  C   UNL     1       1.083  -8.178  22.926  0.00  0.00    +0.147 A 
ATOM     22  N   UNL     1       0.443  -8.273  21.696  0.00  0.00    -0.341 N 
ATOM     23  H   UNL     1       0.328  -7.376  21.238  0.00  0.00    +0.144 HD
ATOM     24  H   UNL     1      -0.353  -8.895  21.723  0.00  0.00    +0.144 HD
ATOM     25  C   UNL     1       1.876  -7.078  23.288  0.00  0.00    +0.147 A 
ATOM     26  N   UNL     1       2.188  -5.901  22.638  0.00  0.00    -0.231 NA
ATOM     27  C   UNL     1       2.986  -5.260  23.467  0.00  0.00    +0.203 A 
ENDBRANCH  14  16
BRANCH  13  28
ATOM     28  O   UNL     1       4.215  -3.258  26.236  0.00  0.00    -0.385 OA
ATOM     29  H   UNL     1       3.807  -2.573  26.805  0.00  0.00    +0.210 HD
ENDBRANCH  13  28
BRANCH  12  30
ATOM     30  O   UNL     1       2.676  -5.093  28.744  0.00  0.00    -0.386 OA
ATOM     31  H   UNL     1       2.894  -5.091  29.691  0.00  0.00    +0.210 HD
ENDBRANCH  12  30
ENDBRANCH  10  11
ENDBRANCH   9  10
ENDBRANCH   5   9
ENDBRANCH   4   5
ENDBRANCH   1   4
BRANCH   1  32
ATOM     32  O   UNL     1       7.523  -3.555  22.983  0.00  0.00    -0.324 OA
BRANCH  32  33
ATOM     33  C   UNL     1       6.884  -2.414  23.491  0.00  0.00    +0.202 C 
BRANCH  33  37
ATOM     34  C   UNL     1       9.170   0.099  22.233  0.00  0.00    +0.439 C 
ATOM     35  C   UNL     1      10.189  -0.855  22.864  0.00  0.00    +0.244 C 
ATOM     36  C   UNL     1       9.344  -1.776  23.756  0.00  0.00    +0.183 C 
ATOM     37  C   UNL     1       7.903  -1.300  23.526  0.00  0.00    +0.182 C 
ATOM     38  O   UNL     1       7.898  -0.548  22.306  0.00  0.00    -0.309 OA
BRANCH  34  42
ATOM     39  C   UNL     1       9.121   4.077  23.778  0.00  0.00    -0.014 A 
ATOM     40  C   UNL     1       8.088   3.621  22.939  0.00  0.00    +0.104 A 
ATOM     41  C   UNL     1       8.059   2.288  22.570  0.00  0.00    +0.325 A 
ATOM     42  N   UNL     1       9.046   1.427  22.902  0.00  0.00    -0.173 N 
ATOM     43  C   UNL     1      10.048   1.836  23.715  0.00  0.00    +0.312 A 
ATOM     44  C   UNL     1      10.088   3.146  24.189  0.00  0.00    +0.075 A 
BRANCH  40  45
ATOM     45  C   UNL     1       7.031   4.480  22.339  0.00  0.00    +0.248 C 
ATOM     46  O   UNL     1       5.856   4.210  22.469  0.00  0.00    -0.270 OA
ATOM     47  N   UNL     1       7.435   5.582  21.639  0.00  0.00    -0.325 N 
ATOM     48  H   UNL     1       6.695   6.201  21.324  0.00  0.00    +0.145 HD
ATOM     49  H   UNL     1       8.339   6.029  21.740  0.00  0.00    +0.145 HD
ENDBRANCH  40  45
BRANCH  39  50
ATOM     50  C   UNL     1       9.339   5.554  24.103  0.00  0.00    +0.083 C 
ATOM     51  C   UNL     1      10.762   6.009  23.790  0.00  0.00    +0.020 C 
BRANCH  50  52
ATOM     52  C   UNL     1       8.767   5.867  25.497  0.00  0.00    +0.140 C 
ATOM     53  O   UNL     1       9.525   6.308  26.372  0.00  0.00    -0.297 OA
BRANCH  52  55
ATOM     54  C   UNL     1       7.194   4.683  27.037  0.00  0.00    +0.012 C 
ATOM     55  C   UNL     1       7.319   5.553  25.796  0.00  0.00    +0.071 C 
ENDBRANCH  52  55
ENDBRANCH  50  52
ENDBRANCH  39  50
ENDBRANCH  34  42
BRANCH  36  56
ATOM     56  O   UNL     1       9.703  -1.576  25.124  0.00  0.00    -0.386 OA
ATOM     57  H   UNL     1      10.673  -1.740  25.184  0.00  0.00    +0.210 HD
ENDBRANCH  36  56
BRANCH  35  58
ATOM     58  O   UNL     1      10.877  -1.577  21.832  0.00  0.00    -0.380 OA
ATOM     59  H   UNL     1      10.510  -1.344  20.957  0.00  0.00    +0.210 HD
ENDBRANCH  35  58
ENDBRANCH  33  37
ENDBRANCH  32  33
ENDBRANCH   1  32
TORSDOF 19
ENDMDL
