MODEL 1
REMARK VINA RESULT:      -6.5      0.000      0.000
REMARK  Name = 
REMARK  5 active torsions:
REMARK  status: ('A' for Active; 'I' for Inactive)
REMARK    1  A    between atoms: C_5  and  C_12
REMARK    2  A    between atoms: CA_15  and  C_17
REMARK    3  A    between atoms: C_17  and  O_18
REMARK    4  A    between atoms: C_19  and  O_21
REMARK    5  A    between atoms: C_22  and  O_24
REMARK                            x       y       z     vdW  Elec       q    Type
REMARK                         _______ _______ _______ _____ _____    ______ ____
ROOT
ATOM      1  N   UNL     1      10.124   2.223  21.485  0.00  0.00    -0.329 N 
ATOM      2  H   UNL     1       9.674   3.043  21.100  0.00  0.00    +0.145 HD
ATOM      3  H   UNL     1      10.268   1.484  20.805  0.00  0.00    +0.145 HD
ATOM      4  C   UNL     1       9.661   1.752  22.672  0.00  0.00    +0.194 A 
ATOM      5  N   UNL     1       9.182   2.707  23.537  0.00  0.00    -0.294 N 
ATOM      6  H   UNL     1       9.222   3.683  23.291  0.00  0.00    +0.172 HD
ATOM      7  C   UNL     1       8.705   2.423  24.791  0.00  0.00    +0.277 A 
ATOM      8  O   UNL     1       8.292   3.287  25.557  0.00  0.00    -0.266 OA
ATOM      9  C   UNL     1       8.756   1.036  25.069  0.00  0.00    +0.131 A 
ATOM     10  C   UNL     1       9.218   0.109  24.177  0.00  0.00    +0.102 A 
ATOM     11  C   UNL     1       9.144  -1.187  24.753  0.00  0.00    +0.016 A 
ATOM     12  C   UNL     1       8.610  -0.970  26.024  0.00  0.00    +0.090 A 
ATOM     13  N   UNL     1       8.392   0.374  26.205  0.00  0.00    -0.355 N 
ATOM     14  H   UNL     1       8.021   0.811  27.041  0.00  0.00    +0.166 HD
ATOM     15  N   UNL     1       9.691   0.469  22.913  0.00  0.00    -0.214 NA
ENDROOT
BRANCH  11  16
ATOM     16  C   UNL     1       9.514  -2.503  24.110  0.00  0.00    +0.119 C 
ATOM     17  C   UNL     1       9.062  -3.764  24.886  0.00  0.00    +0.166 C 
ATOM     18  C   UNL     1       7.785  -4.251  24.176  0.00  0.00    +0.164 C 
ATOM     19  CA  UNL     1       7.523  -3.199  23.096  0.00  0.00    +0.111 C 
ATOM     20  N   UNL     1       8.852  -2.627  22.774  0.00  0.00    -0.300 NA
ATOM     21  H   UNL     1       9.388  -3.303  22.231  0.00  0.00    +0.123 HD
BRANCH  17  22
ATOM     22  O   UNL     1      10.068  -4.796  24.810  0.00  0.00    -0.387 OA
ATOM     23  H   UNL     1      10.004  -5.344  25.611  0.00  0.00    +0.210 HD
ENDBRANCH  17  22
BRANCH  18  24
ATOM     24  O   UNL     1       6.700  -4.352  25.094  0.00  0.00    -0.388 OA
ATOM     25  H   UNL     1       6.177  -3.534  25.051  0.00  0.00    +0.210 HD
ENDBRANCH  18  24
BRANCH  19  26
ATOM     26  C   UNL     1       6.818  -3.789  21.867  0.00  0.00    +0.177 C 
BRANCH  26  27
ATOM     27  O   UNL     1       5.450  -4.063  22.157  0.00  0.00    -0.393 OA
ATOM     28  H   UNL     1       5.429  -4.416  23.067  0.00  0.00    +0.209 HD
ENDBRANCH  26  27
ENDBRANCH  19  26
ENDBRANCH  11  16
TORSDOF 5
ENDMDL
MODEL 2
REMARK VINA RESULT:      -6.4      1.842      3.426
REMARK  Name = 
REMARK  5 active torsions:
REMARK  status: ('A' for Active; 'I' for Inactive)
REMARK    1  A    between atoms: C_5  and  C_12
REMARK    2  A    between atoms: CA_15  and  C_17
REMARK    3  A    between atoms: C_17  and  O_18
REMARK    4  A    between atoms: C_19  and  O_21
REMARK    5  A    between atoms: C_22  and  O_24
REMARK                            x       y       z     vdW  Elec       q    Type
REMARK                         _______ _______ _______ _____ _____    ______ ____
ROOT
ATOM      1  N   UNL     1       7.536   1.212  26.767  0.00  0.00    -0.329 N 
ATOM      2  H   UNL     1       8.073   1.756  27.429  0.00  0.00    +0.145 HD
ATOM      3  H   UNL     1       6.923   0.532  27.205  0.00  0.00    +0.145 HD
ATOM      4  C   UNL     1       8.194   0.701  25.693  0.00  0.00    +0.194 A 
ATOM      5  N   UNL     1       9.237   1.464  25.226  0.00  0.00    -0.294 N 
ATOM      6  H   UNL     1       9.447   2.354  25.648  0.00  0.00    +0.172 HD
ATOM      7  C   UNL     1       9.994   1.124  24.133  0.00  0.00    +0.277 A 
ATOM      8  O   UNL     1      10.913   1.821  23.719  0.00  0.00    -0.266 OA
ATOM      9  C   UNL     1       9.576  -0.105  23.568  0.00  0.00    +0.131 A 
ATOM     10  C   UNL     1       8.547  -0.850  24.072  0.00  0.00    +0.102 A 
ATOM     11  C   UNL     1       8.373  -2.019  23.283  0.00  0.00    +0.016 A 
ATOM     12  C   UNL     1       9.355  -1.919  22.298  0.00  0.00    +0.090 A 
ATOM     13  N   UNL     1      10.065  -0.756  22.473  0.00  0.00    -0.355 N 
ATOM     14  H   UNL     1      10.828  -0.429  21.892  0.00  0.00    +0.166 HD
ATOM     15  N   UNL     1       7.816  -0.444  25.191  0.00  0.00    -0.214 NA
ENDROOT
BRANCH  11  16
ATOM     16  C   UNL     1       7.380  -3.137  23.501  0.00  0.00    +0.119 C 
ATOM     17  C   UNL     1       7.902  -4.554  23.162  0.00  0.00    +0.166 C 
ATOM     18  C   UNL     1       8.281  -5.189  24.513  0.00  0.00    +0.164 C 
ATOM     19  CA  UNL     1       8.046  -4.077  25.537  0.00  0.00    +0.111 C 
ATOM     20  N   UNL     1       6.997  -3.212  24.945  0.00  0.00    -0.300 NA
ATOM     21  H   UNL     1       6.098  -3.689  24.997  0.00  0.00    +0.123 HD
BRANCH  17  22
ATOM     22  O   UNL     1       6.864  -5.344  22.544  0.00  0.00    -0.387 OA
ATOM     23  H   UNL     1       6.226  -5.601  23.231  0.00  0.00    +0.210 HD
ENDBRANCH  17  22
BRANCH  18  24
ATOM     24  O   UNL     1       9.637  -5.626  24.506  0.00  0.00    -0.388 OA
ATOM     25  H   UNL     1      10.097  -5.208  23.758  0.00  0.00    +0.210 HD
ENDBRANCH  18  24
BRANCH  19  26
ATOM     26  C   UNL     1       7.652  -4.627  26.915  0.00  0.00    +0.177 C 
BRANCH  26  27
ATOM     27  O   UNL     1       8.015  -6.001  27.028  0.00  0.00    -0.393 OA
ATOM     28  H   UNL     1       8.104  -6.336  26.115  0.00  0.00    +0.209 HD
ENDBRANCH  26  27
ENDBRANCH  19  26
ENDBRANCH  11  16
TORSDOF 5
ENDMDL
MODEL 3
REMARK VINA RESULT:      -6.4      2.921      6.346
REMARK  Name = 
REMARK  5 active torsions:
REMARK  status: ('A' for Active; 'I' for Inactive)
REMARK    1  A    between atoms: C_5  and  C_12
REMARK    2  A    between atoms: CA_15  and  C_17
REMARK    3  A    between atoms: C_17  and  O_18
REMARK    4  A    between atoms: C_19  and  O_21
REMARK    5  A    between atoms: C_22  and  O_24
REMARK                            x       y       z     vdW  Elec       q    Type
REMARK                         _______ _______ _______ _____ _____    ______ ____
ROOT
ATOM      1  N   UNL     1       7.947  -5.762  27.107  0.00  0.00    -0.329 N 
ATOM      2  H   UNL     1       7.379  -5.930  27.927  0.00  0.00    +0.145 HD
ATOM      3  H   UNL     1       8.780  -5.215  27.297  0.00  0.00    +0.145 HD
ATOM      4  C   UNL     1       7.311  -5.361  25.975  0.00  0.00    +0.194 A 
ATOM      5  N   UNL     1       6.041  -5.860  25.806  0.00  0.00    -0.294 N 
ATOM      6  H   UNL     1       5.655  -6.507  26.475  0.00  0.00    +0.172 HD
ATOM      7  C   UNL     1       5.261  -5.593  24.710  0.00  0.00    +0.277 A 
ATOM      8  O   UNL     1       4.135  -6.055  24.566  0.00  0.00    -0.266 OA
ATOM      9  C   UNL     1       5.919  -4.734  23.796  0.00  0.00    +0.131 A 
ATOM     10  C   UNL     1       7.175  -4.238  24.006  0.00  0.00    +0.102 A 
ATOM     11  C   UNL     1       7.553  -3.417  22.910  0.00  0.00    +0.016 A 
ATOM     12  C   UNL     1       6.452  -3.456  22.054  0.00  0.00    +0.090 A 
ATOM     13  N   UNL     1       5.480  -4.262  22.594  0.00  0.00    -0.355 N 
ATOM     14  H   UNL     1       4.582  -4.476  22.176  0.00  0.00    +0.166 HD
ATOM     15  N   UNL     1       7.916  -4.553  25.148  0.00  0.00    -0.214 NA
ENDROOT
BRANCH  11  16
ATOM     16  C   UNL     1       8.838  -2.639  22.741  0.00  0.00    +0.119 C 
ATOM     17  C   UNL     1       8.692  -1.277  22.021  0.00  0.00    +0.166 C 
ATOM     18  C   UNL     1       8.685  -0.217  23.140  0.00  0.00    +0.164 C 
ATOM     19  CA  UNL     1       8.733  -1.029  24.436  0.00  0.00    +0.111 C 
ATOM     20  N   UNL     1       9.412  -2.298  24.080  0.00  0.00    -0.300 NA
ATOM     21  H   UNL     1      10.407  -2.123  23.947  0.00  0.00    +0.123 HD
BRANCH  17  22
ATOM     22  O   UNL     1       9.819  -1.037  21.151  0.00  0.00    -0.387 OA
ATOM     23  H   UNL     1      10.442  -0.453  21.614  0.00  0.00    +0.210 HD
ENDBRANCH  17  22
BRANCH  18  24
ATOM     24  O   UNL     1       7.516   0.593  23.064  0.00  0.00    -0.388 OA
ATOM     25  H   UNL     1       7.599   1.322  23.702  0.00  0.00    +0.210 HD
ENDBRANCH  18  24
BRANCH  19  26
ATOM     26  C   UNL     1       9.443  -0.276  25.570  0.00  0.00    +0.177 C 
BRANCH  26  27
ATOM     27  O   UNL     1       9.598   1.101  25.236  0.00  0.00    -0.393 OA
ATOM     28  H   UNL     1       8.945   1.287  24.534  0.00  0.00    +0.209 HD
ENDBRANCH  26  27
ENDBRANCH  19  26
ENDBRANCH  11  16
TORSDOF 5
ENDMDL
MODEL 4
REMARK VINA RESULT:      -6.2      2.223      3.439
REMARK  Name = 
REMARK  5 active torsions:
REMARK  status: ('A' for Active; 'I' for Inactive)
REMARK    1  A    between atoms: C_5  and  C_12
REMARK    2  A    between atoms: CA_15  and  C_17
REMARK    3  A    between atoms: C_17  and  O_18
REMARK    4  A    between atoms: C_19  and  O_21
REMARK    5  A    between atoms: C_22  and  O_24
REMARK                            x       y       z     vdW  Elec       q    Type
REMARK                         _______ _______ _______ _____ _____    ______ ____
ROOT
ATOM      1  N   UNL     1       9.136  -0.489  27.680  0.00  0.00    -0.329 N 
ATOM      2  H   UNL     1       9.657   0.336  27.946  0.00  0.00    +0.145 HD
ATOM      3  H   UNL     1       9.471  -1.339  28.122  0.00  0.00    +0.145 HD
ATOM      4  C   UNL     1       8.867  -0.663  26.359  0.00  0.00    +0.194 A 
ATOM      5  N   UNL     1       8.681   0.494  25.641  0.00  0.00    -0.294 N 
ATOM      6  H   UNL     1       8.710   1.390  26.100  0.00  0.00    +0.172 HD
ATOM      7  C   UNL     1       8.369   0.515  24.305  0.00  0.00    +0.277 A 
ATOM      8  O   UNL     1       8.194   1.554  23.679  0.00  0.00    -0.266 OA
ATOM      9  C   UNL     1       8.281  -0.793  23.768  0.00  0.00    +0.131 A 
ATOM     10  C   UNL     1       8.494  -1.922  24.506  0.00  0.00    +0.102 A 
ATOM     11  C   UNL     1       8.328  -3.069  23.684  0.00  0.00    +0.016 A 
ATOM     12  C   UNL     1       8.013  -2.550  22.428  0.00  0.00    +0.090 A 
ATOM     13  N   UNL     1       7.977  -1.178  22.495  0.00  0.00    -0.355 N 
ATOM     14  H   UNL     1       7.761  -0.549  21.730  0.00  0.00    +0.166 HD
ATOM     15  N   UNL     1       8.809  -1.870  25.867  0.00  0.00    -0.214 NA
ENDROOT
BRANCH  11  16
ATOM     16  C   UNL     1       8.505  -4.517  24.077  0.00  0.00    +0.119 C 
ATOM     17  C   UNL     1       8.935  -4.752  25.545  0.00  0.00    +0.166 C 
ATOM     18  C   UNL     1       7.647  -5.137  26.297  0.00  0.00    +0.164 C 
ATOM     19  CA  UNL     1       6.540  -5.014  25.247  0.00  0.00    +0.111 C 
ATOM     20  N   UNL     1       7.207  -5.249  23.944  0.00  0.00    -0.300 NA
ATOM     21  H   UNL     1       7.425  -6.240  23.851  0.00  0.00    +0.123 HD
BRANCH  17  22
ATOM     22  O   UNL     1       9.877  -5.842  25.632  0.00  0.00    -0.387 OA
ATOM     23  H   UNL     1       9.403  -6.670  25.445  0.00  0.00    +0.210 HD
ENDBRANCH  17  22
BRANCH  18  24
ATOM     24  O   UNL     1       7.427  -4.270  27.405  0.00  0.00    -0.388 OA
ATOM     25  H   UNL     1       6.559  -4.473  27.793  0.00  0.00    +0.210 HD
ENDBRANCH  18  24
BRANCH  19  26
ATOM     26  C   UNL     1       5.382  -5.988  25.505  0.00  0.00    +0.177 C 
BRANCH  26  27
ATOM     27  O   UNL     1       5.610  -6.733  26.697  0.00  0.00    -0.393 OA
ATOM     28  H   UNL     1       4.787  -6.672  27.219  0.00  0.00    +0.209 HD
ENDBRANCH  26  27
ENDBRANCH  19  26
ENDBRANCH  11  16
TORSDOF 5
ENDMDL
MODEL 5
REMARK VINA RESULT:      -6.0      2.357      6.153
REMARK  Name = 
REMARK  5 active torsions:
REMARK  status: ('A' for Active; 'I' for Inactive)
REMARK    1  A    between atoms: C_5  and  C_12
REMARK    2  A    between atoms: CA_15  and  C_17
REMARK    3  A    between atoms: C_17  and  O_18
REMARK    4  A    between atoms: C_19  and  O_21
REMARK    5  A    between atoms: C_22  and  O_24
REMARK                            x       y       z     vdW  Elec       q    Type
REMARK                         _______ _______ _______ _____ _____    ______ ____
ROOT
ATOM      1  N   UNL     1       9.625  -5.103  26.373  0.00  0.00    -0.329 N 
ATOM      2  H   UNL     1       9.141  -5.911  26.740  0.00  0.00    +0.145 HD
ATOM      3  H   UNL     1       9.949  -4.464  27.092  0.00  0.00    +0.145 HD
ATOM      4  C   UNL     1       9.058  -4.455  25.322  0.00  0.00    +0.194 A 
ATOM      5  N   UNL     1       8.354  -5.252  24.451  0.00  0.00    -0.294 N 
ATOM      6  H   UNL     1       8.314  -6.249  24.591  0.00  0.00    +0.172 HD
ATOM      7  C   UNL     1       7.742  -4.780  23.317  0.00  0.00    +0.277 A 
ATOM      8  O   UNL     1       7.128  -5.506  22.543  0.00  0.00    -0.266 OA
ATOM      9  C   UNL     1       7.915  -3.383  23.172  0.00  0.00    +0.131 A 
ATOM     10  C   UNL     1       8.603  -2.616  24.070  0.00  0.00    +0.102 A 
ATOM     11  C   UNL     1       8.600  -1.261  23.641  0.00  0.00    +0.016 A 
ATOM     12  C   UNL     1       7.871  -1.277  22.452  0.00  0.00    +0.090 A 
ATOM     13  N   UNL     1       7.474  -2.563  22.175  0.00  0.00    -0.355 N 
ATOM     14  H   UNL     1       6.941  -2.862  21.366  0.00  0.00    +0.166 HD
ATOM     15  N   UNL     1       9.203  -3.163  25.206  0.00  0.00    -0.214 NA
ENDROOT
BRANCH  11  16
ATOM     16  C   UNL     1       9.208  -0.071  24.346  0.00  0.00    +0.119 C 
ATOM     17  C   UNL     1      10.371   0.617  23.591  0.00  0.00    +0.166 C 
ATOM     18  C   UNL     1       9.752   1.857  22.920  0.00  0.00    +0.164 C 
ATOM     19  CA  UNL     1       8.259   1.764  23.247  0.00  0.00    +0.111 C 
ATOM     20  N   UNL     1       8.183   1.005  24.518  0.00  0.00    -0.300 NA
ATOM     21  H   UNL     1       8.492   1.600  25.285  0.00  0.00    +0.123 HD
BRANCH  17  22
ATOM     22  O   UNL     1      11.396   1.042  24.514  0.00  0.00    -0.387 OA
ATOM     23  H   UNL     1      11.658   1.949  24.282  0.00  0.00    +0.210 HD
ENDBRANCH  17  22
BRANCH  18  24
ATOM     24  O   UNL     1       9.989   1.846  21.515  0.00  0.00    -0.388 OA
ATOM     25  H   UNL     1      10.771   2.393  21.326  0.00  0.00    +0.210 HD
ENDBRANCH  18  24
BRANCH  19  26
ATOM     26  C   UNL     1       7.596   3.145  23.341  0.00  0.00    +0.177 C 
BRANCH  26  27
ATOM     27  O   UNL     1       8.134   4.027  22.359  0.00  0.00    -0.393 OA
ATOM     28  H   UNL     1       7.851   4.926  22.615  0.00  0.00    +0.209 HD
ENDBRANCH  26  27
ENDBRANCH  19  26
ENDBRANCH  11  16
TORSDOF 5
ENDMDL
MODEL 6
REMARK VINA RESULT:      -6.0      2.055      6.205
REMARK  Name = 
REMARK  5 active torsions:
REMARK  status: ('A' for Active; 'I' for Inactive)
REMARK    1  A    between atoms: C_5  and  C_12
REMARK    2  A    between atoms: CA_15  and  C_17
REMARK    3  A    between atoms: C_17  and  O_18
REMARK    4  A    between atoms: C_19  and  O_21
REMARK    5  A    between atoms: C_22  and  O_24
REMARK                            x       y       z     vdW  Elec       q    Type
REMARK                         _______ _______ _______ _____ _____    ______ ____
ROOT
ATOM      1  N   UNL     1       7.658  -2.622  26.494  0.00  0.00    -0.329 N 
ATOM      2  H   UNL     1       6.788  -3.128  26.603  0.00  0.00    +0.145 HD
ATOM      3  H   UNL     1       7.765  -1.856  27.152  0.00  0.00    +0.145 HD
ATOM      4  C   UNL     1       8.030  -2.277  25.234  0.00  0.00    +0.194 A 
ATOM      5  N   UNL     1       7.653  -3.158  24.248  0.00  0.00    -0.294 N 
ATOM      6  H   UNL     1       7.170  -4.011  24.484  0.00  0.00    +0.172 HD
ATOM      7  C   UNL     1       7.968  -2.994  22.924  0.00  0.00    +0.277 A 
ATOM      8  O   UNL     1       7.637  -3.795  22.057  0.00  0.00    -0.266 OA
ATOM      9  C   UNL     1       8.708  -1.806  22.705  0.00  0.00    +0.131 A 
ATOM     10  C   UNL     1       9.047  -0.940  23.706  0.00  0.00    +0.102 A 
ATOM     11  C   UNL     1       9.787   0.146  23.166  0.00  0.00    +0.016 A 
ATOM     12  C   UNL     1       9.857  -0.129  21.801  0.00  0.00    +0.090 A 
ATOM     13  N   UNL     1       9.214  -1.313  21.538  0.00  0.00    -0.355 N 
ATOM     14  H   UNL     1       9.123  -1.755  20.630  0.00  0.00    +0.166 HD
ATOM     15  N   UNL     1       8.693  -1.170  25.037  0.00  0.00    -0.214 NA
ENDROOT
BRANCH  11  16
ATOM     16  C   UNL     1      10.328   1.349  23.905  0.00  0.00    +0.119 C 
ATOM     17  C   UNL     1      10.368   2.661  23.084  0.00  0.00    +0.166 C 
ATOM     18  C   UNL     1       9.131   3.464  23.528  0.00  0.00    +0.164 C 
ATOM     19  CA  UNL     1       8.403   2.538  24.504  0.00  0.00    +0.111 C 
ATOM     20  N   UNL     1       9.457   1.667  25.079  0.00  0.00    -0.300 NA
ATOM     21  H   UNL     1      10.018   2.205  25.736  0.00  0.00    +0.123 HD
BRANCH  17  22
ATOM     22  O   UNL     1      11.558   3.417  23.391  0.00  0.00    -0.387 OA
ATOM     23  H   UNL     1      12.179   2.833  23.857  0.00  0.00    +0.210 HD
ENDBRANCH  17  22
BRANCH  18  24
ATOM     24  O   UNL     1       8.317   3.803  22.409  0.00  0.00    -0.388 OA
ATOM     25  H   UNL     1       8.777   3.538  21.595  0.00  0.00    +0.210 HD
ENDBRANCH  18  24
BRANCH  19  26
ATOM     26  C   UNL     1       7.627   3.315  25.577  0.00  0.00    +0.177 C 
BRANCH  26  27
ATOM     27  O   UNL     1       7.252   4.600  25.090  0.00  0.00    -0.393 OA
ATOM     28  H   UNL     1       6.663   4.442  24.327  0.00  0.00    +0.209 HD
ENDBRANCH  26  27
ENDBRANCH  19  26
ENDBRANCH  11  16
TORSDOF 5
ENDMDL
MODEL 7
REMARK VINA RESULT:      -6.0      2.396      3.091
REMARK  Name = 
REMARK  5 active torsions:
REMARK  status: ('A' for Active; 'I' for Inactive)
REMARK    1  A    between atoms: C_5  and  C_12
REMARK    2  A    between atoms: CA_15  and  C_17
REMARK    3  A    between atoms: C_17  and  O_18
REMARK    4  A    between atoms: C_19  and  O_21
REMARK    5  A    between atoms: C_22  and  O_24
REMARK                            x       y       z     vdW  Elec       q    Type
REMARK                         _______ _______ _______ _____ _____    ______ ____
ROOT
ATOM      1  N   UNL     1       5.793   1.874  22.622  0.00  0.00    -0.329 N 
ATOM      2  H   UNL     1       5.853   2.874  22.766  0.00  0.00    +0.145 HD
ATOM      3  H   UNL     1       5.031   1.437  23.130  0.00  0.00    +0.145 HD
ATOM      4  C   UNL     1       6.946   1.159  22.702  0.00  0.00    +0.194 A 
ATOM      5  N   UNL     1       8.077   1.818  22.283  0.00  0.00    -0.294 N 
ATOM      6  H   UNL     1       8.014   2.752  21.911  0.00  0.00    +0.172 HD
ATOM      7  C   UNL     1       9.323   1.246  22.260  0.00  0.00    +0.277 A 
ATOM      8  O   UNL     1      10.321   1.842  21.871  0.00  0.00    -0.266 OA
ATOM      9  C   UNL     1       9.295  -0.089  22.733  0.00  0.00    +0.131 A 
ATOM     10  C   UNL     1       8.155  -0.707  23.163  0.00  0.00    +0.102 A 
ATOM     11  C   UNL     1       8.457  -2.036  23.568  0.00  0.00    +0.016 A 
ATOM     12  C   UNL     1       9.830  -2.157  23.356  0.00  0.00    +0.090 A 
ATOM     13  N   UNL     1      10.321  -0.982  22.842  0.00  0.00    -0.355 N 
ATOM     14  H   UNL     1      11.284  -0.799  22.584  0.00  0.00    +0.166 HD
ATOM     15  N   UNL     1       6.915  -0.063  23.159  0.00  0.00    -0.214 NA
ENDROOT
BRANCH  11  16
ATOM     16  C   UNL     1       7.507  -3.060  24.144  0.00  0.00    +0.119 C 
ATOM     17  C   UNL     1       6.036  -2.925  23.683  0.00  0.00    +0.166 C 
ATOM     18  C   UNL     1       5.850  -3.984  22.580  0.00  0.00    +0.164 C 
ATOM     19  CA  UNL     1       7.239  -4.602  22.404  0.00  0.00    +0.111 C 
ATOM     20  N   UNL     1       7.911  -4.435  23.715  0.00  0.00    -0.300 NA
ATOM     21  H   UNL     1       7.513  -5.092  24.385  0.00  0.00    +0.123 HD
BRANCH  17  22
ATOM     22  O   UNL     1       5.133  -3.213  24.771  0.00  0.00    -0.387 OA
ATOM     23  H   UNL     1       5.647  -3.596  25.502  0.00  0.00    +0.210 HD
ENDBRANCH  17  22
BRANCH  18  24
ATOM     24  O   UNL     1       5.378  -3.386  21.376  0.00  0.00    -0.388 OA
ATOM     25  H   UNL     1       5.434  -2.420  21.464  0.00  0.00    +0.210 HD
ENDBRANCH  18  24
BRANCH  19  26
ATOM     26  C   UNL     1       7.172  -6.068  21.955  0.00  0.00    +0.177 C 
BRANCH  26  27
ATOM     27  O   UNL     1       5.838  -6.424  21.603  0.00  0.00    -0.393 OA
ATOM     28  H   UNL     1       5.284  -6.209  22.378  0.00  0.00    +0.209 HD
ENDBRANCH  26  27
ENDBRANCH  19  26
ENDBRANCH  11  16
TORSDOF 5
ENDMDL
MODEL 8
REMARK VINA RESULT:      -5.9      2.590      6.067
REMARK  Name = 
REMARK  5 active torsions:
REMARK  status: ('A' for Active; 'I' for Inactive)
REMARK    1  A    between atoms: C_5  and  C_12
REMARK    2  A    between atoms: CA_15  and  C_17
REMARK    3  A    between atoms: C_17  and  O_18
REMARK    4  A    between atoms: C_19  and  O_21
REMARK    5  A    between atoms: C_22  and  O_24
REMARK                            x       y       z     vdW  Elec       q    Type
REMARK                         _______ _______ _______ _____ _____    ______ ____
ROOT
ATOM      1  N   UNL     1       4.355  -2.157  25.945  0.00  0.00    -0.329 N 
ATOM      2  H   UNL     1       3.373  -2.313  25.756  0.00  0.00    +0.145 HD
ATOM      3  H   UNL     1       4.532  -1.334  26.511  0.00  0.00    +0.145 HD
ATOM      4  C   UNL     1       5.219  -2.264  24.901  0.00  0.00    +0.194 A 
ATOM      5  N   UNL     1       4.870  -3.184  23.941  0.00  0.00    -0.294 N 
ATOM      6  H   UNL     1       4.046  -3.751  24.054  0.00  0.00    +0.172 HD
ATOM      7  C   UNL     1       5.636  -3.452  22.835  0.00  0.00    +0.277 A 
ATOM      8  O   UNL     1       5.319  -4.285  21.993  0.00  0.00    -0.266 OA
ATOM      9  C   UNL     1       6.807  -2.657  22.804  0.00  0.00    +0.131 A 
ATOM     10  C   UNL     1       7.112  -1.735  23.765  0.00  0.00    +0.102 A 
ATOM     11  C   UNL     1       8.349  -1.109  23.450  0.00  0.00    +0.016 A 
ATOM     12  C   UNL     1       8.745  -1.710  22.256  0.00  0.00    +0.090 A 
ATOM     13  N   UNL     1       7.814  -2.648  21.883  0.00  0.00    -0.355 N 
ATOM     14  H   UNL     1       7.859  -3.240  21.062  0.00  0.00    +0.166 HD
ATOM     15  N   UNL     1       6.285  -1.512  24.868  0.00  0.00    -0.214 NA
ENDROOT
BRANCH  11  16
ATOM     16  C   UNL     1       9.044  -0.007  24.215  0.00  0.00    +0.119 C 
ATOM     17  C   UNL     1      10.263   0.622  23.499  0.00  0.00    +0.166 C 
ATOM     18  C   UNL     1       9.749   1.939  22.888  0.00  0.00    +0.164 C 
ATOM     19  CA  UNL     1       8.252   1.949  23.204  0.00  0.00    +0.111 C 
ATOM     20  N   UNL     1       8.106   1.138  24.436  0.00  0.00    -0.300 NA
ATOM     21  H   UNL     1       8.455   1.668  25.233  0.00  0.00    +0.123 HD
BRANCH  17  22
ATOM     22  O   UNL     1      11.312   0.919  24.445  0.00  0.00    -0.387 OA
ATOM     23  H   UNL     1      11.174   1.820  24.782  0.00  0.00    +0.210 HD
ENDBRANCH  17  22
BRANCH  18  24
ATOM     24  O   UNL     1       9.996   1.978  21.485  0.00  0.00    -0.388 OA
ATOM     25  H   UNL     1       9.292   1.486  21.030  0.00  0.00    +0.210 HD
ENDBRANCH  18  24
BRANCH  19  26
ATOM     26  C   UNL     1       7.700   3.373  23.364  0.00  0.00    +0.177 C 
BRANCH  26  27
ATOM     27  O   UNL     1       8.320   4.258  22.435  0.00  0.00    -0.393 OA
ATOM     28  H   UNL     1       9.045   4.698  22.920  0.00  0.00    +0.209 HD
ENDBRANCH  26  27
ENDBRANCH  19  26
ENDBRANCH  11  16
TORSDOF 5
ENDMDL
MODEL 9
REMARK VINA RESULT:      -5.9      2.121      3.420
REMARK  Name = 
REMARK  5 active torsions:
REMARK  status: ('A' for Active; 'I' for Inactive)
REMARK    1  A    between atoms: C_5  and  C_12
REMARK    2  A    between atoms: CA_15  and  C_17
REMARK    3  A    between atoms: C_17  and  O_18
REMARK    4  A    between atoms: C_19  and  O_21
REMARK    5  A    between atoms: C_22  and  O_24
REMARK                            x       y       z     vdW  Elec       q    Type
REMARK                         _______ _______ _______ _____ _____    ______ ____
ROOT
ATOM      1  N   UNL     1       8.961  -0.304  27.776  0.00  0.00    -0.329 N 
ATOM      2  H   UNL     1       9.674   0.222  28.263  0.00  0.00    +0.145 HD
ATOM      3  H   UNL     1       8.632  -1.113  28.292  0.00  0.00    +0.145 HD
ATOM      4  C   UNL     1       9.170  -0.577  26.462  0.00  0.00    +0.194 A 
ATOM      5  N   UNL     1       9.873   0.379  25.768  0.00  0.00    -0.294 N 
ATOM      6  H   UNL     1      10.164   1.229  26.223  0.00  0.00    +0.172 HD
ATOM      7  C   UNL     1      10.151   0.291  24.427  0.00  0.00    +0.277 A 
ATOM      8  O   UNL     1      10.768   1.158  23.818  0.00  0.00    -0.266 OA
ATOM      9  C   UNL     1       9.640  -0.903  23.863  0.00  0.00    +0.131 A 
ATOM     10  C   UNL     1       8.964  -1.844  24.588  0.00  0.00    +0.102 A 
ATOM     11  C   UNL     1       8.581  -2.916  23.738  0.00  0.00    +0.016 A 
ATOM     12  C   UNL     1       9.073  -2.555  22.484  0.00  0.00    +0.090 A 
ATOM     13  N   UNL     1       9.698  -1.335  22.571  0.00  0.00    -0.355 N 
ATOM     14  H   UNL     1      10.134  -0.832  21.806  0.00  0.00    +0.166 HD
ATOM     15  N   UNL     1       8.715  -1.690  25.954  0.00  0.00    -0.214 NA
ENDROOT
BRANCH  11  16
ATOM     16  C   UNL     1       7.851  -4.182  24.125  0.00  0.00    +0.119 C 
ATOM     17  C   UNL     1       6.320  -4.031  24.296  0.00  0.00    +0.166 C 
ATOM     18  C   UNL     1       5.703  -4.569  22.991  0.00  0.00    +0.164 C 
ATOM     19  CA  UNL     1       6.908  -4.910  22.111  0.00  0.00    +0.111 C 
ATOM     20  N   UNL     1       8.010  -5.215  23.055  0.00  0.00    -0.300 NA
ATOM     21  H   UNL     1       7.845  -6.124  23.484  0.00  0.00    +0.123 HD
BRANCH  17  22
ATOM     22  O   UNL     1       5.851  -4.828  25.404  0.00  0.00    -0.387 OA
ATOM     23  H   UNL     1       6.336  -4.558  26.202  0.00  0.00    +0.210 HD
ENDBRANCH  17  22
BRANCH  18  24
ATOM     24  O   UNL     1       4.864  -3.590  22.386  0.00  0.00    -0.388 OA
ATOM     25  H   UNL     1       4.193  -4.044  21.847  0.00  0.00    +0.210 HD
ENDBRANCH  18  24
BRANCH  19  26
ATOM     26  C   UNL     1       6.616  -6.068  21.147  0.00  0.00    +0.177 C 
BRANCH  26  27
ATOM     27  O   UNL     1       5.240  -6.436  21.209  0.00  0.00    -0.393 OA
ATOM     28  H   UNL     1       4.739  -5.679  20.851  0.00  0.00    +0.209 HD
ENDBRANCH  26  27
ENDBRANCH  19  26
ENDBRANCH  11  16
TORSDOF 5
ENDMDL
