MODEL 1
REMARK VINA RESULT:      -7.1      0.000      0.000
REMARK  Name = 
REMARK  9 active torsions:
REMARK  status: ('A' for Active; 'I' for Inactive)
REMARK    1  A    between atoms: C_1  and  C_2
REMARK    2  A    between atoms: N_6  and  C_11
REMARK    3  A    between atoms: C_14  and  C_16
REMARK    4  A    between atoms: C_16  and  O_17
REMARK    5  A    between atoms: O_17  and  P_18
REMARK    6  A    between atoms: P_18  and  O_19
REMARK    7  A    between atoms: P_18  and  O_20
REMARK    8  A    between atoms: C_22  and  O_24
REMARK    9  A    between atoms: C_25  and  O_27
REMARK                            x       y       z     vdW  Elec       q    Type
REMARK                         _______ _______ _______ _____ _____    ______ ____
ROOT
ATOM      1  C   UNL     1       8.954  -4.064  24.625  0.00  0.00    +0.252 C 
ATOM      2  C   UNL     1       8.918  -4.971  25.866  0.00  0.00    +0.195 C 
ATOM      3  C   UNL     1       7.458  -5.409  26.005  0.00  0.00    +0.178 C 
ATOM      4  C   UNL     1       6.738  -4.653  24.895  0.00  0.00    +0.178 C 
ATOM      5  O   UNL     1       7.733  -4.356  23.904  0.00  0.00    -0.346 OA
ENDROOT
BRANCH   1  11
ATOM      6  C   UNL     1      10.204   2.101  22.103  0.00  0.00    +0.044 C 
ATOM      7  C   UNL     1       9.902   0.784  22.758  0.00  0.00    -0.048 A 
ATOM      8  C   UNL     1       9.577   0.754  24.122  0.00  0.00    +0.033 A 
ATOM      9  C   UNL     1       9.286  -0.470  24.735  0.00  0.00    +0.089 A 
ATOM     10  C   UNL     1       9.341  -1.645  23.986  0.00  0.00    +0.071 A 
ATOM     11  N   UNL     1       9.035  -2.635  24.897  0.00  0.00    -0.301 N 
ATOM     12  C   UNL     1       8.729  -2.019  26.083  0.00  0.00    +0.202 A 
ATOM     13  C   UNL     1       9.658  -1.651  22.623  0.00  0.00    +0.028 A 
ATOM     14  N   UNL     1       8.915  -0.723  26.028  0.00  0.00    -0.236 NA
ATOM     15  C   UNL     1       9.937  -0.412  22.027  0.00  0.00    +0.005 A 
ENDBRANCH   1  11
BRANCH   2  16
ATOM     16  O   UNL     1       9.756  -6.126  25.653  0.00  0.00    -0.385 OA
ATOM     17  H   UNL     1      10.627  -5.960  26.056  0.00  0.00    +0.210 HD
ENDBRANCH   2  16
BRANCH   3  18
ATOM     18  O   UNL     1       6.941  -5.056  27.285  0.00  0.00    -0.386 OA
ATOM     19  H   UNL     1       6.292  -5.741  27.532  0.00  0.00    +0.210 HD
ENDBRANCH   3  18
BRANCH   4  20
ATOM     20  C   UNL     1       5.602  -5.432  24.251  0.00  0.00    +0.206 C 
BRANCH  20  21
ATOM     21  O   UNL     1       4.482  -5.515  25.126  0.00  0.00    -0.284 OA
BRANCH  21  22
ATOM     22  P   UNL     1       3.624  -7.000  24.897  0.00  0.00    +0.472 P 
ATOM     23  O   UNL     1       2.856  -8.329  24.693  0.00  0.00    -0.228 OA
BRANCH  22  24
ATOM     24  O   UNL     1       4.429  -7.485  26.239  0.00  0.00    -0.303 OA
ATOM     25  H   UNL     1       3.980  -7.195  27.053  0.00  0.00    +0.222 HD
ENDBRANCH  22  24
BRANCH  22  26
ATOM     26  O   UNL     1       4.851  -7.399  23.888  0.00  0.00    -0.303 OA
ATOM     27  H   UNL     1       5.114  -8.304  24.143  0.00  0.00    +0.222 HD
ENDBRANCH  22  26
ENDBRANCH  21  22
ENDBRANCH  20  21
ENDBRANCH   4  20
TORSDOF 8
ENDMDL
MODEL 2
REMARK VINA RESULT:      -6.9      1.681      2.270
REMARK  Name = 
REMARK  9 active torsions:
REMARK  status: ('A' for Active; 'I' for Inactive)
REMARK    1  A    between atoms: C_1  and  C_2
REMARK    2  A    between atoms: N_6  and  C_11
REMARK    3  A    between atoms: C_14  and  C_16
REMARK    4  A    between atoms: C_16  and  O_17
REMARK    5  A    between atoms: O_17  and  P_18
REMARK    6  A    between atoms: P_18  and  O_19
REMARK    7  A    between atoms: P_18  and  O_20
REMARK    8  A    between atoms: C_22  and  O_24
REMARK    9  A    between atoms: C_25  and  O_27
REMARK                            x       y       z     vdW  Elec       q    Type
REMARK                         _______ _______ _______ _____ _____    ______ ____
ROOT
ATOM      1  C   UNL     1       8.983  -3.729  24.696  0.00  0.00    +0.252 C 
ATOM      2  C   UNL     1       8.854  -4.789  25.802  0.00  0.00    +0.195 C 
ATOM      3  C   UNL     1       7.380  -5.203  25.794  0.00  0.00    +0.178 C 
ATOM      4  C   UNL     1       6.745  -4.291  24.752  0.00  0.00    +0.178 C 
ATOM      5  O   UNL     1       7.806  -3.892  23.870  0.00  0.00    -0.346 OA
ENDROOT
BRANCH   1  11
ATOM      6  C   UNL     1      10.501   2.678  23.089  0.00  0.00    +0.044 C 
ATOM      7  C   UNL     1      10.135   1.295  23.545  0.00  0.00    -0.048 A 
ATOM      8  C   UNL     1       9.723   1.096  24.870  0.00  0.00    +0.033 A 
ATOM      9  C   UNL     1       9.371  -0.189  25.298  0.00  0.00    +0.089 A 
ATOM     10  C   UNL     1       9.453  -1.258  24.406  0.00  0.00    +0.071 A 
ATOM     11  N   UNL     1       9.072  -2.350  25.157  0.00  0.00    -0.301 N 
ATOM     12  C   UNL     1       8.702  -1.886  26.393  0.00  0.00    +0.202 A 
ATOM     13  C   UNL     1       9.857  -1.094  23.076  0.00  0.00    +0.028 A 
ATOM     14  N   UNL     1       8.914  -0.599  26.521  0.00  0.00    -0.236 NA
ATOM     15  C   UNL     1      10.196   0.204  22.666  0.00  0.00    +0.005 A 
ENDBRANCH   1  11
BRANCH   2  16
ATOM     16  O   UNL     1       9.683  -5.927  25.489  0.00  0.00    -0.385 OA
ATOM     17  H   UNL     1      10.383  -5.999  26.162  0.00  0.00    +0.210 HD
ENDBRANCH   2  16
BRANCH   3  18
ATOM     18  O   UNL     1       6.790  -5.007  27.075  0.00  0.00    -0.386 OA
ATOM     19  H   UNL     1       7.512  -4.789  27.694  0.00  0.00    +0.210 HD
ENDBRANCH   3  18
BRANCH   4  20
ATOM     20  C   UNL     1       5.638  -4.949  23.943  0.00  0.00    +0.206 C 
BRANCH  20  21
ATOM     21  O   UNL     1       6.127  -6.095  23.253  0.00  0.00    -0.284 OA
BRANCH  21  22
ATOM     22  P   UNL     1       6.014  -5.882  21.539  0.00  0.00    +0.472 P 
ATOM     23  O   UNL     1       5.914  -5.693  20.006  0.00  0.00    -0.228 OA
BRANCH  22  24
ATOM     24  O   UNL     1       7.597  -5.475  21.648  0.00  0.00    -0.303 OA
ATOM     25  H   UNL     1       7.778  -4.941  22.441  0.00  0.00    +0.222 HD
ENDBRANCH  22  24
BRANCH  22  26
ATOM     26  O   UNL     1       5.491  -4.372  21.895  0.00  0.00    -0.303 OA
ATOM     27  H   UNL     1       4.730  -4.495  22.495  0.00  0.00    +0.222 HD
ENDBRANCH  22  26
ENDBRANCH  21  22
ENDBRANCH  20  21
ENDBRANCH   4  20
TORSDOF 8
ENDMDL
MODEL 3
REMARK VINA RESULT:      -6.7      2.021      2.499
REMARK  Name = 
REMARK  9 active torsions:
REMARK  status: ('A' for Active; 'I' for Inactive)
REMARK    1  A    between atoms: C_1  and  C_2
REMARK    2  A    between atoms: N_6  and  C_11
REMARK    3  A    between atoms: C_14  and  C_16
REMARK    4  A    between atoms: C_16  and  O_17
REMARK    5  A    between atoms: O_17  and  P_18
REMARK    6  A    between atoms: P_18  and  O_19
REMARK    7  A    between atoms: P_18  and  O_20
REMARK    8  A    between atoms: C_22  and  O_24
REMARK    9  A    between atoms: C_25  and  O_27
REMARK                            x       y       z     vdW  Elec       q    Type
REMARK                         _______ _______ _______ _____ _____    ______ ____
ROOT
ATOM      1  C   UNL     1       7.846  -4.527  23.741  0.00  0.00    +0.252 C 
ATOM      2  C   UNL     1       8.740  -4.770  24.968  0.00  0.00    +0.195 C 
ATOM      3  C   UNL     1       7.800  -5.306  26.052  0.00  0.00    +0.178 C 
ATOM      4  C   UNL     1       6.421  -5.247  25.408  0.00  0.00    +0.178 C 
ATOM      5  O   UNL     1       6.640  -5.287  23.989  0.00  0.00    -0.346 OA
ENDROOT
BRANCH   1  11
ATOM      6  C   UNL     1      10.126   1.627  22.047  0.00  0.00    +0.044 C 
ATOM      7  C   UNL     1       9.519   0.306  22.421  0.00  0.00    -0.048 A 
ATOM      8  C   UNL     1       8.137   0.225  22.648  0.00  0.00    +0.033 A 
ATOM      9  C   UNL     1       7.564  -1.006  22.988  0.00  0.00    +0.089 A 
ATOM     10  C   UNL     1       8.378  -2.132  23.115  0.00  0.00    +0.071 A 
ATOM     11  N   UNL     1       7.505  -3.134  23.481  0.00  0.00    -0.301 N 
ATOM     12  C   UNL     1       6.241  -2.602  23.465  0.00  0.00    +0.202 A 
ATOM     13  C   UNL     1       9.759  -2.087  22.892  0.00  0.00    +0.028 A 
ATOM     14  N   UNL     1       6.251  -1.315  23.217  0.00  0.00    -0.236 NA
ATOM     15  C   UNL     1      10.310  -0.845  22.543  0.00  0.00    +0.005 A 
ENDBRANCH   1  11
BRANCH   2  16
ATOM     16  O   UNL     1       9.741  -5.760  24.657  0.00  0.00    -0.385 OA
ATOM     17  H   UNL     1       9.670  -6.491  25.298  0.00  0.00    +0.210 HD
ENDBRANCH   2  16
BRANCH   3  18
ATOM     18  O   UNL     1       7.855  -4.492  27.220  0.00  0.00    -0.386 OA
ATOM     19  H   UNL     1       6.993  -4.573  27.668  0.00  0.00    +0.210 HD
ENDBRANCH   3  18
BRANCH   4  20
ATOM     20  C   UNL     1       5.501  -6.389  25.808  0.00  0.00    +0.206 C 
BRANCH  20  21
ATOM     21  O   UNL     1       5.717  -6.765  27.164  0.00  0.00    -0.284 OA
BRANCH  21  22
ATOM     22  P   UNL     1       4.396  -6.269  28.165  0.00  0.00    +0.472 P 
ATOM     23  O   UNL     1       3.213  -5.825  29.060  0.00  0.00    -0.228 OA
BRANCH  22  24
ATOM     24  O   UNL     1       5.512  -5.316  28.890  0.00  0.00    -0.303 OA
ATOM     25  H   UNL     1       5.149  -4.441  29.114  0.00  0.00    +0.222 HD
ENDBRANCH  22  24
BRANCH  22  26
ATOM     26  O   UNL     1       4.767  -7.579  29.074  0.00  0.00    -0.303 OA
ATOM     27  H   UNL     1       4.001  -7.711  29.666  0.00  0.00    +0.222 HD
ENDBRANCH  22  26
ENDBRANCH  21  22
ENDBRANCH  20  21
ENDBRANCH   4  20
TORSDOF 8
ENDMDL
MODEL 4
REMARK VINA RESULT:      -6.6      2.246      3.533
REMARK  Name = 
REMARK  9 active torsions:
REMARK  status: ('A' for Active; 'I' for Inactive)
REMARK    1  A    between atoms: C_1  and  C_2
REMARK    2  A    between atoms: N_6  and  C_11
REMARK    3  A    between atoms: C_14  and  C_16
REMARK    4  A    between atoms: C_16  and  O_17
REMARK    5  A    between atoms: O_17  and  P_18
REMARK    6  A    between atoms: P_18  and  O_19
REMARK    7  A    between atoms: P_18  and  O_20
REMARK    8  A    between atoms: C_22  and  O_24
REMARK    9  A    between atoms: C_25  and  O_27
REMARK                            x       y       z     vdW  Elec       q    Type
REMARK                         _______ _______ _______ _____ _____    ______ ____
ROOT
ATOM      1  C   UNL     1       6.676  -2.755  22.899  0.00  0.00    +0.252 C 
ATOM      2  C   UNL     1       6.639  -3.889  21.861  0.00  0.00    +0.195 C 
ATOM      3  C   UNL     1       6.436  -5.172  22.672  0.00  0.00    +0.178 C 
ATOM      4  C   UNL     1       6.463  -4.702  24.121  0.00  0.00    +0.178 C 
ATOM      5  O   UNL     1       6.091  -3.314  24.098  0.00  0.00    -0.346 OA
ENDROOT
BRANCH   1  11
ATOM      6  C   UNL     1      10.546   2.780  23.459  0.00  0.00    +0.044 C 
ATOM      7  C   UNL     1       9.776   1.495  23.369  0.00  0.00    -0.048 A 
ATOM      8  C   UNL     1      10.432   0.282  23.626  0.00  0.00    +0.033 A 
ATOM      9  C   UNL     1       9.716  -0.919  23.552  0.00  0.00    +0.089 A 
ATOM     10  C   UNL     1       8.365  -0.894  23.206  0.00  0.00    +0.071 A 
ATOM     11  N   UNL     1       7.999  -2.224  23.199  0.00  0.00    -0.301 N 
ATOM     12  C   UNL     1       9.085  -2.949  23.619  0.00  0.00    +0.202 A 
ATOM     13  C   UNL     1       7.679   0.297  22.947  0.00  0.00    +0.028 A 
ATOM     14  N   UNL     1      10.143  -2.196  23.794  0.00  0.00    -0.236 NA
ATOM     15  C   UNL     1       8.414   1.490  23.036  0.00  0.00    +0.005 A 
ENDBRANCH   1  11
BRANCH   2  16
ATOM     16  O   UNL     1       5.526  -3.697  20.965  0.00  0.00    -0.385 OA
ATOM     17  H   UNL     1       4.758  -4.190  21.307  0.00  0.00    +0.210 HD
ENDBRANCH   2  16
BRANCH   3  18
ATOM     18  O   UNL     1       7.481  -6.106  22.417  0.00  0.00    -0.386 OA
ATOM     19  H   UNL     1       7.331  -6.467  21.523  0.00  0.00    +0.210 HD
ENDBRANCH   3  18
BRANCH   4  20
ATOM     20  C   UNL     1       5.517  -5.462  25.037  0.00  0.00    +0.206 C 
BRANCH  20  21
ATOM     21  O   UNL     1       6.229  -6.075  26.107  0.00  0.00    -0.284 OA
BRANCH  21  22
ATOM     22  P   UNL     1       7.622  -5.145  26.539  0.00  0.00    +0.472 P 
ATOM     23  O   UNL     1       8.870  -4.314  26.926  0.00  0.00    -0.228 OA
BRANCH  22  24
ATOM     24  O   UNL     1       7.668  -6.123  27.852  0.00  0.00    -0.303 OA
ATOM     25  H   UNL     1       7.007  -5.863  28.518  0.00  0.00    +0.222 HD
ENDBRANCH  22  24
BRANCH  22  26
ATOM     26  O   UNL     1       6.554  -4.106  27.218  0.00  0.00    -0.303 OA
ATOM     27  H   UNL     1       6.478  -3.363  26.589  0.00  0.00    +0.222 HD
ENDBRANCH  22  26
ENDBRANCH  21  22
ENDBRANCH  20  21
ENDBRANCH   4  20
TORSDOF 8
ENDMDL
MODEL 5
REMARK VINA RESULT:      -6.4      4.089      7.154
REMARK  Name = 
REMARK  9 active torsions:
REMARK  status: ('A' for Active; 'I' for Inactive)
REMARK    1  A    between atoms: C_1  and  C_2
REMARK    2  A    between atoms: N_6  and  C_11
REMARK    3  A    between atoms: C_14  and  C_16
REMARK    4  A    between atoms: C_16  and  O_17
REMARK    5  A    between atoms: O_17  and  P_18
REMARK    6  A    between atoms: P_18  and  O_19
REMARK    7  A    between atoms: P_18  and  O_20
REMARK    8  A    between atoms: C_22  and  O_24
REMARK    9  A    between atoms: C_25  and  O_27
REMARK                            x       y       z     vdW  Elec       q    Type
REMARK                         _______ _______ _______ _____ _____    ______ ____
ROOT
ATOM      1  C   UNL     1       8.170  -2.866  25.265  0.00  0.00    +0.252 C 
ATOM      2  C   UNL     1       8.981  -3.414  24.078  0.00  0.00    +0.195 C 
ATOM      3  C   UNL     1       9.562  -2.180  23.383  0.00  0.00    +0.178 C 
ATOM      4  C   UNL     1       8.974  -1.007  24.157  0.00  0.00    +0.178 C 
ATOM      5  O   UNL     1       8.645  -1.513  25.461  0.00  0.00    -0.346 OA
ENDROOT
BRANCH   1  11
ATOM      6  C   UNL     1       2.728  -6.281  23.108  0.00  0.00    +0.044 C 
ATOM      7  C   UNL     1       3.865  -5.444  23.619  0.00  0.00    -0.048 A 
ATOM      8  C   UNL     1       3.601  -4.164  24.126  0.00  0.00    +0.033 A 
ATOM      9  C   UNL     1       4.657  -3.383  24.611  0.00  0.00    +0.089 A 
ATOM     10  C   UNL     1       5.958  -3.881  24.568  0.00  0.00    +0.071 A 
ATOM     11  N   UNL     1       6.725  -2.858  25.086  0.00  0.00    -0.301 N 
ATOM     12  C   UNL     1       5.866  -1.868  25.488  0.00  0.00    +0.202 A 
ATOM     13  C   UNL     1       6.257  -5.156  24.073  0.00  0.00    +0.028 A 
ATOM     14  N   UNL     1       4.621  -2.136  25.174  0.00  0.00    -0.236 NA
ATOM     15  C   UNL     1       5.182  -5.925  23.600  0.00  0.00    +0.005 A 
ENDBRANCH   1  11
BRANCH   2  16
ATOM     16  O   UNL     1      10.051  -4.252  24.561  0.00  0.00    -0.385 OA
ATOM     17  H   UNL     1      10.074  -4.202  25.534  0.00  0.00    +0.210 HD
ENDBRANCH   2  16
BRANCH   3  18
ATOM     18  O   UNL     1       9.172  -2.137  22.014  0.00  0.00    -0.386 OA
ATOM     19  H   UNL     1       8.287  -1.728  21.980  0.00  0.00    +0.210 HD
ENDBRANCH   3  18
BRANCH   4  20
ATOM     20  C   UNL     1       9.917   0.177  24.301  0.00  0.00    +0.206 C 
BRANCH  20  21
ATOM     21  O   UNL     1      10.351   0.638  23.025  0.00  0.00    -0.284 OA
BRANCH  21  22
ATOM     22  P   UNL     1       9.163   1.666  22.299  0.00  0.00    +0.472 P 
ATOM     23  O   UNL     1       8.100   2.584  21.650  0.00  0.00    -0.228 OA
BRANCH  22  24
ATOM     24  O   UNL     1       9.228   0.595  21.061  0.00  0.00    -0.303 OA
ATOM     25  H   UNL     1       9.359  -0.316  21.378  0.00  0.00    +0.222 HD
ENDBRANCH  22  24
BRANCH  22  26
ATOM     26  O   UNL     1      10.440   2.534  21.756  0.00  0.00    -0.303 OA
ATOM     27  H   UNL     1      10.191   3.470  21.881  0.00  0.00    +0.222 HD
ENDBRANCH  22  26
ENDBRANCH  21  22
ENDBRANCH  20  21
ENDBRANCH   4  20
TORSDOF 8
ENDMDL
MODEL 6
REMARK VINA RESULT:      -6.3      4.455      7.442
REMARK  Name = 
REMARK  9 active torsions:
REMARK  status: ('A' for Active; 'I' for Inactive)
REMARK    1  A    between atoms: C_1  and  C_2
REMARK    2  A    between atoms: N_6  and  C_11
REMARK    3  A    between atoms: C_14  and  C_16
REMARK    4  A    between atoms: C_16  and  O_17
REMARK    5  A    between atoms: O_17  and  P_18
REMARK    6  A    between atoms: P_18  and  O_19
REMARK    7  A    between atoms: P_18  and  O_20
REMARK    8  A    between atoms: C_22  and  O_24
REMARK    9  A    between atoms: C_25  and  O_27
REMARK                            x       y       z     vdW  Elec       q    Type
REMARK                         _______ _______ _______ _____ _____    ______ ____
ROOT
ATOM      1  C   UNL     1       9.077  -2.541  24.197  0.00  0.00    +0.252 C 
ATOM      2  C   UNL     1       8.331  -2.224  22.890  0.00  0.00    +0.195 C 
ATOM      3  C   UNL     1       7.786  -0.804  23.069  0.00  0.00    +0.178 C 
ATOM      4  C   UNL     1       8.173  -0.438  24.497  0.00  0.00    +0.178 C 
ATOM      5  O   UNL     1       9.304  -1.258  24.828  0.00  0.00    -0.346 OA
ENDROOT
BRANCH   1  11
ATOM      6  C   UNL     1       4.135  -7.111  24.982  0.00  0.00    +0.044 C 
ATOM      7  C   UNL     1       5.256  -6.115  24.914  0.00  0.00    -0.048 A 
ATOM      8  C   UNL     1       5.973  -5.809  26.079  0.00  0.00    +0.033 A 
ATOM      9  C   UNL     1       7.025  -4.888  26.020  0.00  0.00    +0.089 A 
ATOM     10  C   UNL     1       7.334  -4.273  24.807  0.00  0.00    +0.071 A 
ATOM     11  N   UNL     1       8.375  -3.424  25.119  0.00  0.00    -0.301 N 
ATOM     12  C   UNL     1       8.692  -3.634  26.436  0.00  0.00    +0.202 A 
ATOM     13  C   UNL     1       6.641  -4.557  23.625  0.00  0.00    +0.028 A 
ATOM     14  N   UNL     1       7.869  -4.474  27.015  0.00  0.00    -0.236 NA
ATOM     15  C   UNL     1       5.596  -5.491  23.705  0.00  0.00    +0.005 A 
ENDBRANCH   1  11
BRANCH   2  16
ATOM     16  O   UNL     1       9.253  -2.256  21.780  0.00  0.00    -0.385 OA
ATOM     17  H   UNL     1       9.516  -1.343  21.564  0.00  0.00    +0.210 HD
ENDBRANCH   2  16
BRANCH   3  18
ATOM     18  O   UNL     1       6.373  -0.777  22.899  0.00  0.00    -0.386 OA
ATOM     19  H   UNL     1       6.058  -1.698  22.964  0.00  0.00    +0.210 HD
ENDBRANCH   3  18
BRANCH   4  20
ATOM     20  C   UNL     1       8.541   1.026  24.683  0.00  0.00    +0.206 C 
BRANCH  20  21
ATOM     21  O   UNL     1       8.692   1.676  23.425  0.00  0.00    -0.284 OA
BRANCH  21  22
ATOM     22  P   UNL     1      10.108   2.670  23.405  0.00  0.00    +0.472 P 
ATOM     23  O   UNL     1      11.375   3.559  23.386  0.00  0.00    -0.228 OA
BRANCH  22  24
ATOM     24  O   UNL     1      10.209   2.214  21.835  0.00  0.00    -0.303 OA
ATOM     25  H   UNL     1       9.342   2.248  21.393  0.00  0.00    +0.222 HD
ENDBRANCH  22  24
BRANCH  22  26
ATOM     26  O   UNL     1      10.888   1.338  23.952  0.00  0.00    -0.303 OA
ATOM     27  H   UNL     1      10.211   0.635  23.985  0.00  0.00    +0.222 HD
ENDBRANCH  22  26
ENDBRANCH  21  22
ENDBRANCH  20  21
ENDBRANCH   4  20
TORSDOF 8
ENDMDL
MODEL 7
REMARK VINA RESULT:      -6.3      4.914      7.945
REMARK  Name = 
REMARK  9 active torsions:
REMARK  status: ('A' for Active; 'I' for Inactive)
REMARK    1  A    between atoms: C_1  and  C_2
REMARK    2  A    between atoms: N_6  and  C_11
REMARK    3  A    between atoms: C_14  and  C_16
REMARK    4  A    between atoms: C_16  and  O_17
REMARK    5  A    between atoms: O_17  and  P_18
REMARK    6  A    between atoms: P_18  and  O_19
REMARK    7  A    between atoms: P_18  and  O_20
REMARK    8  A    between atoms: C_22  and  O_24
REMARK    9  A    between atoms: C_25  and  O_27
REMARK                            x       y       z     vdW  Elec       q    Type
REMARK                         _______ _______ _______ _____ _____    ______ ____
ROOT
ATOM      1  C   UNL     1       9.130  -2.081  23.446  0.00  0.00    +0.252 C 
ATOM      2  C   UNL     1       9.527  -1.392  22.130  0.00  0.00    +0.195 C 
ATOM      3  C   UNL     1       9.399   0.109  22.405  0.00  0.00    +0.178 C 
ATOM      4  C   UNL     1       8.851   0.179  23.825  0.00  0.00    +0.178 C 
ATOM      5  O   UNL     1       9.227  -1.053  24.460  0.00  0.00    -0.346 OA
ENDROOT
BRANCH   1  11
ATOM      6  C   UNL     1       4.994  -6.590  26.360  0.00  0.00    +0.044 C 
ATOM      7  C   UNL     1       5.825  -5.559  25.652  0.00  0.00    -0.048 A 
ATOM      8  C   UNL     1       5.257  -4.824  24.601  0.00  0.00    +0.033 A 
ATOM      9  C   UNL     1       6.024  -3.855  23.944  0.00  0.00    +0.089 A 
ATOM     10  C   UNL     1       7.348  -3.647  24.329  0.00  0.00    +0.071 A 
ATOM     11  N   UNL     1       7.797  -2.669  23.468  0.00  0.00    -0.301 N 
ATOM     12  C   UNL     1       6.731  -2.283  22.696  0.00  0.00    +0.202 A 
ATOM     13  C   UNL     1       7.945  -4.361  25.375  0.00  0.00    +0.028 A 
ATOM     14  N   UNL     1       5.665  -3.010  22.929  0.00  0.00    -0.236 NA
ATOM     15  C   UNL     1       7.155  -5.320  26.027  0.00  0.00    +0.005 A 
ENDBRANCH   1  11
BRANCH   2  16
ATOM     16  O   UNL     1      10.894  -1.713  21.801  0.00  0.00    -0.385 OA
ATOM     17  H   UNL     1      10.900  -2.491  21.213  0.00  0.00    +0.210 HD
ENDBRANCH   2  16
BRANCH   3  18
ATOM     18  O   UNL     1       8.506   0.722  21.480  0.00  0.00    -0.386 OA
ATOM     19  H   UNL     1       8.973   0.779  20.625  0.00  0.00    +0.210 HD
ENDBRANCH   3  18
BRANCH   4  20
ATOM     20  C   UNL     1       9.385   1.348  24.638  0.00  0.00    +0.206 C 
BRANCH  20  21
ATOM     21  O   UNL     1      10.017   2.306  23.796  0.00  0.00    -0.284 OA
BRANCH  21  22
ATOM     22  P   UNL     1       9.238   3.847  23.913  0.00  0.00    +0.472 P 
ATOM     23  O   UNL     1       8.540   5.225  24.018  0.00  0.00    -0.228 OA
BRANCH  22  24
ATOM     24  O   UNL     1       8.654   3.484  22.427  0.00  0.00    -0.303 OA
ATOM     25  H   UNL     1       8.418   4.285  21.927  0.00  0.00    +0.222 HD
ENDBRANCH  22  24
BRANCH  22  26
ATOM     26  O   UNL     1      10.643   4.452  23.331  0.00  0.00    -0.303 OA
ATOM     27  H   UNL     1      10.870   3.892  22.563  0.00  0.00    +0.222 HD
ENDBRANCH  22  26
ENDBRANCH  21  22
ENDBRANCH  20  21
ENDBRANCH   4  20
TORSDOF 8
ENDMDL
MODEL 8
REMARK VINA RESULT:      -6.3      2.224      2.832
REMARK  Name = 
REMARK  9 active torsions:
REMARK  status: ('A' for Active; 'I' for Inactive)
REMARK    1  A    between atoms: C_1  and  C_2
REMARK    2  A    between atoms: N_6  and  C_11
REMARK    3  A    between atoms: C_14  and  C_16
REMARK    4  A    between atoms: C_16  and  O_17
REMARK    5  A    between atoms: O_17  and  P_18
REMARK    6  A    between atoms: P_18  and  O_19
REMARK    7  A    between atoms: P_18  and  O_20
REMARK    8  A    between atoms: C_22  and  O_24
REMARK    9  A    between atoms: C_25  and  O_27
REMARK                            x       y       z     vdW  Elec       q    Type
REMARK                         _______ _______ _______ _____ _____    ______ ____
ROOT
ATOM      1  C   UNL     1       7.576  -3.355  24.487  0.00  0.00    +0.252 C 
ATOM      2  C   UNL     1       8.498  -4.461  23.947  0.00  0.00    +0.195 C 
ATOM      3  C   UNL     1       8.665  -5.450  25.104  0.00  0.00    +0.178 C 
ATOM      4  C   UNL     1       7.908  -4.801  26.256  0.00  0.00    +0.178 C 
ATOM      5  O   UNL     1       6.940  -3.925  25.656  0.00  0.00    -0.346 OA
ENDROOT
BRANCH   1  11
ATOM      6  C   UNL     1      10.525   2.321  22.249  0.00  0.00    +0.044 C 
ATOM      7  C   UNL     1       9.886   1.102  22.848  0.00  0.00    -0.048 A 
ATOM      8  C   UNL     1       9.847   0.962  24.242  0.00  0.00    +0.033 A 
ATOM      9  C   UNL     1       9.245  -0.169  24.806  0.00  0.00    +0.089 A 
ATOM     10  C   UNL     1       8.708  -1.150  23.973  0.00  0.00    +0.071 A 
ATOM     11  N   UNL     1       8.238  -2.108  24.846  0.00  0.00    -0.301 N 
ATOM     12  C   UNL     1       8.424  -1.629  26.118  0.00  0.00    +0.202 A 
ATOM     13  C   UNL     1       8.727  -1.041  22.578  0.00  0.00    +0.028 A 
ATOM     14  N   UNL     1       9.067  -0.487  26.125  0.00  0.00    -0.236 NA
ATOM     15  C   UNL     1       9.327   0.105  22.035  0.00  0.00    +0.005 A 
ENDBRANCH   1  11
BRANCH   2  16
ATOM     16  O   UNL     1       7.869  -5.120  22.829  0.00  0.00    -0.385 OA
ATOM     17  H   UNL     1       7.176  -5.717  23.166  0.00  0.00    +0.210 HD
ENDBRANCH   2  16
BRANCH   3  18
ATOM     18  O   UNL     1      10.041  -5.624  25.429  0.00  0.00    -0.386 OA
ATOM     19  H   UNL     1      10.461  -4.745  25.381  0.00  0.00    +0.210 HD
ENDBRANCH   3  18
BRANCH   4  20
ATOM     20  C   UNL     1       7.195  -5.790  27.165  0.00  0.00    +0.206 C 
BRANCH  20  21
ATOM     21  O   UNL     1       6.644  -5.132  28.300  0.00  0.00    -0.284 OA
BRANCH  21  22
ATOM     22  P   UNL     1       5.576  -6.180  29.169  0.00  0.00    +0.472 P 
ATOM     23  O   UNL     1       4.619  -7.116  29.946  0.00  0.00    -0.228 OA
BRANCH  22  24
ATOM     24  O   UNL     1       6.099  -5.357  30.485  0.00  0.00    -0.303 OA
ATOM     25  H   UNL     1       5.574  -5.573  31.277  0.00  0.00    +0.222 HD
ENDBRANCH  22  24
BRANCH  22  26
ATOM     26  O   UNL     1       6.834  -7.226  29.190  0.00  0.00    -0.303 OA
ATOM     27  H   UNL     1       7.619  -6.685  29.405  0.00  0.00    +0.222 HD
ENDBRANCH  22  26
ENDBRANCH  21  22
ENDBRANCH  20  21
ENDBRANCH   4  20
TORSDOF 8
ENDMDL
MODEL 9
REMARK VINA RESULT:      -6.3      6.438      9.310
REMARK  Name = 
REMARK  9 active torsions:
REMARK  status: ('A' for Active; 'I' for Inactive)
REMARK    1  A    between atoms: C_1  and  C_2
REMARK    2  A    between atoms: N_6  and  C_11
REMARK    3  A    between atoms: C_14  and  C_16
REMARK    4  A    between atoms: C_16  and  O_17
REMARK    5  A    between atoms: O_17  and  P_18
REMARK    6  A    between atoms: P_18  and  O_19
REMARK    7  A    between atoms: P_18  and  O_20
REMARK    8  A    between atoms: C_22  and  O_24
REMARK    9  A    between atoms: C_25  and  O_27
REMARK                            x       y       z     vdW  Elec       q    Type
REMARK                         _______ _______ _______ _____ _____    ______ ____
ROOT
ATOM      1  C   UNL     1       9.643   1.042  23.195  0.00  0.00    +0.252 C 
ATOM      2  C   UNL     1       8.601   1.772  22.330  0.00  0.00    +0.195 C 
ATOM      3  C   UNL     1       8.753   3.255  22.679  0.00  0.00    +0.178 C 
ATOM      4  C   UNL     1       9.802   3.269  23.784  0.00  0.00    +0.178 C 
ATOM      5  O   UNL     1      10.572   2.067  23.620  0.00  0.00    -0.346 OA
ENDROOT
BRANCH   1  11
ATOM      6  C   UNL     1       8.702  -4.928  26.261  0.00  0.00    +0.044 C 
ATOM      7  C   UNL     1       8.866  -3.557  25.671  0.00  0.00    -0.048 A 
ATOM      8  C   UNL     1       8.369  -2.446  26.367  0.00  0.00    +0.033 A 
ATOM      9  C   UNL     1       8.527  -1.165  25.826  0.00  0.00    +0.089 A 
ATOM     10  C   UNL     1       9.160  -1.013  24.593  0.00  0.00    +0.071 A 
ATOM     11  N   UNL     1       9.112   0.346  24.359  0.00  0.00    -0.301 N 
ATOM     12  C   UNL     1       8.557   0.931  25.468  0.00  0.00    +0.202 A 
ATOM     13  C   UNL     1       9.671  -2.099  23.873  0.00  0.00    +0.028 A 
ATOM     14  N   UNL     1       8.154   0.045  26.345  0.00  0.00    -0.236 NA
ATOM     15  C   UNL     1       9.510  -3.373  24.439  0.00  0.00    +0.005 A 
ENDBRANCH   1  11
BRANCH   2  16
ATOM     16  O   UNL     1       8.895   1.567  20.933  0.00  0.00    -0.385 OA
ATOM     17  H   UNL     1       8.072   1.665  20.421  0.00  0.00    +0.210 HD
ENDBRANCH   2  16
BRANCH   3  18
ATOM     18  O   UNL     1       7.519   3.798  23.137  0.00  0.00    -0.386 OA
ATOM     19  H   UNL     1       7.073   3.101  23.655  0.00  0.00    +0.210 HD
ENDBRANCH   3  18
BRANCH   4  20
ATOM     20  C   UNL     1      10.731   4.471  23.742  0.00  0.00    +0.206 C 
BRANCH  20  21
ATOM     21  O   UNL     1      12.050   4.082  23.373  0.00  0.00    -0.284 OA
BRANCH  21  22
ATOM     22  P   UNL     1      12.882   5.377  22.583  0.00  0.00    +0.472 P 
ATOM     23  O   UNL     1      13.627   6.536  21.876  0.00  0.00    -0.228 OA
BRANCH  22  24
ATOM     24  O   UNL     1      14.216   4.728  23.276  0.00  0.00    -0.303 OA
ATOM     25  H   UNL     1      14.184   4.788  24.247  0.00  0.00    +0.222 HD
ENDBRANCH  22  24
BRANCH  22  26
ATOM     26  O   UNL     1      12.492   6.257  23.907  0.00  0.00    -0.303 OA
ATOM     27  H   UNL     1      11.517   6.319  23.901  0.00  0.00    +0.222 HD
ENDBRANCH  22  26
ENDBRANCH  21  22
ENDBRANCH  20  21
ENDBRANCH   4  20
TORSDOF 8
ENDMDL
