MODEL 1
REMARK VINA RESULT:      -8.1      0.000      0.000
REMARK  Name = 
REMARK  6 active torsions:
REMARK  status: ('A' for Active; 'I' for Inactive)
REMARK    1  A    between atoms: O_1  and  C_2
REMARK    2  A    between atoms: C_2  and  C_4
REMARK    3  A    between atoms: C_4  and  C_5
REMARK    4  A    between atoms: N_7  and  C_8
REMARK    5  A    between atoms: C_8  and  C_9
REMARK    6  A    between atoms: C_16  and  C_18
REMARK                            x       y       z     vdW  Elec       q    Type
REMARK                         _______ _______ _______ _____ _____    ______ ____
ROOT
ATOM      1  C   UNL     1       5.846  -5.219  24.013  0.00  0.00    +0.080 A 
ATOM      2  C   UNL     1       5.025  -5.675  25.157  0.00  0.00    +0.011 A 
ATOM      3  C   UNL     1       3.653  -5.945  25.081  0.00  0.00    +0.010 A 
ATOM      4  C   UNL     1       2.939  -6.299  26.231  0.00  0.00    +0.001 A 
ATOM      5  C   UNL     1       3.589  -6.395  27.459  0.00  0.00    +0.001 A 
ATOM      6  C   UNL     1       4.960  -6.163  27.534  0.00  0.00    +0.014 A 
ATOM      7  C   UNL     1       5.678  -5.813  26.382  0.00  0.00    +0.050 A 
ATOM      8  C   UNL     1       7.130  -5.572  26.470  0.00  0.00    +0.275 A 
ATOM      9  O   UNL     1       7.710  -5.757  27.537  0.00  0.00    -0.266 OA
ATOM     10  N   UNL     1       7.758  -5.122  25.309  0.00  0.00    -0.222 N 
ATOM     11  N   UNL     1       7.120  -4.972  24.101  0.00  0.00    -0.172 NA
ENDROOT
BRANCH   1  12
ATOM     12  C   UNL     1       5.234  -4.970  22.649  0.00  0.00    +0.178 C 
BRANCH  12  13
ATOM     13  C   UNL     1       5.870  -5.744  21.526  0.00  0.00    +0.311 C 
ATOM     14  O   UNL     1       5.922  -5.318  20.379  0.00  0.00    -0.251 OA
BRANCH  13  15
ATOM     15  O   UNL     1       6.439  -6.916  21.881  0.00  0.00    -0.480 OA
ATOM     16  H   UNL     1       7.418  -6.921  21.769  0.00  0.00    +0.295 HD
ENDBRANCH  13  15
ENDBRANCH  12  13
ENDBRANCH   1  12
BRANCH  10  17
ATOM     17  C   UNL     1       9.150  -4.649  25.381  0.00  0.00    +0.210 C 
BRANCH  17  18
ATOM     18  C   UNL     1       9.182  -3.143  25.261  0.00  0.00    +0.101 A 
ATOM     19  S   UNL     1       8.275  -2.195  26.375  0.00  0.00    -0.070 S 
ATOM     20  C   UNL     1       8.633  -0.786  25.469  0.00  0.00    +0.039 A 
ATOM     21  C   UNL     1       8.144   0.514  25.656  0.00  0.00    +0.018 A 
ATOM     22  C   UNL     1       8.620   1.525  24.822  0.00  0.00    +0.013 A 
ATOM     23  C   UNL     1       9.584   1.265  23.841  0.00  0.00    +0.057 A 
ATOM     24  C   UNL     1      10.033  -0.059  23.647  0.00  0.00    +0.041 A 
ATOM     25  C   UNL     1       9.539  -1.104  24.459  0.00  0.00    +0.079 A 
ATOM     26  N   UNL     1       9.853  -2.456  24.356  0.00  0.00    -0.242 NA
BRANCH  23  27
ATOM     27  C   UNL     1      10.161   2.395  23.021  0.00  0.00    +0.417 C 
ATOM     28  F   UNL     1       9.326   3.465  22.933  0.00  0.00    -0.166 F 
ATOM     29  F   UNL     1      10.434   2.021  21.742  0.00  0.00    -0.166 F 
ATOM     30  F   UNL     1      11.333   2.879  23.522  0.00  0.00    -0.166 F 
ENDBRANCH  23  27
ENDBRANCH  17  18
ENDBRANCH  10  17
TORSDOF 6
ENDMDL
MODEL 2
REMARK VINA RESULT:      -8.0      1.685      2.221
REMARK  Name = 
REMARK  6 active torsions:
REMARK  status: ('A' for Active; 'I' for Inactive)
REMARK    1  A    between atoms: O_1  and  C_2
REMARK    2  A    between atoms: C_2  and  C_4
REMARK    3  A    between atoms: C_4  and  C_5
REMARK    4  A    between atoms: N_7  and  C_8
REMARK    5  A    between atoms: C_8  and  C_9
REMARK    6  A    between atoms: C_16  and  C_18
REMARK                            x       y       z     vdW  Elec       q    Type
REMARK                         _______ _______ _______ _____ _____    ______ ____
ROOT
ATOM      1  C   UNL     1       6.842  -5.443  23.560  0.00  0.00    +0.080 A 
ATOM      2  C   UNL     1       5.946  -5.312  24.730  0.00  0.00    +0.011 A 
ATOM      3  C   UNL     1       4.654  -5.849  24.794  0.00  0.00    +0.010 A 
ATOM      4  C   UNL     1       3.847  -5.612  25.911  0.00  0.00    +0.001 A 
ATOM      5  C   UNL     1       4.324  -4.849  26.973  0.00  0.00    +0.001 A 
ATOM      6  C   UNL     1       5.621  -4.343  26.932  0.00  0.00    +0.014 A 
ATOM      7  C   UNL     1       6.434  -4.583  25.814  0.00  0.00    +0.050 A 
ATOM      8  C   UNL     1       7.806  -4.046  25.779  0.00  0.00    +0.275 A 
ATOM      9  O   UNL     1       8.251  -3.459  26.763  0.00  0.00    -0.266 OA
ATOM     10  N   UNL     1       8.517  -4.230  24.594  0.00  0.00    -0.222 N 
ATOM     11  N   UNL     1       8.040  -4.937  23.517  0.00  0.00    -0.172 NA
ENDROOT
BRANCH   1  12
ATOM     12  C   UNL     1       6.399  -6.157  22.298  0.00  0.00    +0.178 C 
BRANCH  12  13
ATOM     13  C   UNL     1       6.040  -5.245  21.156  0.00  0.00    +0.311 C 
ATOM     14  O   UNL     1       6.021  -5.625  19.992  0.00  0.00    -0.251 OA
BRANCH  13  15
ATOM     15  O   UNL     1       5.676  -3.994  21.507  0.00  0.00    -0.480 OA
ATOM     16  H   UNL     1       5.687  -3.360  20.752  0.00  0.00    +0.295 HD
ENDBRANCH  13  15
ENDBRANCH  12  13
ENDBRANCH   1  12
BRANCH  10  17
ATOM     17  C   UNL     1       9.798  -3.531  24.408  0.00  0.00    +0.210 C 
BRANCH  17  18
ATOM     18  C   UNL     1       9.542  -2.117  23.940  0.00  0.00    +0.101 A 
ATOM     19  S   UNL     1       9.076  -1.847  22.305  0.00  0.00    -0.070 S 
ATOM     20  C   UNL     1       9.221  -0.157  22.540  0.00  0.00    +0.039 A 
ATOM     21  C   UNL     1       9.109   0.865  21.588  0.00  0.00    +0.018 A 
ATOM     22  C   UNL     1       9.213   2.186  22.022  0.00  0.00    +0.013 A 
ATOM     23  C   UNL     1       9.395   2.495  23.374  0.00  0.00    +0.057 A 
ATOM     24  C   UNL     1       9.544   1.448  24.309  0.00  0.00    +0.041 A 
ATOM     25  C   UNL     1       9.475   0.101  23.886  0.00  0.00    +0.079 A 
ATOM     26  N   UNL     1       9.646  -1.029  24.680  0.00  0.00    -0.242 NA
BRANCH  23  27
ATOM     27  C   UNL     1       9.400   3.934  23.833  0.00  0.00    +0.417 C 
ATOM     28  F   UNL     1      10.631   4.508  23.764  0.00  0.00    -0.166 F 
ATOM     29  F   UNL     1       8.991   4.068  25.125  0.00  0.00    -0.166 F 
ATOM     30  F   UNL     1       8.574   4.735  23.101  0.00  0.00    -0.166 F 
ENDBRANCH  23  27
ENDBRANCH  17  18
ENDBRANCH  10  17
TORSDOF 6
ENDMDL
MODEL 3
REMARK VINA RESULT:      -7.8      2.168      2.664
REMARK  Name = 
REMARK  6 active torsions:
REMARK  status: ('A' for Active; 'I' for Inactive)
REMARK    1  A    between atoms: O_1  and  C_2
REMARK    2  A    between atoms: C_2  and  C_4
REMARK    3  A    between atoms: C_4  and  C_5
REMARK    4  A    between atoms: N_7  and  C_8
REMARK    5  A    between atoms: C_8  and  C_9
REMARK    6  A    between atoms: C_16  and  C_18
REMARK                            x       y       z     vdW  Elec       q    Type
REMARK                         _______ _______ _______ _____ _____    ______ ____
ROOT
ATOM      1  C   UNL     1       6.422  -5.214  23.994  0.00  0.00    +0.080 A 
ATOM      2  C   UNL     1       6.048  -5.653  25.357  0.00  0.00    +0.011 A 
ATOM      3  C   UNL     1       4.865  -6.336  25.665  0.00  0.00    +0.010 A 
ATOM      4  C   UNL     1       4.556  -6.647  26.993  0.00  0.00    +0.001 A 
ATOM      5  C   UNL     1       5.426  -6.288  28.019  0.00  0.00    +0.001 A 
ATOM      6  C   UNL     1       6.622  -5.642  27.715  0.00  0.00    +0.014 A 
ATOM      7  C   UNL     1       6.936  -5.333  26.384  0.00  0.00    +0.050 A 
ATOM      8  C   UNL     1       8.205  -4.651  26.070  0.00  0.00    +0.275 A 
ATOM      9  O   UNL     1       9.010  -4.430  26.971  0.00  0.00    -0.266 OA
ATOM     10  N   UNL     1       8.400  -4.280  24.741  0.00  0.00    -0.222 N 
ATOM     11  N   UNL     1       7.525  -4.580  23.725  0.00  0.00    -0.172 NA
ENDROOT
BRANCH   1  12
ATOM     12  C   UNL     1       5.506  -5.447  22.808  0.00  0.00    +0.178 C 
BRANCH  12  13
ATOM     13  C   UNL     1       6.128  -5.153  21.470  0.00  0.00    +0.311 C 
ATOM     14  O   UNL     1       5.742  -4.240  20.751  0.00  0.00    -0.251 OA
BRANCH  13  15
ATOM     15  O   UNL     1       7.186  -5.924  21.142  0.00  0.00    -0.480 OA
ATOM     16  H   UNL     1       7.462  -5.824  20.201  0.00  0.00    +0.295 HD
ENDBRANCH  13  15
ENDBRANCH  12  13
ENDBRANCH   1  12
BRANCH  10  17
ATOM     17  C   UNL     1       9.531  -3.403  24.398  0.00  0.00    +0.210 C 
BRANCH  17  18
ATOM     18  C   UNL     1       9.017  -2.146  23.735  0.00  0.00    +0.101 A 
ATOM     19  S   UNL     1       9.713  -1.641  22.244  0.00  0.00    -0.070 S 
ATOM     20  C   UNL     1       8.825  -0.178  22.323  0.00  0.00    +0.039 A 
ATOM     21  C   UNL     1       8.905   0.932  21.472  0.00  0.00    +0.018 A 
ATOM     22  C   UNL     1       8.039   2.002  21.699  0.00  0.00    +0.013 A 
ATOM     23  C   UNL     1       7.092   1.964  22.728  0.00  0.00    +0.057 A 
ATOM     24  C   UNL     1       7.056   0.851  23.595  0.00  0.00    +0.041 A 
ATOM     25  C   UNL     1       7.948  -0.229  23.404  0.00  0.00    +0.079 A 
ATOM     26  N   UNL     1       8.059  -1.365  24.199  0.00  0.00    -0.242 NA
BRANCH  23  27
ATOM     27  C   UNL     1       6.096   3.088  22.888  0.00  0.00    +0.417 C 
ATOM     28  F   UNL     1       4.818   2.703  22.628  0.00  0.00    -0.166 F 
ATOM     29  F   UNL     1       6.354   4.132  22.054  0.00  0.00    -0.166 F 
ATOM     30  F   UNL     1       6.077   3.616  24.145  0.00  0.00    -0.166 F 
ENDBRANCH  23  27
ENDBRANCH  17  18
ENDBRANCH  10  17
TORSDOF 6
ENDMDL
MODEL 4
REMARK VINA RESULT:      -7.8      1.586      3.580
REMARK  Name = 
REMARK  6 active torsions:
REMARK  status: ('A' for Active; 'I' for Inactive)
REMARK    1  A    between atoms: O_1  and  C_2
REMARK    2  A    between atoms: C_2  and  C_4
REMARK    3  A    between atoms: C_4  and  C_5
REMARK    4  A    between atoms: N_7  and  C_8
REMARK    5  A    between atoms: C_8  and  C_9
REMARK    6  A    between atoms: C_16  and  C_18
REMARK                            x       y       z     vdW  Elec       q    Type
REMARK                         _______ _______ _______ _____ _____    ______ ____
ROOT
ATOM      1  C   UNL     1       5.048  -5.278  26.080  0.00  0.00    +0.080 A 
ATOM      2  C   UNL     1       3.744  -5.376  25.387  0.00  0.00    +0.011 A 
ATOM      3  C   UNL     1       2.513  -5.495  26.044  0.00  0.00    +0.010 A 
ATOM      4  C   UNL     1       1.334  -5.659  25.309  0.00  0.00    +0.001 A 
ATOM      5  C   UNL     1       1.374  -5.695  23.917  0.00  0.00    +0.001 A 
ATOM      6  C   UNL     1       2.591  -5.540  23.258  0.00  0.00    +0.014 A 
ATOM      7  C   UNL     1       3.773  -5.372  23.993  0.00  0.00    +0.050 A 
ATOM      8  C   UNL     1       5.057  -5.206  23.287  0.00  0.00    +0.275 A 
ATOM      9  O   UNL     1       5.067  -5.140  22.060  0.00  0.00    -0.266 OA
ATOM     10  N   UNL     1       6.201  -5.153  24.080  0.00  0.00    -0.222 N 
ATOM     11  N   UNL     1       6.183  -5.169  25.454  0.00  0.00    -0.172 NA
ENDROOT
BRANCH   1  12
ATOM     12  C   UNL     1       5.149  -5.338  27.591  0.00  0.00    +0.178 C 
BRANCH  12  13
ATOM     13  C   UNL     1       6.115  -6.365  28.115  0.00  0.00    +0.311 C 
ATOM     14  O   UNL     1       5.748  -7.414  28.629  0.00  0.00    -0.251 OA
BRANCH  13  15
ATOM     15  O   UNL     1       7.421  -6.082  27.920  0.00  0.00    -0.480 OA
ATOM     16  H   UNL     1       8.013  -6.506  28.584  0.00  0.00    +0.295 HD
ENDBRANCH  13  15
ENDBRANCH  12  13
ENDBRANCH   1  12
BRANCH  10  17
ATOM     17  C   UNL     1       7.524  -5.215  23.439  0.00  0.00    +0.210 C 
BRANCH  17  18
ATOM     18  C   UNL     1       8.169  -3.849  23.470  0.00  0.00    +0.101 A 
ATOM     19  S   UNL     1       9.264  -3.468  24.744  0.00  0.00    -0.070 S 
ATOM     20  C   UNL     1       9.320  -1.841  24.211  0.00  0.00    +0.039 A 
ATOM     21  C   UNL     1       9.955  -0.750  24.820  0.00  0.00    +0.018 A 
ATOM     22  C   UNL     1       9.912   0.484  24.172  0.00  0.00    +0.013 A 
ATOM     23  C   UNL     1       9.280   0.633  22.933  0.00  0.00    +0.057 A 
ATOM     24  C   UNL     1       8.614  -0.471  22.358  0.00  0.00    +0.041 A 
ATOM     25  C   UNL     1       8.617  -1.723  23.014  0.00  0.00    +0.079 A 
ATOM     26  N   UNL     1       7.971  -2.882  22.594  0.00  0.00    -0.242 NA
BRANCH  23  27
ATOM     27  C   UNL     1       9.338   1.954  22.202  0.00  0.00    +0.417 C 
ATOM     28  F   UNL     1      10.548   2.189  21.629  0.00  0.00    -0.166 F 
ATOM     29  F   UNL     1       9.096   3.012  23.023  0.00  0.00    -0.166 F 
ATOM     30  F   UNL     1       8.423   2.053  21.195  0.00  0.00    -0.166 F 
ENDBRANCH  23  27
ENDBRANCH  17  18
ENDBRANCH  10  17
TORSDOF 6
ENDMDL
MODEL 5
REMARK VINA RESULT:      -7.5      2.508      3.539
REMARK  Name = 
REMARK  6 active torsions:
REMARK  status: ('A' for Active; 'I' for Inactive)
REMARK    1  A    between atoms: O_1  and  C_2
REMARK    2  A    between atoms: C_2  and  C_4
REMARK    3  A    between atoms: C_4  and  C_5
REMARK    4  A    between atoms: N_7  and  C_8
REMARK    5  A    between atoms: C_8  and  C_9
REMARK    6  A    between atoms: C_16  and  C_18
REMARK                            x       y       z     vdW  Elec       q    Type
REMARK                         _______ _______ _______ _____ _____    ______ ____
ROOT
ATOM      1  C   UNL     1       6.386  -3.671  23.279  0.00  0.00    +0.080 A 
ATOM      2  C   UNL     1       7.016  -4.238  24.492  0.00  0.00    +0.011 A 
ATOM      3  C   UNL     1       6.351  -5.057  25.413  0.00  0.00    +0.010 A 
ATOM      4  C   UNL     1       7.003  -5.487  26.573  0.00  0.00    +0.001 A 
ATOM      5  C   UNL     1       8.322  -5.114  26.817  0.00  0.00    +0.001 A 
ATOM      6  C   UNL     1       9.001  -4.331  25.886  0.00  0.00    +0.014 A 
ATOM      7  C   UNL     1       8.350  -3.901  24.721  0.00  0.00    +0.050 A 
ATOM      8  C   UNL     1       9.077  -3.075  23.740  0.00  0.00    +0.275 A 
ATOM      9  O   UNL     1      10.268  -2.836  23.916  0.00  0.00    -0.266 OA
ATOM     10  N   UNL     1       8.336  -2.595  22.661  0.00  0.00    -0.222 N 
ATOM     11  N   UNL     1       7.018  -2.911  22.434  0.00  0.00    -0.172 NA
ENDROOT
BRANCH   1  12
ATOM     12  C   UNL     1       4.924  -3.912  22.960  0.00  0.00    +0.178 C 
BRANCH  12  13
ATOM     13  C   UNL     1       4.614  -5.293  22.449  0.00  0.00    +0.311 C 
ATOM     14  O   UNL     1       3.568  -5.873  22.713  0.00  0.00    -0.251 OA
BRANCH  13  15
ATOM     15  O   UNL     1       5.539  -5.825  21.622  0.00  0.00    -0.480 OA
ATOM     16  H   UNL     1       6.008  -6.599  22.012  0.00  0.00    +0.295 HD
ENDBRANCH  13  15
ENDBRANCH  12  13
ENDBRANCH   1  12
BRANCH  10  17
ATOM     17  C   UNL     1       8.933  -1.587  21.771  0.00  0.00    +0.210 C 
BRANCH  17  18
ATOM     18  C   UNL     1       8.927  -0.238  22.453  0.00  0.00    +0.101 A 
ATOM     19  S   UNL     1       7.553   0.224  23.380  0.00  0.00    -0.070 S 
ATOM     20  C   UNL     1       8.203   1.798  23.563  0.00  0.00    +0.039 A 
ATOM     21  C   UNL     1       7.606   2.922  24.150  0.00  0.00    +0.018 A 
ATOM     22  C   UNL     1       8.352   4.097  24.236  0.00  0.00    +0.013 A 
ATOM     23  C   UNL     1       9.673   4.155  23.779  0.00  0.00    +0.057 A 
ATOM     24  C   UNL     1      10.241   3.021  23.158  0.00  0.00    +0.041 A 
ATOM     25  C   UNL     1       9.491   1.830  23.030  0.00  0.00    +0.079 A 
ATOM     26  N   UNL     1       9.898   0.655  22.406  0.00  0.00    -0.242 NA
BRANCH  23  27
ATOM     27  C   UNL     1      10.495   5.406  23.979  0.00  0.00    +0.417 C 
ATOM     28  F   UNL     1      11.834   5.171  23.943  0.00  0.00    -0.166 F 
ATOM     29  F   UNL     1      10.247   6.003  25.177  0.00  0.00    -0.166 F 
ATOM     30  F   UNL     1      10.259   6.361  23.035  0.00  0.00    -0.166 F 
ENDBRANCH  23  27
ENDBRANCH  17  18
ENDBRANCH  10  17
TORSDOF 6
ENDMDL
MODEL 6
REMARK VINA RESULT:      -7.5      4.413      8.410
REMARK  Name = 
REMARK  6 active torsions:
REMARK  status: ('A' for Active; 'I' for Inactive)
REMARK    1  A    between atoms: O_1  and  C_2
REMARK    2  A    between atoms: C_2  and  C_4
REMARK    3  A    between atoms: C_4  and  C_5
REMARK    4  A    between atoms: N_7  and  C_8
REMARK    5  A    between atoms: C_8  and  C_9
REMARK    6  A    between atoms: C_16  and  C_18
REMARK                            x       y       z     vdW  Elec       q    Type
REMARK                         _______ _______ _______ _____ _____    ______ ____
ROOT
ATOM      1  C   UNL     1       9.684   1.409  23.594  0.00  0.00    +0.080 A 
ATOM      2  C   UNL     1      10.034   2.847  23.601  0.00  0.00    +0.011 A 
ATOM      3  C   UNL     1      11.327   3.341  23.387  0.00  0.00    +0.010 A 
ATOM      4  C   UNL     1      11.582   4.713  23.485  0.00  0.00    +0.001 A 
ATOM      5  C   UNL     1      10.552   5.599  23.788  0.00  0.00    +0.001 A 
ATOM      6  C   UNL     1       9.257   5.117  23.965  0.00  0.00    +0.014 A 
ATOM      7  C   UNL     1       8.998   3.743  23.863  0.00  0.00    +0.050 A 
ATOM      8  C   UNL     1       7.624   3.241  24.050  0.00  0.00    +0.275 A 
ATOM      9  O   UNL     1       6.707   4.041  24.217  0.00  0.00    -0.266 OA
ATOM     10  N   UNL     1       7.461   1.857  24.041  0.00  0.00    -0.222 N 
ATOM     11  N   UNL     1       8.478   0.966  23.796  0.00  0.00    -0.172 NA
ENDROOT
BRANCH   1  12
ATOM     12  C   UNL     1      10.737   0.338  23.386  0.00  0.00    +0.178 C 
BRANCH  12  13
ATOM     13  C   UNL     1      10.228  -0.926  22.749  0.00  0.00    +0.311 C 
ATOM     14  O   UNL     1      10.134  -1.981  23.363  0.00  0.00    -0.251 OA
BRANCH  13  15
ATOM     15  O   UNL     1       9.817  -0.803  21.469  0.00  0.00    -0.480 OA
ATOM     16  H   UNL     1       9.011  -0.245  21.372  0.00  0.00    +0.295 HD
ENDBRANCH  13  15
ENDBRANCH  12  13
ENDBRANCH   1  12
BRANCH  10  17
ATOM     17  C   UNL     1       6.166   1.284  24.444  0.00  0.00    +0.210 C 
BRANCH  17  18
ATOM     18  C   UNL     1       6.242  -0.225  24.396  0.00  0.00    +0.101 A 
ATOM     19  S   UNL     1       6.185  -1.113  25.869  0.00  0.00    -0.070 S 
ATOM     20  C   UNL     1       6.540  -2.555  25.016  0.00  0.00    +0.039 A 
ATOM     21  C   UNL     1       6.796  -3.831  25.536  0.00  0.00    +0.018 A 
ATOM     22  C   UNL     1       7.011  -4.878  24.640  0.00  0.00    +0.013 A 
ATOM     23  C   UNL     1       6.946  -4.677  23.257  0.00  0.00    +0.057 A 
ATOM     24  C   UNL     1       6.724  -3.376  22.757  0.00  0.00    +0.041 A 
ATOM     25  C   UNL     1       6.537  -2.294  23.647  0.00  0.00    +0.079 A 
ATOM     26  N   UNL     1       6.354  -0.958  23.304  0.00  0.00    -0.242 NA
BRANCH  23  27
ATOM     27  C   UNL     1       7.077  -5.846  22.310  0.00  0.00    +0.417 C 
ATOM     28  F   UNL     1       6.064  -6.744  22.435  0.00  0.00    -0.166 F 
ATOM     29  F   UNL     1       8.229  -6.544  22.505  0.00  0.00    -0.166 F 
ATOM     30  F   UNL     1       7.088  -5.477  20.997  0.00  0.00    -0.166 F 
ENDBRANCH  23  27
ENDBRANCH  17  18
ENDBRANCH  10  17
TORSDOF 6
ENDMDL
MODEL 7
REMARK VINA RESULT:      -7.4      4.753      8.090
REMARK  Name = 
REMARK  6 active torsions:
REMARK  status: ('A' for Active; 'I' for Inactive)
REMARK    1  A    between atoms: O_1  and  C_2
REMARK    2  A    between atoms: C_2  and  C_4
REMARK    3  A    between atoms: C_4  and  C_5
REMARK    4  A    between atoms: N_7  and  C_8
REMARK    5  A    between atoms: C_8  and  C_9
REMARK    6  A    between atoms: C_16  and  C_18
REMARK                            x       y       z     vdW  Elec       q    Type
REMARK                         _______ _______ _______ _____ _____    ______ ____
ROOT
ATOM      1  C   UNL     1       7.859  -0.494  25.061  0.00  0.00    +0.080 A 
ATOM      2  C   UNL     1       8.449   0.225  23.910  0.00  0.00    +0.011 A 
ATOM      3  C   UNL     1       8.123   1.540  23.555  0.00  0.00    +0.010 A 
ATOM      4  C   UNL     1       8.673   2.117  22.406  0.00  0.00    +0.001 A 
ATOM      5  C   UNL     1       9.556   1.392  21.611  0.00  0.00    +0.001 A 
ATOM      6  C   UNL     1       9.913   0.097  21.979  0.00  0.00    +0.014 A 
ATOM      7  C   UNL     1       9.366  -0.482  23.133  0.00  0.00    +0.050 A 
ATOM      8  C   UNL     1       9.751  -1.852  23.517  0.00  0.00    +0.275 A 
ATOM      9  O   UNL     1      10.606  -2.445  22.865  0.00  0.00    -0.266 OA
ATOM     10  N   UNL     1       9.086  -2.401  24.613  0.00  0.00    -0.222 N 
ATOM     11  N   UNL     1       8.172  -1.716  25.377  0.00  0.00    -0.172 NA
ENDROOT
BRANCH   1  12
ATOM     12  C   UNL     1       6.803   0.148  25.940  0.00  0.00    +0.178 C 
BRANCH  12  13
ATOM     13  C   UNL     1       5.392  -0.013  25.442  0.00  0.00    +0.311 C 
ATOM     14  O   UNL     1       4.671   0.944  25.189  0.00  0.00    -0.251 OA
BRANCH  13  15
ATOM     15  O   UNL     1       4.995  -1.286  25.230  0.00  0.00    -0.480 OA
ATOM     16  H   UNL     1       4.832  -1.785  26.064  0.00  0.00    +0.295 HD
ENDBRANCH  13  15
ENDBRANCH  12  13
ENDBRANCH   1  12
BRANCH  10  17
ATOM     17  C   UNL     1       9.254  -3.832  24.913  0.00  0.00    +0.210 C 
BRANCH  17  18
ATOM     18  C   UNL     1       7.899  -4.477  25.087  0.00  0.00    +0.101 A 
ATOM     19  S   UNL     1       7.441  -5.055  26.643  0.00  0.00    -0.070 S 
ATOM     20  C   UNL     1       6.040  -5.771  25.967  0.00  0.00    +0.039 A 
ATOM     21  C   UNL     1       5.098  -6.598  26.594  0.00  0.00    +0.018 A 
ATOM     22  C   UNL     1       3.998  -7.027  25.853  0.00  0.00    +0.013 A 
ATOM     23  C   UNL     1       3.813  -6.623  24.526  0.00  0.00    +0.057 A 
ATOM     24  C   UNL     1       4.794  -5.822  23.904  0.00  0.00    +0.041 A 
ATOM     25  C   UNL     1       5.935  -5.404  24.627  0.00  0.00    +0.079 A 
ATOM     26  N   UNL     1       7.000  -4.653  24.138  0.00  0.00    -0.242 NA
BRANCH  23  27
ATOM     27  C   UNL     1       2.561  -7.014  23.777  0.00  0.00    +0.417 C 
ATOM     28  F   UNL     1       1.434  -6.476  24.315  0.00  0.00    -0.166 F 
ATOM     29  F   UNL     1       2.366  -8.361  23.760  0.00  0.00    -0.166 F 
ATOM     30  F   UNL     1       2.571  -6.627  22.470  0.00  0.00    -0.166 F 
ENDBRANCH  23  27
ENDBRANCH  17  18
ENDBRANCH  10  17
TORSDOF 6
ENDMDL
MODEL 8
REMARK VINA RESULT:      -7.4      5.010      8.804
REMARK  Name = 
REMARK  6 active torsions:
REMARK  status: ('A' for Active; 'I' for Inactive)
REMARK    1  A    between atoms: O_1  and  C_2
REMARK    2  A    between atoms: C_2  and  C_4
REMARK    3  A    between atoms: C_4  and  C_5
REMARK    4  A    between atoms: N_7  and  C_8
REMARK    5  A    between atoms: C_8  and  C_9
REMARK    6  A    between atoms: C_16  and  C_18
REMARK                            x       y       z     vdW  Elec       q    Type
REMARK                         _______ _______ _______ _____ _____    ______ ____
ROOT
ATOM      1  C   UNL     1       7.486   3.318  22.675  0.00  0.00    +0.080 A 
ATOM      2  C   UNL     1       8.119   4.491  23.319  0.00  0.00    +0.011 A 
ATOM      3  C   UNL     1       7.442   5.678  23.627  0.00  0.00    +0.010 A 
ATOM      4  C   UNL     1       8.137   6.765  24.167  0.00  0.00    +0.001 A 
ATOM      5  C   UNL     1       9.505   6.674  24.411  0.00  0.00    +0.001 A 
ATOM      6  C   UNL     1      10.176   5.484  24.140  0.00  0.00    +0.014 A 
ATOM      7  C   UNL     1       9.481   4.391  23.603  0.00  0.00    +0.050 A 
ATOM      8  C   UNL     1      10.198   3.133  23.323  0.00  0.00    +0.275 A 
ATOM      9  O   UNL     1      11.382   3.031  23.634  0.00  0.00    -0.266 OA
ATOM     10  N   UNL     1       9.468   2.128  22.690  0.00  0.00    -0.222 N 
ATOM     11  N   UNL     1       8.129   2.223  22.395  0.00  0.00    -0.172 NA
ENDROOT
BRANCH   1  12
ATOM     12  C   UNL     1       6.028   3.333  22.259  0.00  0.00    +0.178 C 
BRANCH  12  13
ATOM     13  C   UNL     1       5.093   2.661  23.227  0.00  0.00    +0.311 C 
ATOM     14  O   UNL     1       3.982   3.105  23.486  0.00  0.00    -0.251 OA
BRANCH  13  15
ATOM     15  O   UNL     1       5.536   1.494  23.744  0.00  0.00    -0.480 OA
ATOM     16  H   UNL     1       5.064   1.231  24.567  0.00  0.00    +0.295 HD
ENDBRANCH  13  15
ENDBRANCH  12  13
ENDBRANCH   1  12
BRANCH  10  17
ATOM     17  C   UNL     1      10.172   0.941  22.179  0.00  0.00    +0.210 C 
BRANCH  17  18
ATOM     18  C   UNL     1       9.497  -0.310  22.692  0.00  0.00    +0.101 A 
ATOM     19  S   UNL     1       9.756  -0.793  24.324  0.00  0.00    -0.070 S 
ATOM     20  C   UNL     1       8.926  -2.261  24.023  0.00  0.00    +0.039 A 
ATOM     21  C   UNL     1       8.770  -3.360  24.878  0.00  0.00    +0.018 A 
ATOM     22  C   UNL     1       8.001  -4.436  24.436  0.00  0.00    +0.013 A 
ATOM     23  C   UNL     1       7.373  -4.416  23.185  0.00  0.00    +0.057 A 
ATOM     24  C   UNL     1       7.576  -3.314  22.327  0.00  0.00    +0.041 A 
ATOM     25  C   UNL     1       8.380  -2.227  22.742  0.00  0.00    +0.079 A 
ATOM     26  N   UNL     1       8.704  -1.100  21.993  0.00  0.00    -0.242 NA
BRANCH  23  27
ATOM     27  C   UNL     1       6.460  -5.546  22.773  0.00  0.00    +0.417 C 
ATOM     28  F   UNL     1       7.095  -6.496  22.036  0.00  0.00    -0.166 F 
ATOM     29  F   UNL     1       5.413  -5.117  22.017  0.00  0.00    -0.166 F 
ATOM     30  F   UNL     1       5.906  -6.204  23.831  0.00  0.00    -0.166 F 
ENDBRANCH  23  27
ENDBRANCH  17  18
ENDBRANCH  10  17
TORSDOF 6
ENDMDL
MODEL 9
REMARK VINA RESULT:      -7.3      4.615      8.313
REMARK  Name = 
REMARK  6 active torsions:
REMARK  status: ('A' for Active; 'I' for Inactive)
REMARK    1  A    between atoms: O_1  and  C_2
REMARK    2  A    between atoms: C_2  and  C_4
REMARK    3  A    between atoms: C_4  and  C_5
REMARK    4  A    between atoms: N_7  and  C_8
REMARK    5  A    between atoms: C_8  and  C_9
REMARK    6  A    between atoms: C_16  and  C_18
REMARK                            x       y       z     vdW  Elec       q    Type
REMARK                         _______ _______ _______ _____ _____    ______ ____
ROOT
ATOM      1  C   UNL     1       9.256   1.956  24.130  0.00  0.00    +0.080 A 
ATOM      2  C   UNL     1       9.260   3.415  24.377  0.00  0.00    +0.011 A 
ATOM      3  C   UNL     1      10.136   4.314  23.755  0.00  0.00    +0.010 A 
ATOM      4  C   UNL     1      10.121   5.669  24.104  0.00  0.00    +0.001 A 
ATOM      5  C   UNL     1       9.229   6.136  25.065  0.00  0.00    +0.001 A 
ATOM      6  C   UNL     1       8.330   5.254  25.659  0.00  0.00    +0.014 A 
ATOM      7  C   UNL     1       8.341   3.896  25.308  0.00  0.00    +0.050 A 
ATOM      8  C   UNL     1       7.384   2.970  25.941  0.00  0.00    +0.275 A 
ATOM      9  O   UNL     1       6.536   3.410  26.712  0.00  0.00    -0.266 OA
ATOM     10  N   UNL     1       7.525   1.619  25.624  0.00  0.00    -0.222 N 
ATOM     11  N   UNL     1       8.436   1.135  24.717  0.00  0.00    -0.172 NA
ENDROOT
BRANCH   1  12
ATOM     12  C   UNL     1      10.253   1.309  23.188  0.00  0.00    +0.178 C 
BRANCH  12  13
ATOM     13  C   UNL     1       9.695   0.946  21.839  0.00  0.00    +0.311 C 
ATOM     14  O   UNL     1       9.729  -0.196  21.398  0.00  0.00    -0.251 OA
BRANCH  13  15
ATOM     15  O   UNL     1       9.094   1.954  21.172  0.00  0.00    -0.480 OA
ATOM     16  H   UNL     1       8.835   2.705  21.754  0.00  0.00    +0.295 HD
ENDBRANCH  13  15
ENDBRANCH  12  13
ENDBRANCH   1  12
BRANCH  10  17
ATOM     17  C   UNL     1       6.758   0.619  26.385  0.00  0.00    +0.210 C 
BRANCH  17  18
ATOM     18  C   UNL     1       6.894  -0.734  25.726  0.00  0.00    +0.101 A 
ATOM     19  S   UNL     1       7.975  -1.890  26.404  0.00  0.00    -0.070 S 
ATOM     20  C   UNL     1       7.726  -2.916  25.055  0.00  0.00    +0.039 A 
ATOM     21  C   UNL     1       8.374  -4.120  24.748  0.00  0.00    +0.018 A 
ATOM     22  C   UNL     1       7.967  -4.819  23.612  0.00  0.00    +0.013 A 
ATOM     23  C   UNL     1       6.919  -4.354  22.810  0.00  0.00    +0.057 A 
ATOM     24  C   UNL     1       6.307  -3.121  23.117  0.00  0.00    +0.041 A 
ATOM     25  C   UNL     1       6.727  -2.379  24.245  0.00  0.00    +0.079 A 
ATOM     26  N   UNL     1       6.251  -1.135  24.646  0.00  0.00    -0.242 NA
BRANCH  23  27
ATOM     27  C   UNL     1       6.426  -5.182  21.646  0.00  0.00    +0.417 C 
ATOM     28  F   UNL     1       7.397  -5.965  21.105  0.00  0.00    -0.166 F 
ATOM     29  F   UNL     1       5.949  -4.414  20.629  0.00  0.00    -0.166 F 
ATOM     30  F   UNL     1       5.409  -6.026  21.979  0.00  0.00    -0.166 F 
ENDBRANCH  23  27
ENDBRANCH  17  18
ENDBRANCH  10  17
TORSDOF 6
ENDMDL
