MODEL 1
REMARK VINA RESULT:      -6.8      0.000      0.000
REMARK  Name = 
REMARK  9 active torsions:
REMARK  status: ('A' for Active; 'I' for Inactive)
REMARK    1  A    between atoms: C_1  and  C_2
REMARK    2  A    between atoms: C_2  and  C_3
REMARK    3  A    between atoms: C_2  and  C_4
REMARK    4  A    between atoms: C_2  and  C_5
REMARK    5  A    between atoms: C_7  and  N_12
REMARK    6  A    between atoms: C_10  and  O_11
REMARK    7  A    between atoms: N_13  and  C_14
REMARK    8  A    between atoms: C_19  and  C_20
REMARK    9  A    between atoms: C_20  and  O_21
REMARK                            x       y       z     vdW  Elec       q    Type
REMARK                         _______ _______ _______ _____ _____    ______ ____
ROOT
ATOM      1  C   UNL     1       8.308   1.400  22.878  0.00  0.00    +0.001 A 
ATOM      2  C   UNL     1       9.345   1.125  21.968  0.00  0.00    +0.121 A 
ATOM      3  C   UNL     1       9.676  -0.179  21.591  0.00  0.00    +0.048 A 
ATOM      4  C   UNL     1       8.979  -1.259  22.120  0.00  0.00    +0.033 A 
ATOM      5  C   UNL     1       7.919  -1.049  23.002  0.00  0.00    +0.087 A 
ATOM      6  C   UNL     1       7.607   0.273  23.376  0.00  0.00    +0.037 A 
ENDROOT
BRANCH   1   8
ATOM      7  C   UNL     1       6.941   2.684  24.522  0.00  0.00    +0.015 C 
ATOM      8  C   UNL     1       8.000   2.822  23.408  0.00  0.00    -0.009 C 
ATOM      9  C   UNL     1       9.228   3.570  23.987  0.00  0.00    +0.015 C 
ATOM     10  C   UNL     1       7.427   3.775  22.326  0.00  0.00    +0.015 C 
ENDBRANCH   1   8
BRANCH   2  11
ATOM     11  O   UNL     1      10.094   2.138  21.441  0.00  0.00    -0.506 OA
ATOM     12  H   UNL     1      10.961   1.792  21.172  0.00  0.00    +0.292 HD
ENDBRANCH   2  11
BRANCH   5  13
ATOM     13  N   UNL     1       7.187  -2.111  23.577  0.00  0.00    -0.149 NA
ATOM     14  N   UNL     1       7.720  -3.229  23.384  0.00  0.00    -0.148 NA
BRANCH  14  15
ATOM     15  C   UNL     1       6.900  -4.280  23.863  0.00  0.00    +0.100 A 
ATOM     16  C   UNL     1       6.034  -4.998  23.014  0.00  0.00    +0.086 A 
ATOM     17  C   UNL     1       5.228  -6.021  23.557  0.00  0.00    +0.017 A 
ATOM     18  C   UNL     1       5.268  -6.326  24.918  0.00  0.00    +0.001 A 
ATOM     19  C   UNL     1       6.097  -5.601  25.763  0.00  0.00    +0.002 A 
ATOM     20  C   UNL     1       6.894  -4.582  25.241  0.00  0.00    +0.030 A 
BRANCH  16  21
ATOM     21  C   UNL     1       5.886  -4.766  21.545  0.00  0.00    +0.339 C 
ATOM     22  O   UNL     1       5.963  -5.675  20.731  0.00  0.00    -0.245 OA
BRANCH  21  23
ATOM     23  O   UNL     1       5.634  -3.497  21.159  0.00  0.00    -0.477 OA
ATOM     24  H   UNL     1       5.510  -2.878  21.905  0.00  0.00    +0.295 HD
ENDBRANCH  21  23
ENDBRANCH  16  21
ENDBRANCH  14  15
ENDBRANCH   5  13
TORSDOF 6
ENDMDL
MODEL 2
REMARK VINA RESULT:      -6.5      2.264      2.803
REMARK  Name = 
REMARK  9 active torsions:
REMARK  status: ('A' for Active; 'I' for Inactive)
REMARK    1  A    between atoms: C_1  and  C_2
REMARK    2  A    between atoms: C_2  and  C_3
REMARK    3  A    between atoms: C_2  and  C_4
REMARK    4  A    between atoms: C_2  and  C_5
REMARK    5  A    between atoms: C_7  and  N_12
REMARK    6  A    between atoms: C_10  and  O_11
REMARK    7  A    between atoms: N_13  and  C_14
REMARK    8  A    between atoms: C_19  and  C_20
REMARK    9  A    between atoms: C_20  and  O_21
REMARK                            x       y       z     vdW  Elec       q    Type
REMARK                         _______ _______ _______ _____ _____    ______ ____
ROOT
ATOM      1  C   UNL     1       7.996   2.057  23.358  0.00  0.00    +0.001 A 
ATOM      2  C   UNL     1       9.203   2.580  22.859  0.00  0.00    +0.121 A 
ATOM      3  C   UNL     1      10.094   1.806  22.109  0.00  0.00    +0.048 A 
ATOM      4  C   UNL     1       9.806   0.474  21.837  0.00  0.00    +0.033 A 
ATOM      5  C   UNL     1       8.609  -0.092  22.275  0.00  0.00    +0.087 A 
ATOM      6  C   UNL     1       7.729   0.702  23.038  0.00  0.00    +0.037 A 
ENDROOT
BRANCH   1   8
ATOM      7  C   UNL     1       5.874   1.924  24.660  0.00  0.00    +0.015 C 
ATOM      8  C   UNL     1       7.051   2.852  24.293  0.00  0.00    -0.009 C 
ATOM      9  C   UNL     1       7.715   3.347  25.603  0.00  0.00    +0.015 C 
ATOM     10  C   UNL     1       6.461   4.128  23.637  0.00  0.00    +0.015 C 
ENDBRANCH   1   8
BRANCH   2  11
ATOM     11  O   UNL     1       9.565   3.870  23.123  0.00  0.00    -0.506 OA
ATOM     12  H   UNL     1       9.634   3.996  24.083  0.00  0.00    +0.292 HD
ENDBRANCH   2  11
BRANCH   5  13
ATOM     13  N   UNL     1       8.274  -1.443  22.036  0.00  0.00    -0.149 NA
ATOM     14  N   UNL     1       7.443  -1.890  22.861  0.00  0.00    -0.148 NA
BRANCH  14  15
ATOM     15  C   UNL     1       7.225  -3.277  22.670  0.00  0.00    +0.100 A 
ATOM     16  C   UNL     1       7.940  -4.252  23.394  0.00  0.00    +0.086 A 
ATOM     17  C   UNL     1       7.690  -5.618  23.144  0.00  0.00    +0.017 A 
ATOM     18  C   UNL     1       6.756  -6.017  22.187  0.00  0.00    +0.001 A 
ATOM     19  C   UNL     1       6.072  -5.060  21.451  0.00  0.00    +0.002 A 
ATOM     20  C   UNL     1       6.314  -3.707  21.683  0.00  0.00    +0.030 A 
BRANCH  16  21
ATOM     21  C   UNL     1       8.973  -3.961  24.435  0.00  0.00    +0.339 C 
ATOM     22  O   UNL     1       8.919  -4.443  25.558  0.00  0.00    -0.245 OA
BRANCH  21  23
ATOM     23  O   UNL     1       9.991  -3.157  24.064  0.00  0.00    -0.477 OA
ATOM     24  H   UNL     1      10.851  -3.617  24.000  0.00  0.00    +0.295 HD
ENDBRANCH  21  23
ENDBRANCH  16  21
ENDBRANCH  14  15
ENDBRANCH   5  13
TORSDOF 6
ENDMDL
MODEL 3
REMARK VINA RESULT:      -6.5      1.899      2.428
REMARK  Name = 
REMARK  9 active torsions:
REMARK  status: ('A' for Active; 'I' for Inactive)
REMARK    1  A    between atoms: C_1  and  C_2
REMARK    2  A    between atoms: C_2  and  C_3
REMARK    3  A    between atoms: C_2  and  C_4
REMARK    4  A    between atoms: C_2  and  C_5
REMARK    5  A    between atoms: C_7  and  N_12
REMARK    6  A    between atoms: C_10  and  O_11
REMARK    7  A    between atoms: N_13  and  C_14
REMARK    8  A    between atoms: C_19  and  C_20
REMARK    9  A    between atoms: C_20  and  O_21
REMARK                            x       y       z     vdW  Elec       q    Type
REMARK                         _______ _______ _______ _____ _____    ______ ____
ROOT
ATOM      1  C   UNL     1       8.357   1.507  22.899  0.00  0.00    +0.001 A 
ATOM      2  C   UNL     1       9.386   1.229  21.980  0.00  0.00    +0.121 A 
ATOM      3  C   UNL     1       9.677  -0.073  21.562  0.00  0.00    +0.048 A 
ATOM      4  C   UNL     1       8.946  -1.147  22.058  0.00  0.00    +0.033 A 
ATOM      5  C   UNL     1       7.892  -0.932  22.945  0.00  0.00    +0.087 A 
ATOM      6  C   UNL     1       7.621   0.387  23.361  0.00  0.00    +0.037 A 
ENDROOT
BRANCH   1   8
ATOM      7  C   UNL     1       7.020   2.782  24.573  0.00  0.00    +0.015 C 
ATOM      8  C   UNL     1       8.093   2.921  23.473  0.00  0.00    -0.009 C 
ATOM      9  C   UNL     1       9.341   3.606  24.087  0.00  0.00    +0.015 C 
ATOM     10  C   UNL     1       7.562   3.928  22.419  0.00  0.00    +0.015 C 
ENDBRANCH   1   8
BRANCH   2  11
ATOM     11  O   UNL     1      10.167   2.234  21.485  0.00  0.00    -0.506 OA
ATOM     12  H   UNL     1       9.606   2.896  21.051  0.00  0.00    +0.292 HD
ENDBRANCH   2  11
BRANCH   5  13
ATOM     13  N   UNL     1       7.127  -1.988  23.487  0.00  0.00    -0.149 NA
ATOM     14  N   UNL     1       7.719  -3.092  23.436  0.00  0.00    -0.148 NA
BRANCH  14  15
ATOM     15  C   UNL     1       6.878  -4.146  23.871  0.00  0.00    +0.100 A 
ATOM     16  C   UNL     1       6.898  -4.617  25.199  0.00  0.00    +0.086 A 
ATOM     17  C   UNL     1       6.050  -5.683  25.565  0.00  0.00    +0.017 A 
ATOM     18  C   UNL     1       5.202  -6.284  24.633  0.00  0.00    +0.001 A 
ATOM     19  C   UNL     1       5.202  -5.843  23.317  0.00  0.00    +0.002 A 
ATOM     20  C   UNL     1       6.040  -4.794  22.940  0.00  0.00    +0.030 A 
BRANCH  16  21
ATOM     21  C   UNL     1       7.763  -4.073  26.290  0.00  0.00    +0.339 C 
ATOM     22  O   UNL     1       8.310  -4.797  27.110  0.00  0.00    -0.245 OA
BRANCH  21  23
ATOM     23  O   UNL     1       7.936  -2.735  26.310  0.00  0.00    -0.477 OA
ATOM     24  H   UNL     1       8.867  -2.458  26.200  0.00  0.00    +0.295 HD
ENDBRANCH  21  23
ENDBRANCH  16  21
ENDBRANCH  14  15
ENDBRANCH   5  13
TORSDOF 6
ENDMDL
MODEL 4
REMARK VINA RESULT:      -6.2      2.193      7.504
REMARK  Name = 
REMARK  9 active torsions:
REMARK  status: ('A' for Active; 'I' for Inactive)
REMARK    1  A    between atoms: C_1  and  C_2
REMARK    2  A    between atoms: C_2  and  C_3
REMARK    3  A    between atoms: C_2  and  C_4
REMARK    4  A    between atoms: C_2  and  C_5
REMARK    5  A    between atoms: C_7  and  N_12
REMARK    6  A    between atoms: C_10  and  O_11
REMARK    7  A    between atoms: N_13  and  C_14
REMARK    8  A    between atoms: C_19  and  C_20
REMARK    9  A    between atoms: C_20  and  O_21
REMARK                            x       y       z     vdW  Elec       q    Type
REMARK                         _______ _______ _______ _____ _____    ______ ____
ROOT
ATOM      1  C   UNL     1       7.313  -3.757  23.771  0.00  0.00    +0.001 A 
ATOM      2  C   UNL     1       8.619  -4.116  24.155  0.00  0.00    +0.121 A 
ATOM      3  C   UNL     1       9.600  -3.161  24.437  0.00  0.00    +0.048 A 
ATOM      4  C   UNL     1       9.305  -1.806  24.338  0.00  0.00    +0.033 A 
ATOM      5  C   UNL     1       8.020  -1.387  23.994  0.00  0.00    +0.087 A 
ATOM      6  C   UNL     1       7.048  -2.366  23.705  0.00  0.00    +0.037 A 
ENDROOT
BRANCH   1   8
ATOM      7  C   UNL     1       5.036  -4.001  22.786  0.00  0.00    +0.015 C 
ATOM      8  C   UNL     1       6.245  -4.789  23.334  0.00  0.00    -0.009 C 
ATOM      9  C   UNL     1       6.721  -5.781  22.243  0.00  0.00    +0.015 C 
ATOM     10  C   UNL     1       5.738  -5.685  24.495  0.00  0.00    +0.015 C 
ENDBRANCH   1   8
BRANCH   2  11
ATOM     11  O   UNL     1       8.984  -5.429  24.234  0.00  0.00    -0.506 OA
ATOM     12  H   UNL     1       8.359  -5.970  23.725  0.00  0.00    +0.292 HD
ENDBRANCH   2  11
BRANCH   5  13
ATOM     13  N   UNL     1       7.674  -0.024  23.868  0.00  0.00    -0.149 NA
ATOM     14  N   UNL     1       8.119   0.495  22.817  0.00  0.00    -0.148 NA
BRANCH  14  15
ATOM     15  C   UNL     1       7.861   1.888  22.783  0.00  0.00    +0.100 A 
ATOM     16  C   UNL     1       8.786   2.831  23.274  0.00  0.00    +0.086 A 
ATOM     17  C   UNL     1       8.462   4.203  23.228  0.00  0.00    +0.017 A 
ATOM     18  C   UNL     1       7.239   4.639  22.714  0.00  0.00    +0.001 A 
ATOM     19  C   UNL     1       6.313   3.712  22.257  0.00  0.00    +0.002 A 
ATOM     20  C   UNL     1       6.618   2.352  22.303  0.00  0.00    +0.030 A 
BRANCH  16  21
ATOM     21  C   UNL     1      10.121   2.499  23.859  0.00  0.00    +0.339 C 
ATOM     22  O   UNL     1      11.144   3.071  23.511  0.00  0.00    -0.245 OA
BRANCH  21  23
ATOM     23  O   UNL     1      10.138   1.548  24.817  0.00  0.00    -0.477 OA
ATOM     24  H   UNL     1      11.026   1.173  24.981  0.00  0.00    +0.295 HD
ENDBRANCH  21  23
ENDBRANCH  16  21
ENDBRANCH  14  15
ENDBRANCH   5  13
TORSDOF 6
ENDMDL
MODEL 5
REMARK VINA RESULT:      -6.2      2.178      7.149
REMARK  Name = 
REMARK  9 active torsions:
REMARK  status: ('A' for Active; 'I' for Inactive)
REMARK    1  A    between atoms: C_1  and  C_2
REMARK    2  A    between atoms: C_2  and  C_3
REMARK    3  A    between atoms: C_2  and  C_4
REMARK    4  A    between atoms: C_2  and  C_5
REMARK    5  A    between atoms: C_7  and  N_12
REMARK    6  A    between atoms: C_10  and  O_11
REMARK    7  A    between atoms: N_13  and  C_14
REMARK    8  A    between atoms: C_19  and  C_20
REMARK    9  A    between atoms: C_20  and  O_21
REMARK                            x       y       z     vdW  Elec       q    Type
REMARK                         _______ _______ _______ _____ _____    ______ ____
ROOT
ATOM      1  C   UNL     1       6.807  -4.433  24.278  0.00  0.00    +0.001 A 
ATOM      2  C   UNL     1       6.991  -5.038  25.536  0.00  0.00    +0.121 A 
ATOM      3  C   UNL     1       7.806  -4.471  26.520  0.00  0.00    +0.048 A 
ATOM      4  C   UNL     1       8.472  -3.276  26.274  0.00  0.00    +0.033 A 
ATOM      5  C   UNL     1       8.303  -2.612  25.059  0.00  0.00    +0.087 A 
ATOM      6  C   UNL     1       7.485  -3.204  24.077  0.00  0.00    +0.037 A 
ENDROOT
BRANCH   1   8
ATOM      7  C   UNL     1       5.626  -3.987  22.128  0.00  0.00    +0.015 C 
ATOM      8  C   UNL     1       6.013  -5.098  23.127  0.00  0.00    -0.009 C 
ATOM      9  C   UNL     1       6.792  -6.198  22.362  0.00  0.00    +0.015 C 
ATOM     10  C   UNL     1       4.705  -5.788  23.596  0.00  0.00    +0.015 C 
ENDBRANCH   1   8
BRANCH   2  11
ATOM     11  O   UNL     1       6.397  -6.232  25.827  0.00  0.00    -0.506 OA
ATOM     12  H   UNL     1       5.486  -6.230  25.492  0.00  0.00    +0.292 HD
ENDBRANCH   2  11
BRANCH   5  13
ATOM     13  N   UNL     1       8.966  -1.402  24.756  0.00  0.00    -0.149 NA
ATOM     14  N   UNL     1       8.220  -0.569  24.189  0.00  0.00    -0.148 NA
BRANCH  14  15
ATOM     15  C   UNL     1       8.945   0.580  23.787  0.00  0.00    +0.100 A 
ATOM     16  C   UNL     1       9.584   0.659  22.534  0.00  0.00    +0.086 A 
ATOM     17  C   UNL     1      10.307   1.823  22.200  0.00  0.00    +0.017 A 
ATOM     18  C   UNL     1      10.407   2.891  23.093  0.00  0.00    +0.001 A 
ATOM     19  C   UNL     1       9.805   2.805  24.340  0.00  0.00    +0.002 A 
ATOM     20  C   UNL     1       9.092   1.657  24.686  0.00  0.00    +0.030 A 
BRANCH  16  21
ATOM     21  C   UNL     1       9.566  -0.414  21.493  0.00  0.00    +0.339 C 
ATOM     22  O   UNL     1       9.010  -0.266  20.414  0.00  0.00    -0.245 OA
BRANCH  21  23
ATOM     23  O   UNL     1      10.223  -1.555  21.793  0.00  0.00    -0.477 OA
ATOM     24  H   UNL     1      10.948  -1.431  22.436  0.00  0.00    +0.295 HD
ENDBRANCH  21  23
ENDBRANCH  16  21
ENDBRANCH  14  15
ENDBRANCH   5  13
TORSDOF 6
ENDMDL
MODEL 6
REMARK VINA RESULT:      -5.9      1.902      2.454
REMARK  Name = 
REMARK  9 active torsions:
REMARK  status: ('A' for Active; 'I' for Inactive)
REMARK    1  A    between atoms: C_1  and  C_2
REMARK    2  A    between atoms: C_2  and  C_3
REMARK    3  A    between atoms: C_2  and  C_4
REMARK    4  A    between atoms: C_2  and  C_5
REMARK    5  A    between atoms: C_7  and  N_12
REMARK    6  A    between atoms: C_10  and  O_11
REMARK    7  A    between atoms: N_13  and  C_14
REMARK    8  A    between atoms: C_19  and  C_20
REMARK    9  A    between atoms: C_20  and  O_21
REMARK                            x       y       z     vdW  Elec       q    Type
REMARK                         _______ _______ _______ _____ _____    ______ ____
ROOT
ATOM      1  C   UNL     1       8.023   1.074  22.653  0.00  0.00    +0.001 A 
ATOM      2  C   UNL     1       9.204   1.063  21.888  0.00  0.00    +0.121 A 
ATOM      3  C   UNL     1       9.816  -0.127  21.484  0.00  0.00    +0.048 A 
ATOM      4  C   UNL     1       9.266  -1.353  21.840  0.00  0.00    +0.033 A 
ATOM      5  C   UNL     1       8.078  -1.407  22.568  0.00  0.00    +0.087 A 
ATOM      6  C   UNL     1       7.481  -0.196  22.974  0.00  0.00    +0.037 A 
ENDROOT
BRANCH   1   8
ATOM      7  C   UNL     1       8.370   2.943  24.265  0.00  0.00    +0.015 C 
ATOM      8  C   UNL     1       7.392   2.370  23.218  0.00  0.00    -0.009 C 
ATOM      9  C   UNL     1       7.112   3.463  22.156  0.00  0.00    +0.015 C 
ATOM     10  C   UNL     1       6.028   2.139  23.922  0.00  0.00    +0.015 C 
ENDBRANCH   1   8
BRANCH   2  11
ATOM     11  O   UNL     1       9.817   2.232  21.538  0.00  0.00    -0.506 OA
ATOM     12  H   UNL     1       9.148   2.879  21.263  0.00  0.00    +0.292 HD
ENDBRANCH   2  11
BRANCH   5  13
ATOM     13  N   UNL     1       7.485  -2.626  22.965  0.00  0.00    -0.149 NA
ATOM     14  N   UNL     1       6.263  -2.683  22.690  0.00  0.00    -0.148 NA
BRANCH  14  15
ATOM     15  C   UNL     1       5.674  -3.862  23.212  0.00  0.00    +0.100 A 
ATOM     16  C   UNL     1       4.903  -3.852  24.392  0.00  0.00    +0.086 A 
ATOM     17  C   UNL     1       4.359  -5.062  24.870  0.00  0.00    +0.017 A 
ATOM     18  C   UNL     1       4.579  -6.267  24.201  0.00  0.00    +0.001 A 
ATOM     19  C   UNL     1       5.363  -6.285  23.055  0.00  0.00    +0.002 A 
ATOM     20  C   UNL     1       5.913  -5.097  22.575  0.00  0.00    +0.030 A 
BRANCH  16  21
ATOM     21  C   UNL     1       4.601  -2.637  25.209  0.00  0.00    +0.339 C 
ATOM     22  O   UNL     1       3.475  -2.388  25.614  0.00  0.00    -0.245 OA
BRANCH  21  23
ATOM     23  O   UNL     1       5.647  -1.835  25.503  0.00  0.00    -0.477 OA
ATOM     24  H   UNL     1       5.665  -1.008  24.981  0.00  0.00    +0.295 HD
ENDBRANCH  21  23
ENDBRANCH  16  21
ENDBRANCH  14  15
ENDBRANCH   5  13
TORSDOF 6
ENDMDL
MODEL 7
REMARK VINA RESULT:      -5.9      2.390      7.257
REMARK  Name = 
REMARK  9 active torsions:
REMARK  status: ('A' for Active; 'I' for Inactive)
REMARK    1  A    between atoms: C_1  and  C_2
REMARK    2  A    between atoms: C_2  and  C_3
REMARK    3  A    between atoms: C_2  and  C_4
REMARK    4  A    between atoms: C_2  and  C_5
REMARK    5  A    between atoms: C_7  and  N_12
REMARK    6  A    between atoms: C_10  and  O_11
REMARK    7  A    between atoms: N_13  and  C_14
REMARK    8  A    between atoms: C_19  and  C_20
REMARK    9  A    between atoms: C_20  and  O_21
REMARK                            x       y       z     vdW  Elec       q    Type
REMARK                         _______ _______ _______ _____ _____    ______ ____
ROOT
ATOM      1  C   UNL     1       6.030  -4.580  25.281  0.00  0.00    +0.001 A 
ATOM      2  C   UNL     1       6.517  -5.452  26.273  0.00  0.00    +0.121 A 
ATOM      3  C   UNL     1       7.710  -5.204  26.959  0.00  0.00    +0.048 A 
ATOM      4  C   UNL     1       8.462  -4.072  26.669  0.00  0.00    +0.033 A 
ATOM      5  C   UNL     1       8.014  -3.153  25.720  0.00  0.00    +0.087 A 
ATOM      6  C   UNL     1       6.814  -3.426  25.032  0.00  0.00    +0.037 A 
ENDROOT
BRANCH   1   8
ATOM      7  C   UNL     1       4.745  -3.864  23.268  0.00  0.00    +0.015 C 
ATOM      8  C   UNL     1       4.781  -4.890  24.419  0.00  0.00    -0.009 C 
ATOM      9  C   UNL     1       4.761  -6.315  23.809  0.00  0.00    +0.015 C 
ATOM     10  C   UNL     1       3.446  -4.772  25.201  0.00  0.00    +0.015 C 
ENDBRANCH   1   8
BRANCH   2  11
ATOM     11  O   UNL     1       5.848  -6.602  26.578  0.00  0.00    -0.506 OA
ATOM     12  H   UNL     1       5.357  -6.907  25.798  0.00  0.00    +0.292 HD
ENDBRANCH   2  11
BRANCH   5  13
ATOM     13  N   UNL     1       8.746  -1.994  25.380  0.00  0.00    -0.149 NA
ATOM     14  N   UNL     1       8.046  -1.129  24.803  0.00  0.00    -0.148 NA
BRANCH  14  15
ATOM     15  C   UNL     1       8.835  -0.037  24.366  0.00  0.00    +0.100 A 
ATOM     16  C   UNL     1       8.333   0.941  23.483  0.00  0.00    +0.086 A 
ATOM     17  C   UNL     1       9.175   1.994  23.070  0.00  0.00    +0.017 A 
ATOM     18  C   UNL     1      10.496   2.078  23.512  0.00  0.00    +0.001 A 
ATOM     19  C   UNL     1      11.004   1.101  24.357  0.00  0.00    +0.002 A 
ATOM     20  C   UNL     1      10.184   0.050  24.769  0.00  0.00    +0.030 A 
BRANCH  16  21
ATOM     21  C   UNL     1       6.946   0.963  22.926  0.00  0.00    +0.339 C 
ATOM     22  O   UNL     1       6.405   1.999  22.567  0.00  0.00    -0.245 OA
BRANCH  21  23
ATOM     23  O   UNL     1       6.324  -0.230  22.814  0.00  0.00    -0.477 OA
ATOM     24  H   UNL     1       6.496  -0.683  21.965  0.00  0.00    +0.295 HD
ENDBRANCH  21  23
ENDBRANCH  16  21
ENDBRANCH  14  15
ENDBRANCH   5  13
TORSDOF 6
ENDMDL
MODEL 8
REMARK VINA RESULT:      -5.9      2.749      7.331
REMARK  Name = 
REMARK  9 active torsions:
REMARK  status: ('A' for Active; 'I' for Inactive)
REMARK    1  A    between atoms: C_1  and  C_2
REMARK    2  A    between atoms: C_2  and  C_3
REMARK    3  A    between atoms: C_2  and  C_4
REMARK    4  A    between atoms: C_2  and  C_5
REMARK    5  A    between atoms: C_7  and  N_12
REMARK    6  A    between atoms: C_10  and  O_11
REMARK    7  A    between atoms: N_13  and  C_14
REMARK    8  A    between atoms: C_19  and  C_20
REMARK    9  A    between atoms: C_20  and  O_21
REMARK                            x       y       z     vdW  Elec       q    Type
REMARK                         _______ _______ _______ _____ _____    ______ ____
ROOT
ATOM      1  C   UNL     1       6.417  -4.691  26.407  0.00  0.00    +0.001 A 
ATOM      2  C   UNL     1       7.607  -5.232  26.928  0.00  0.00    +0.121 A 
ATOM      3  C   UNL     1       8.867  -4.798  26.507  0.00  0.00    +0.048 A 
ATOM      4  C   UNL     1       8.978  -3.805  25.540  0.00  0.00    +0.033 A 
ATOM      5  C   UNL     1       7.835  -3.207  25.010  0.00  0.00    +0.087 A 
ATOM      6  C   UNL     1       6.574  -3.666  25.441  0.00  0.00    +0.037 A 
ENDROOT
BRANCH   1   8
ATOM      7  C   UNL     1       4.777  -4.972  28.264  0.00  0.00    +0.015 C 
ATOM      8  C   UNL     1       5.012  -5.237  26.763  0.00  0.00    -0.009 C 
ATOM      9  C   UNL     1       3.852  -4.592  25.962  0.00  0.00    +0.015 C 
ATOM     10  C   UNL     1       4.862  -6.763  26.523  0.00  0.00    +0.015 C 
ENDBRANCH   1   8
BRANCH   2  11
ATOM     11  O   UNL     1       7.569  -6.237  27.852  0.00  0.00    -0.506 OA
ATOM     12  H   UNL     1       6.677  -6.620  27.876  0.00  0.00    +0.292 HD
ENDBRANCH   2  11
BRANCH   5  13
ATOM     13  N   UNL     1       7.892  -2.204  24.018  0.00  0.00    -0.149 NA
ATOM     14  N   UNL     1       8.403  -1.138  24.433  0.00  0.00    -0.148 NA
BRANCH  14  15
ATOM     15  C   UNL     1       8.331  -0.117  23.453  0.00  0.00    +0.100 A 
ATOM     16  C   UNL     1       7.240   0.772  23.380  0.00  0.00    +0.086 A 
ATOM     17  C   UNL     1       7.218   1.755  22.369  0.00  0.00    +0.017 A 
ATOM     18  C   UNL     1       8.253   1.855  21.437  0.00  0.00    +0.001 A 
ATOM     19  C   UNL     1       9.314   0.963  21.488  0.00  0.00    +0.002 A 
ATOM     20  C   UNL     1       9.345  -0.019  22.478  0.00  0.00    +0.030 A 
BRANCH  16  21
ATOM     21  C   UNL     1       6.065   0.767  24.305  0.00  0.00    +0.339 C 
ATOM     22  O   UNL     1       5.663   1.783  24.853  0.00  0.00    -0.245 OA
BRANCH  21  23
ATOM     23  O   UNL     1       5.447  -0.420  24.486  0.00  0.00    -0.477 OA
ATOM     24  H   UNL     1       4.486  -0.341  24.643  0.00  0.00    +0.295 HD
ENDBRANCH  21  23
ENDBRANCH  16  21
ENDBRANCH  14  15
ENDBRANCH   5  13
TORSDOF 6
ENDMDL
MODEL 9
REMARK VINA RESULT:      -5.8      2.301      2.572
REMARK  Name = 
REMARK  9 active torsions:
REMARK  status: ('A' for Active; 'I' for Inactive)
REMARK    1  A    between atoms: C_1  and  C_2
REMARK    2  A    between atoms: C_2  and  C_3
REMARK    3  A    between atoms: C_2  and  C_4
REMARK    4  A    between atoms: C_2  and  C_5
REMARK    5  A    between atoms: C_7  and  N_12
REMARK    6  A    between atoms: C_10  and  O_11
REMARK    7  A    between atoms: N_13  and  C_14
REMARK    8  A    between atoms: C_19  and  C_20
REMARK    9  A    between atoms: C_20  and  O_21
REMARK                            x       y       z     vdW  Elec       q    Type
REMARK                         _______ _______ _______ _____ _____    ______ ____
ROOT
ATOM      1  C   UNL     1       8.732   1.663  23.344  0.00  0.00    +0.001 A 
ATOM      2  C   UNL     1       9.642   1.311  22.329  0.00  0.00    +0.121 A 
ATOM      3  C   UNL     1      10.128   0.009  22.186  0.00  0.00    +0.048 A 
ATOM      4  C   UNL     1       9.722  -0.990  23.063  0.00  0.00    +0.033 A 
ATOM      5  C   UNL     1       8.797  -0.712  24.069  0.00  0.00    +0.087 A 
ATOM      6  C   UNL     1       8.326   0.610  24.202  0.00  0.00    +0.037 A 
ENDROOT
BRANCH   1   8
ATOM      7  C   UNL     1       9.534   3.955  23.906  0.00  0.00    +0.015 C 
ATOM      8  C   UNL     1       8.273   3.119  23.604  0.00  0.00    -0.009 C 
ATOM      9  C   UNL     1       7.521   3.774  22.418  0.00  0.00    +0.015 C 
ATOM     10  C   UNL     1       7.312   3.258  24.813  0.00  0.00    +0.015 C 
ENDBRANCH   1   8
BRANCH   2  11
ATOM     11  O   UNL     1      10.110   2.253  21.459  0.00  0.00    -0.506 OA
ATOM     12  H   UNL     1       9.363   2.672  21.002  0.00  0.00    +0.292 HD
ENDBRANCH   2  11
BRANCH   5  13
ATOM     13  N   UNL     1       8.362  -1.687  24.993  0.00  0.00    -0.149 NA
ATOM     14  N   UNL     1       7.682  -2.594  24.458  0.00  0.00    -0.148 NA
BRANCH  14  15
ATOM     15  C   UNL     1       7.158  -3.484  25.428  0.00  0.00    +0.100 A 
ATOM     16  C   UNL     1       5.805  -3.450  25.818  0.00  0.00    +0.086 A 
ATOM     17  C   UNL     1       5.348  -4.351  26.803  0.00  0.00    +0.017 A 
ATOM     18  C   UNL     1       6.216  -5.266  27.402  0.00  0.00    +0.001 A 
ATOM     19  C   UNL     1       7.556  -5.282  27.042  0.00  0.00    +0.002 A 
ATOM     20  C   UNL     1       8.022  -4.392  26.074  0.00  0.00    +0.030 A 
BRANCH  16  21
ATOM     21  C   UNL     1       4.776  -2.516  25.267  0.00  0.00    +0.339 C 
ATOM     22  O   UNL     1       3.620  -2.863  25.071  0.00  0.00    -0.245 OA
BRANCH  21  23
ATOM     23  O   UNL     1       5.182  -1.252  25.020  0.00  0.00    -0.477 OA
ATOM     24  H   UNL     1       6.051  -1.200  24.577  0.00  0.00    +0.295 HD
ENDBRANCH  21  23
ENDBRANCH  16  21
ENDBRANCH  14  15
ENDBRANCH   5  13
TORSDOF 6
ENDMDL
