MODEL 1
REMARK VINA RESULT:      -6.5      0.000      0.000
REMARK  Name = 
REMARK  17 active torsions:
REMARK  status: ('A' for Active; 'I' for Inactive)
REMARK    1  A    between atoms: C_1  and  C_2
REMARK    2  A    between atoms: C_4  and  C_6
REMARK    3  A    between atoms: C_6  and  C_7
REMARK    4  A    between atoms: C_10  and  C_11
REMARK    5  A    between atoms: C_11  and  C_12
REMARK    6  A    between atoms: C_12  and  C_13
REMARK    7  A    between atoms: C_13  and  O_14
REMARK    8  A    between atoms: C_16  and  C_17
REMARK    9  A    between atoms: C_17  and  C_18
REMARK   10  A    between atoms: C_18  and  O_19
REMARK   11  A    between atoms: C_21  and  C_22
REMARK   12  A    between atoms: C_22  and  C_23
REMARK   13  A    between atoms: C_23  and  C_24
REMARK   14  A    between atoms: C_24  and  O_25
REMARK   15  A    between atoms: C_27  and  C_28
REMARK   16  A    between atoms: C_28  and  C_29
REMARK   17  A    between atoms: C_29  and  O_30
REMARK                            x       y       z     vdW  Elec       q    Type
REMARK                         _______ _______ _______ _____ _____    ______ ____
ROOT
ATOM      1  C   UNL     1       6.751  -6.017  28.112  0.00  0.00    +0.065 C 
ATOM      2  C   UNL     1       7.122  -5.372  26.811  0.00  0.00    +0.037 C 
ATOM      3  C   UNL     1       6.171  -5.180  25.700  0.00  0.00    -0.015 C 
ATOM      4  C   UNL     1       6.916  -4.537  24.784  0.00  0.00    -0.039 C 
ATOM      5  C   UNL     1       8.301  -4.258  25.320  0.00  0.00    +0.138 C 
ATOM      6  N   UNL     1       8.331  -4.915  26.648  0.00  0.00    -0.280 NA
ENDROOT
BRANCH   5   7
ATOM      7  C   UNL     1       8.532  -2.769  25.583  0.00  0.00    +0.086 C 
BRANCH   7   8
ATOM      8  C   UNL     1       9.090  -2.087  24.371  0.00  0.00    +0.042 C 
ATOM      9  C   UNL     1       8.496  -0.869  23.791  0.00  0.00    -0.015 C 
ATOM     10  C   UNL     1       9.261  -0.694  22.702  0.00  0.00    -0.043 C 
ATOM     11  C   UNL     1      10.316  -1.753  22.595  0.00  0.00    +0.173 C 
ATOM     12  N   UNL     1      10.113  -2.615  23.762  0.00  0.00    -0.284 NA
BRANCH  10  13
ATOM     13  C   UNL     1       9.136   0.357  21.634  0.00  0.00    +0.044 C 
BRANCH  13  14
ATOM     14  C   UNL     1       9.990   1.603  21.914  0.00  0.00    +0.125 C 
BRANCH  14  15
ATOM     15  C   UNL     1       9.312   2.562  22.859  0.00  0.00    +0.305 C 
ATOM     16  O   UNL     1       8.271   3.156  22.634  0.00  0.00    -0.251 OA
BRANCH  15  17
ATOM     17  O   UNL     1       9.975   2.679  24.031  0.00  0.00    -0.481 OA
ATOM     18  H   UNL     1       9.572   2.190  24.773  0.00  0.00    +0.295 HD
ENDBRANCH  15  17
ENDBRANCH  14  15
ENDBRANCH  13  14
ENDBRANCH  10  13
BRANCH   9  19
ATOM     19  C   UNL     1       7.278  -0.180  24.299  0.00  0.00    +0.157 C 
BRANCH  19  20
ATOM     20  C   UNL     1       7.398   0.649  25.561  0.00  0.00    +0.309 C 
ATOM     21  O   UNL     1       6.436   0.886  26.284  0.00  0.00    -0.251 OA
BRANCH  20  22
ATOM     22  O   UNL     1       8.651   1.000  25.911  0.00  0.00    -0.480 OA
ATOM     23  H   UNL     1       8.753   1.931  26.199  0.00  0.00    +0.295 HD
ENDBRANCH  20  22
ENDBRANCH  19  20
ENDBRANCH   9  19
ENDBRANCH   7   8
ENDBRANCH   5   7
BRANCH   4  24
ATOM     24  C   UNL     1       6.457  -4.091  23.406  0.00  0.00    +0.044 C 
BRANCH  24  25
ATOM     25  C   UNL     1       7.184  -4.743  22.222  0.00  0.00    +0.125 C 
BRANCH  25  26
ATOM     26  C   UNL     1       6.358  -5.740  21.448  0.00  0.00    +0.305 C 
ATOM     27  O   UNL     1       5.990  -5.608  20.297  0.00  0.00    -0.251 OA
BRANCH  26  28
ATOM     28  O   UNL     1       6.110  -6.856  22.176  0.00  0.00    -0.481 OA
ATOM     29  H   UNL     1       5.338  -7.377  21.864  0.00  0.00    +0.295 HD
ENDBRANCH  26  28
ENDBRANCH  25  26
ENDBRANCH  24  25
ENDBRANCH   4  24
BRANCH   3  30
ATOM     30  C   UNL     1       4.710  -5.462  25.738  0.00  0.00    +0.157 C 
BRANCH  30  31
ATOM     31  C   UNL     1       4.291  -6.886  25.426  0.00  0.00    +0.309 C 
ATOM     32  O   UNL     1       4.383  -7.441  24.345  0.00  0.00    -0.251 OA
BRANCH  31  33
ATOM     33  O   UNL     1       3.799  -7.524  26.521  0.00  0.00    -0.480 OA
ATOM     34  H   UNL     1       3.049  -7.071  26.958  0.00  0.00    +0.295 HD
ENDBRANCH  31  33
ENDBRANCH  30  31
ENDBRANCH   3  30
TORSDOF 16
ENDMDL
MODEL 2
REMARK VINA RESULT:      -6.4      1.876      3.219
REMARK  Name = 
REMARK  17 active torsions:
REMARK  status: ('A' for Active; 'I' for Inactive)
REMARK    1  A    between atoms: C_1  and  C_2
REMARK    2  A    between atoms: C_4  and  C_6
REMARK    3  A    between atoms: C_6  and  C_7
REMARK    4  A    between atoms: C_10  and  C_11
REMARK    5  A    between atoms: C_11  and  C_12
REMARK    6  A    between atoms: C_12  and  C_13
REMARK    7  A    between atoms: C_13  and  O_14
REMARK    8  A    between atoms: C_16  and  C_17
REMARK    9  A    between atoms: C_17  and  C_18
REMARK   10  A    between atoms: C_18  and  O_19
REMARK   11  A    between atoms: C_21  and  C_22
REMARK   12  A    between atoms: C_22  and  C_23
REMARK   13  A    between atoms: C_23  and  C_24
REMARK   14  A    between atoms: C_24  and  O_25
REMARK   15  A    between atoms: C_27  and  C_28
REMARK   16  A    between atoms: C_28  and  C_29
REMARK   17  A    between atoms: C_29  and  O_30
REMARK                            x       y       z     vdW  Elec       q    Type
REMARK                         _______ _______ _______ _____ _____    ______ ____
ROOT
ATOM      1  C   UNL     1       6.403  -5.935  21.261  0.00  0.00    +0.065 C 
ATOM      2  C   UNL     1       6.487  -4.978  22.412  0.00  0.00    +0.037 C 
ATOM      3  C   UNL     1       5.752  -5.164  23.677  0.00  0.00    -0.015 C 
ATOM      4  C   UNL     1       6.160  -4.113  24.411  0.00  0.00    -0.039 C 
ATOM      5  C   UNL     1       7.190  -3.303  23.658  0.00  0.00    +0.138 C 
ATOM      6  N   UNL     1       7.274  -3.944  22.324  0.00  0.00    -0.280 NA
ENDROOT
BRANCH   5   7
ATOM      7  C   UNL     1       8.586  -3.427  24.272  0.00  0.00    +0.086 C 
BRANCH   7   8
ATOM      8  C   UNL     1       9.446  -2.258  23.896  0.00  0.00    +0.042 C 
ATOM      9  C   UNL     1       9.520  -1.025  24.700  0.00  0.00    -0.015 C 
ATOM     10  C   UNL     1      10.318  -0.261  23.939  0.00  0.00    -0.043 C 
ATOM     11  C   UNL     1      10.752  -0.981  22.700  0.00  0.00    +0.173 C 
ATOM     12  N   UNL     1      10.122  -2.301  22.783  0.00  0.00    -0.284 NA
BRANCH  10  13
ATOM     13  C   UNL     1      10.746   1.162  24.173  0.00  0.00    +0.044 C 
BRANCH  13  14
ATOM     14  C   UNL     1       9.622   2.178  23.918  0.00  0.00    +0.125 C 
BRANCH  14  15
ATOM     15  C   UNL     1       9.088   2.099  22.511  0.00  0.00    +0.305 C 
ATOM     16  O   UNL     1       7.927   1.880  22.209  0.00  0.00    -0.251 OA
BRANCH  15  17
ATOM     17  O   UNL     1      10.045   2.335  21.586  0.00  0.00    -0.481 OA
ATOM     18  H   UNL     1      10.882   2.679  21.949  0.00  0.00    +0.295 HD
ENDBRANCH  15  17
ENDBRANCH  14  15
ENDBRANCH  13  14
ENDBRANCH  10  13
BRANCH   9  19
ATOM     19  C   UNL     1       8.752  -0.766  25.950  0.00  0.00    +0.157 C 
BRANCH  19  20
ATOM     20  C   UNL     1       7.307  -0.328  25.824  0.00  0.00    +0.309 C 
ATOM     21  O   UNL     1       6.551  -0.282  26.788  0.00  0.00    -0.251 OA
BRANCH  20  22
ATOM     22  O   UNL     1       6.941   0.134  24.612  0.00  0.00    -0.480 OA
ATOM     23  H   UNL     1       7.556  -0.089  23.883  0.00  0.00    +0.295 HD
ENDBRANCH  20  22
ENDBRANCH  19  20
ENDBRANCH   9  19
ENDBRANCH   7   8
ENDBRANCH   5   7
BRANCH   4  24
ATOM     24  C   UNL     1       5.710  -3.774  25.821  0.00  0.00    +0.044 C 
BRANCH  24  25
ATOM     25  C   UNL     1       6.720  -4.086  26.933  0.00  0.00    +0.125 C 
BRANCH  25  26
ATOM     26  C   UNL     1       6.965  -5.555  27.167  0.00  0.00    +0.305 C 
ATOM     27  O   UNL     1       6.105  -6.388  27.377  0.00  0.00    -0.251 OA
BRANCH  26  28
ATOM     28  O   UNL     1       8.280  -5.866  27.060  0.00  0.00    -0.481 OA
ATOM     29  H   UNL     1       8.572  -6.076  26.146  0.00  0.00    +0.295 HD
ENDBRANCH  26  28
ENDBRANCH  25  26
ENDBRANCH  24  25
ENDBRANCH   4  24
BRANCH   3  30
ATOM     30  C   UNL     1       4.944  -6.355  24.055  0.00  0.00    +0.157 C 
BRANCH  30  31
ATOM     31  C   UNL     1       3.557  -6.448  23.449  0.00  0.00    +0.309 C 
ATOM     32  O   UNL     1       2.955  -5.547  22.893  0.00  0.00    -0.251 OA
BRANCH  31  33
ATOM     33  O   UNL     1       3.032  -7.697  23.568  0.00  0.00    -0.480 OA
ATOM     34  H   UNL     1       3.692  -8.411  23.686  0.00  0.00    +0.295 HD
ENDBRANCH  31  33
ENDBRANCH  30  31
ENDBRANCH   3  30
TORSDOF 16
ENDMDL
MODEL 3
REMARK VINA RESULT:      -6.4      2.007      3.151
REMARK  Name = 
REMARK  17 active torsions:
REMARK  status: ('A' for Active; 'I' for Inactive)
REMARK    1  A    between atoms: C_1  and  C_2
REMARK    2  A    between atoms: C_4  and  C_6
REMARK    3  A    between atoms: C_6  and  C_7
REMARK    4  A    between atoms: C_10  and  C_11
REMARK    5  A    between atoms: C_11  and  C_12
REMARK    6  A    between atoms: C_12  and  C_13
REMARK    7  A    between atoms: C_13  and  O_14
REMARK    8  A    between atoms: C_16  and  C_17
REMARK    9  A    between atoms: C_17  and  C_18
REMARK   10  A    between atoms: C_18  and  O_19
REMARK   11  A    between atoms: C_21  and  C_22
REMARK   12  A    between atoms: C_22  and  C_23
REMARK   13  A    between atoms: C_23  and  C_24
REMARK   14  A    between atoms: C_24  and  O_25
REMARK   15  A    between atoms: C_27  and  C_28
REMARK   16  A    between atoms: C_28  and  C_29
REMARK   17  A    between atoms: C_29  and  O_30
REMARK                            x       y       z     vdW  Elec       q    Type
REMARK                         _______ _______ _______ _____ _____    ______ ____
ROOT
ATOM      1  C   UNL     1       6.935  -5.537  26.851  0.00  0.00    +0.065 C 
ATOM      2  C   UNL     1       7.424  -4.365  26.055  0.00  0.00    +0.037 C 
ATOM      3  C   UNL     1       6.804  -3.927  24.791  0.00  0.00    -0.015 C 
ATOM      4  C   UNL     1       7.529  -2.840  24.470  0.00  0.00    -0.039 C 
ATOM      5  C   UNL     1       8.552  -2.543  25.542  0.00  0.00    +0.138 C 
ATOM      6  N   UNL     1       8.423  -3.661  26.507  0.00  0.00    -0.280 NA
ENDROOT
BRANCH   5   7
ATOM      7  C   UNL     1       8.220  -1.272  26.325  0.00  0.00    +0.086 C 
BRANCH   7   8
ATOM      8  C   UNL     1       8.836  -0.066  25.684  0.00  0.00    +0.042 C 
ATOM      9  C   UNL     1       8.106   1.198  25.484  0.00  0.00    -0.015 C 
ATOM     10  C   UNL     1       9.012   1.924  24.812  0.00  0.00    -0.043 C 
ATOM     11  C   UNL     1      10.283   1.159  24.600  0.00  0.00    +0.173 C 
ATOM     12  N   UNL     1      10.055  -0.144  25.231  0.00  0.00    -0.284 NA
BRANCH  10  13
ATOM     13  C   UNL     1       8.865   3.312  24.250  0.00  0.00    +0.044 C 
BRANCH  13  14
ATOM     14  C   UNL     1       7.938   3.370  23.026  0.00  0.00    +0.125 C 
BRANCH  14  15
ATOM     15  C   UNL     1       8.220   2.265  22.042  0.00  0.00    +0.305 C 
ATOM     16  O   UNL     1       7.447   1.368  21.748  0.00  0.00    -0.251 OA
BRANCH  15  17
ATOM     17  O   UNL     1       9.440   2.384  21.472  0.00  0.00    -0.481 OA
ATOM     18  H   UNL     1       9.503   3.082  20.794  0.00  0.00    +0.295 HD
ENDBRANCH  15  17
ENDBRANCH  14  15
ENDBRANCH  13  14
ENDBRANCH  10  13
BRANCH   9  19
ATOM     19  C   UNL     1       6.684   1.439  25.858  0.00  0.00    +0.157 C 
BRANCH  19  20
ATOM     20  C   UNL     1       5.606   0.728  25.066  0.00  0.00    +0.309 C 
ATOM     21  O   UNL     1       4.896  -0.142  25.561  0.00  0.00    -0.251 OA
BRANCH  20  22
ATOM     22  O   UNL     1       5.385   1.202  23.824  0.00  0.00    -0.480 OA
ATOM     23  H   UNL     1       4.938   0.576  23.218  0.00  0.00    +0.295 HD
ENDBRANCH  20  22
ENDBRANCH  19  20
ENDBRANCH   9  19
ENDBRANCH   7   8
ENDBRANCH   5   7
BRANCH   4  24
ATOM     24  C   UNL     1       7.348  -1.973  23.236  0.00  0.00    +0.044 C 
BRANCH  24  25
ATOM     25  C   UNL     1       8.208  -2.357  22.024  0.00  0.00    +0.125 C 
BRANCH  25  26
ATOM     26  C   UNL     1       9.549  -1.670  21.961  0.00  0.00    +0.305 C 
ATOM     27  O   UNL     1      10.535  -1.990  22.594  0.00  0.00    -0.251 OA
BRANCH  26  28
ATOM     28  O   UNL     1       9.552  -0.661  21.055  0.00  0.00    -0.481 OA
ATOM     29  H   UNL     1      10.443  -0.424  20.719  0.00  0.00    +0.295 HD
ENDBRANCH  26  28
ENDBRANCH  25  26
ENDBRANCH  24  25
ENDBRANCH   4  24
BRANCH   3  30
ATOM     30  C   UNL     1       5.555  -4.472  24.191  0.00  0.00    +0.157 C 
BRANCH  30  31
ATOM     31  C   UNL     1       5.731  -5.514  23.104  0.00  0.00    +0.309 C 
ATOM     32  O   UNL     1       6.671  -5.597  22.334  0.00  0.00    -0.251 OA
BRANCH  31  33
ATOM     33  O   UNL     1       4.702  -6.403  23.080  0.00  0.00    -0.480 OA
ATOM     34  H   UNL     1       4.411  -6.672  22.184  0.00  0.00    +0.295 HD
ENDBRANCH  31  33
ENDBRANCH  30  31
ENDBRANCH   3  30
TORSDOF 16
ENDMDL
MODEL 4
REMARK VINA RESULT:      -6.2      2.625      7.563
REMARK  Name = 
REMARK  17 active torsions:
REMARK  status: ('A' for Active; 'I' for Inactive)
REMARK    1  A    between atoms: C_1  and  C_2
REMARK    2  A    between atoms: C_4  and  C_6
REMARK    3  A    between atoms: C_6  and  C_7
REMARK    4  A    between atoms: C_10  and  C_11
REMARK    5  A    between atoms: C_11  and  C_12
REMARK    6  A    between atoms: C_12  and  C_13
REMARK    7  A    between atoms: C_13  and  O_14
REMARK    8  A    between atoms: C_16  and  C_17
REMARK    9  A    between atoms: C_17  and  C_18
REMARK   10  A    between atoms: C_18  and  O_19
REMARK   11  A    between atoms: C_21  and  C_22
REMARK   12  A    between atoms: C_22  and  C_23
REMARK   13  A    between atoms: C_23  and  C_24
REMARK   14  A    between atoms: C_24  and  O_25
REMARK   15  A    between atoms: C_27  and  C_28
REMARK   16  A    between atoms: C_28  and  C_29
REMARK   17  A    between atoms: C_29  and  O_30
REMARK                            x       y       z     vdW  Elec       q    Type
REMARK                         _______ _______ _______ _____ _____    ______ ____
ROOT
ATOM      1  C   UNL     1       5.828   3.245  24.123  0.00  0.00    +0.065 C 
ATOM      2  C   UNL     1       6.561   1.940  24.193  0.00  0.00    +0.037 C 
ATOM      3  C   UNL     1       8.020   1.838  24.377  0.00  0.00    -0.015 C 
ATOM      4  C   UNL     1       8.218   0.508  24.426  0.00  0.00    -0.039 C 
ATOM      5  C   UNL     1       6.903  -0.231  24.344  0.00  0.00    +0.138 C 
ATOM      6  N   UNL     1       5.887   0.827  24.131  0.00  0.00    -0.280 NA
ENDROOT
BRANCH   5   7
ATOM      7  C   UNL     1       6.534  -0.906  25.667  0.00  0.00    +0.086 C 
BRANCH   7   8
ATOM      8  C   UNL     1       5.745  -2.158  25.433  0.00  0.00    +0.042 C 
ATOM      9  C   UNL     1       6.371  -3.482  25.266  0.00  0.00    -0.015 C 
ATOM     10  C   UNL     1       5.303  -4.248  24.996  0.00  0.00    -0.043 C 
ATOM     11  C   UNL     1       4.036  -3.448  25.003  0.00  0.00    +0.173 C 
ATOM     12  N   UNL     1       4.450  -2.078  25.315  0.00  0.00    -0.284 NA
BRANCH  10  13
ATOM     13  C   UNL     1       5.267  -5.715  24.664  0.00  0.00    +0.044 C 
BRANCH  13  14
ATOM     14  C   UNL     1       4.762  -5.997  23.241  0.00  0.00    +0.125 C 
BRANCH  14  15
ATOM     15  C   UNL     1       5.815  -5.729  22.197  0.00  0.00    +0.305 C 
ATOM     16  O   UNL     1       6.746  -6.470  21.928  0.00  0.00    -0.251 OA
BRANCH  15  17
ATOM     17  O   UNL     1       5.604  -4.565  21.543  0.00  0.00    -0.481 OA
ATOM     18  H   UNL     1       5.657  -4.632  20.572  0.00  0.00    +0.295 HD
ENDBRANCH  15  17
ENDBRANCH  14  15
ENDBRANCH  13  14
ENDBRANCH  10  13
BRANCH   9  19
ATOM     19  C   UNL     1       7.836  -3.749  25.282  0.00  0.00    +0.157 C 
BRANCH  19  20
ATOM     20  C   UNL     1       8.610  -3.574  23.992  0.00  0.00    +0.309 C 
ATOM     21  O   UNL     1       8.059  -3.314  22.928  0.00  0.00    -0.251 OA
BRANCH  20  22
ATOM     22  O   UNL     1       9.952  -3.590  24.110  0.00  0.00    -0.480 OA
ATOM     23  H   UNL     1      10.285  -3.541  25.030  0.00  0.00    +0.295 HD
ENDBRANCH  20  22
ENDBRANCH  19  20
ENDBRANCH   9  19
ENDBRANCH   7   8
ENDBRANCH   5   7
BRANCH   4  24
ATOM     24  C   UNL     1       9.554  -0.195  24.586  0.00  0.00    +0.044 C 
BRANCH  24  25
ATOM     25  C   UNL     1      10.536  -0.030  23.418  0.00  0.00    +0.125 C 
BRANCH  25  26
ATOM     26  C   UNL     1       9.969  -0.381  22.065  0.00  0.00    +0.305 C 
ATOM     27  O   UNL     1       9.372   0.382  21.332  0.00  0.00    -0.251 OA
BRANCH  26  28
ATOM     28  O   UNL     1      10.254  -1.661  21.721  0.00  0.00    -0.481 OA
ATOM     29  H   UNL     1       9.527  -2.122  21.248  0.00  0.00    +0.295 HD
ENDBRANCH  26  28
ENDBRANCH  25  26
ENDBRANCH  24  25
ENDBRANCH   4  24
BRANCH   3  30
ATOM     30  C   UNL     1       8.952   2.967  24.646  0.00  0.00    +0.157 C 
BRANCH  30  31
ATOM     31  C   UNL     1       9.817   3.418  23.486  0.00  0.00    +0.309 C 
ATOM     32  O   UNL     1      10.929   3.908  23.568  0.00  0.00    -0.251 OA
BRANCH  31  33
ATOM     33  O   UNL     1       9.217   3.194  22.286  0.00  0.00    -0.480 OA
ATOM     34  H   UNL     1       9.363   2.300  21.914  0.00  0.00    +0.295 HD
ENDBRANCH  31  33
ENDBRANCH  30  31
ENDBRANCH   3  30
TORSDOF 16
ENDMDL
MODEL 5
REMARK VINA RESULT:      -6.1      1.984      2.725
REMARK  Name = 
REMARK  17 active torsions:
REMARK  status: ('A' for Active; 'I' for Inactive)
REMARK    1  A    between atoms: C_1  and  C_2
REMARK    2  A    between atoms: C_4  and  C_6
REMARK    3  A    between atoms: C_6  and  C_7
REMARK    4  A    between atoms: C_10  and  C_11
REMARK    5  A    between atoms: C_11  and  C_12
REMARK    6  A    between atoms: C_12  and  C_13
REMARK    7  A    between atoms: C_13  and  O_14
REMARK    8  A    between atoms: C_16  and  C_17
REMARK    9  A    between atoms: C_17  and  C_18
REMARK   10  A    between atoms: C_18  and  O_19
REMARK   11  A    between atoms: C_21  and  C_22
REMARK   12  A    between atoms: C_22  and  C_23
REMARK   13  A    between atoms: C_23  and  C_24
REMARK   14  A    between atoms: C_24  and  O_25
REMARK   15  A    between atoms: C_27  and  C_28
REMARK   16  A    between atoms: C_28  and  C_29
REMARK   17  A    between atoms: C_29  and  O_30
REMARK                            x       y       z     vdW  Elec       q    Type
REMARK                         _______ _______ _______ _____ _____    ______ ____
ROOT
ATOM      1  C   UNL     1       9.377  -4.475  26.372  0.00  0.00    +0.065 C 
ATOM      2  C   UNL     1       8.358  -4.588  25.279  0.00  0.00    +0.037 C 
ATOM      3  C   UNL     1       6.922  -4.817  25.530  0.00  0.00    -0.015 C 
ATOM      4  C   UNL     1       6.402  -4.801  24.289  0.00  0.00    -0.039 C 
ATOM      5  C   UNL     1       7.471  -4.499  23.265  0.00  0.00    +0.138 C 
ATOM      6  N   UNL     1       8.733  -4.440  24.041  0.00  0.00    -0.280 NA
ENDROOT
BRANCH   5   7
ATOM      7  C   UNL     1       7.298  -3.114  22.638  0.00  0.00    +0.086 C 
BRANCH   7   8
ATOM      8  C   UNL     1       8.485  -2.243  22.918  0.00  0.00    +0.042 C 
ATOM      9  C   UNL     1       8.545  -1.310  24.057  0.00  0.00    -0.015 C 
ATOM     10  C   UNL     1       9.723  -0.706  23.843  0.00  0.00    -0.043 C 
ATOM     11  C   UNL     1      10.403  -1.242  22.620  0.00  0.00    +0.173 C 
ATOM     12  N   UNL     1       9.494  -2.264  22.094  0.00  0.00    -0.284 NA
BRANCH  10  13
ATOM     13  C   UNL     1      10.356   0.409  24.630  0.00  0.00    +0.044 C 
BRANCH  13  14
ATOM     14  C   UNL     1      10.650   1.655  23.780  0.00  0.00    +0.125 C 
BRANCH  14  15
ATOM     15  C   UNL     1       9.447   2.105  22.991  0.00  0.00    +0.305 C 
ATOM     16  O   UNL     1       8.356   2.376  23.462  0.00  0.00    -0.251 OA
BRANCH  15  17
ATOM     17  O   UNL     1       9.713   2.214  21.669  0.00  0.00    -0.481 OA
ATOM     18  H   UNL     1       8.935   2.412  21.116  0.00  0.00    +0.295 HD
ENDBRANCH  15  17
ENDBRANCH  14  15
ENDBRANCH  13  14
ENDBRANCH  10  13
BRANCH   9  19
ATOM     19  C   UNL     1       7.453  -1.089  25.046  0.00  0.00    +0.157 C 
BRANCH  19  20
ATOM     20  C   UNL     1       6.100  -0.642  24.532  0.00  0.00    +0.309 C 
ATOM     21  O   UNL     1       5.050  -1.115  24.953  0.00  0.00    -0.251 OA
BRANCH  20  22
ATOM     22  O   UNL     1       6.116   0.401  23.678  0.00  0.00    -0.480 OA
ATOM     23  H   UNL     1       6.605   0.242  22.844  0.00  0.00    +0.295 HD
ENDBRANCH  20  22
ENDBRANCH  19  20
ENDBRANCH   9  19
ENDBRANCH   7   8
ENDBRANCH   5   7
BRANCH   4  24
ATOM     24  C   UNL     1       4.942  -5.007  23.926  0.00  0.00    +0.044 C 
BRANCH  24  25
ATOM     25  C   UNL     1       4.540  -6.448  23.585  0.00  0.00    +0.125 C 
BRANCH  25  26
ATOM     26  C   UNL     1       3.567  -7.076  24.550  0.00  0.00    +0.305 C 
ATOM     27  O   UNL     1       3.177  -8.226  24.509  0.00  0.00    -0.251 OA
BRANCH  26  28
ATOM     28  O   UNL     1       3.205  -6.211  25.529  0.00  0.00    -0.481 OA
ATOM     29  H   UNL     1       2.331  -5.787  25.390  0.00  0.00    +0.295 HD
ENDBRANCH  26  28
ENDBRANCH  25  26
ENDBRANCH  24  25
ENDBRANCH   4  24
BRANCH   3  30
ATOM     30  C   UNL     1       6.256  -4.838  26.861  0.00  0.00    +0.157 C 
BRANCH  30  31
ATOM     31  C   UNL     1       6.200  -6.180  27.564  0.00  0.00    +0.309 C 
ATOM     32  O   UNL     1       5.318  -7.013  27.452  0.00  0.00    -0.251 OA
BRANCH  31  33
ATOM     33  O   UNL     1       7.289  -6.388  28.352  0.00  0.00    -0.480 OA
ATOM     34  H   UNL     1       8.051  -5.803  28.164  0.00  0.00    +0.295 HD
ENDBRANCH  31  33
ENDBRANCH  30  31
ENDBRANCH   3  30
TORSDOF 16
ENDMDL
MODEL 6
REMARK VINA RESULT:      -6.0      2.247      3.923
REMARK  Name = 
REMARK  17 active torsions:
REMARK  status: ('A' for Active; 'I' for Inactive)
REMARK    1  A    between atoms: C_1  and  C_2
REMARK    2  A    between atoms: C_4  and  C_6
REMARK    3  A    between atoms: C_6  and  C_7
REMARK    4  A    between atoms: C_10  and  C_11
REMARK    5  A    between atoms: C_11  and  C_12
REMARK    6  A    between atoms: C_12  and  C_13
REMARK    7  A    between atoms: C_13  and  O_14
REMARK    8  A    between atoms: C_16  and  C_17
REMARK    9  A    between atoms: C_17  and  C_18
REMARK   10  A    between atoms: C_18  and  O_19
REMARK   11  A    between atoms: C_21  and  C_22
REMARK   12  A    between atoms: C_22  and  C_23
REMARK   13  A    between atoms: C_23  and  C_24
REMARK   14  A    between atoms: C_24  and  O_25
REMARK   15  A    between atoms: C_27  and  C_28
REMARK   16  A    between atoms: C_28  and  C_29
REMARK   17  A    between atoms: C_29  and  O_30
REMARK                            x       y       z     vdW  Elec       q    Type
REMARK                         _______ _______ _______ _____ _____    ______ ____
ROOT
ATOM      1  C   UNL     1       6.351  -5.779  22.078  0.00  0.00    +0.065 C 
ATOM      2  C   UNL     1       6.111  -4.992  23.331  0.00  0.00    +0.037 C 
ATOM      3  C   UNL     1       5.266  -5.471  24.440  0.00  0.00    -0.015 C 
ATOM      4  C   UNL     1       5.379  -4.481  25.344  0.00  0.00    -0.039 C 
ATOM      5  C   UNL     1       6.334  -3.417  24.855  0.00  0.00    +0.138 C 
ATOM      6  N   UNL     1       6.703  -3.841  23.484  0.00  0.00    -0.280 NA
ENDROOT
BRANCH   5   7
ATOM      7  C   UNL     1       7.639  -3.397  25.654  0.00  0.00    +0.086 C 
BRANCH   7   8
ATOM      8  C   UNL     1       8.201  -2.010  25.735  0.00  0.00    +0.042 C 
ATOM      9  C   UNL     1       9.214  -1.499  24.794  0.00  0.00    -0.015 C 
ATOM     10  C   UNL     1       9.465  -0.286  25.309  0.00  0.00    -0.043 C 
ATOM     11  C   UNL     1       8.633  -0.022  26.527  0.00  0.00    +0.173 C 
ATOM     12  N   UNL     1       7.825  -1.230  26.708  0.00  0.00    -0.284 NA
BRANCH  10  13
ATOM     13  C   UNL     1      10.464   0.738  24.842  0.00  0.00    +0.044 C 
BRANCH  13  14
ATOM     14  C   UNL     1       9.807   1.971  24.204  0.00  0.00    +0.125 C 
BRANCH  14  15
ATOM     15  C   UNL     1       9.305   1.696  22.809  0.00  0.00    +0.305 C 
ATOM     16  O   UNL     1       8.217   1.218  22.533  0.00  0.00    -0.251 OA
BRANCH  15  17
ATOM     17  O   UNL     1      10.193   2.071  21.862  0.00  0.00    -0.481 OA
ATOM     18  H   UNL     1      10.464   3.007  21.911  0.00  0.00    +0.295 HD
ENDBRANCH  15  17
ENDBRANCH  14  15
ENDBRANCH  13  14
ENDBRANCH  10  13
BRANCH   9  19
ATOM     19  C   UNL     1       9.822  -2.276  23.679  0.00  0.00    +0.157 C 
BRANCH  19  20
ATOM     20  C   UNL     1       9.543  -1.829  22.259  0.00  0.00    +0.309 C 
ATOM     21  O   UNL     1      10.439  -1.517  21.482  0.00  0.00    -0.251 OA
BRANCH  20  22
ATOM     22  O   UNL     1       8.259  -1.923  21.860  0.00  0.00    -0.480 OA
ATOM     23  H   UNL     1       7.909  -1.127  21.409  0.00  0.00    +0.295 HD
ENDBRANCH  20  22
ENDBRANCH  19  20
ENDBRANCH   9  19
ENDBRANCH   7   8
ENDBRANCH   5   7
BRANCH   4  24
ATOM     24  C   UNL     1       4.697  -4.421  26.700  0.00  0.00    +0.044 C 
BRANCH  24  25
ATOM     25  C   UNL     1       5.601  -4.695  27.910  0.00  0.00    +0.125 C 
BRANCH  25  26
ATOM     26  C   UNL     1       6.216  -6.071  27.937  0.00  0.00    +0.305 C 
ATOM     27  O   UNL     1       5.599  -7.118  27.974  0.00  0.00    -0.251 OA
BRANCH  26  28
ATOM     28  O   UNL     1       7.568  -6.017  27.860  0.00  0.00    -0.481 OA
ATOM     29  H   UNL     1       7.953  -6.562  27.140  0.00  0.00    +0.295 HD
ENDBRANCH  26  28
ENDBRANCH  25  26
ENDBRANCH  24  25
ENDBRANCH   4  24
BRANCH   3  30
ATOM     30  C   UNL     1       4.644  -6.819  24.551  0.00  0.00    +0.157 C 
BRANCH  30  31
ATOM     31  C   UNL     1       3.297  -6.996  23.878  0.00  0.00    +0.309 C 
ATOM     32  O   UNL     1       2.680  -6.140  23.271  0.00  0.00    -0.251 OA
BRANCH  31  33
ATOM     33  O   UNL     1       2.829  -8.267  24.003  0.00  0.00    -0.480 OA
ATOM     34  H   UNL     1       2.096  -8.496  23.396  0.00  0.00    +0.295 HD
ENDBRANCH  31  33
ENDBRANCH  30  31
ENDBRANCH   3  30
TORSDOF 16
ENDMDL
MODEL 7
REMARK VINA RESULT:      -5.9      1.944      3.105
REMARK  Name = 
REMARK  17 active torsions:
REMARK  status: ('A' for Active; 'I' for Inactive)
REMARK    1  A    between atoms: C_1  and  C_2
REMARK    2  A    between atoms: C_4  and  C_6
REMARK    3  A    between atoms: C_6  and  C_7
REMARK    4  A    between atoms: C_10  and  C_11
REMARK    5  A    between atoms: C_11  and  C_12
REMARK    6  A    between atoms: C_12  and  C_13
REMARK    7  A    between atoms: C_13  and  O_14
REMARK    8  A    between atoms: C_16  and  C_17
REMARK    9  A    between atoms: C_17  and  C_18
REMARK   10  A    between atoms: C_18  and  O_19
REMARK   11  A    between atoms: C_21  and  C_22
REMARK   12  A    between atoms: C_22  and  C_23
REMARK   13  A    between atoms: C_23  and  C_24
REMARK   14  A    between atoms: C_24  and  O_25
REMARK   15  A    between atoms: C_27  and  C_28
REMARK   16  A    between atoms: C_28  and  C_29
REMARK   17  A    between atoms: C_29  and  O_30
REMARK                            x       y       z     vdW  Elec       q    Type
REMARK                         _______ _______ _______ _____ _____    ______ ____
ROOT
ATOM      1  C   UNL     1       6.297  -6.186  21.957  0.00  0.00    +0.065 C 
ATOM      2  C   UNL     1       6.555  -5.124  22.984  0.00  0.00    +0.037 C 
ATOM      3  C   UNL     1       6.075  -5.208  24.376  0.00  0.00    -0.015 C 
ATOM      4  C   UNL     1       6.572  -4.084  24.925  0.00  0.00    -0.039 C 
ATOM      5  C   UNL     1       7.413  -3.327  23.925  0.00  0.00    +0.138 C 
ATOM      6  N   UNL     1       7.273  -4.086  22.660  0.00  0.00    -0.280 NA
ENDROOT
BRANCH   5   7
ATOM      7  C   UNL     1       8.903  -3.364  24.274  0.00  0.00    +0.086 C 
BRANCH   7   8
ATOM      8  C   UNL     1       9.599  -2.124  23.802  0.00  0.00    +0.042 C 
ATOM      9  C   UNL     1       9.693  -0.898  24.614  0.00  0.00    -0.015 C 
ATOM     10  C   UNL     1      10.303  -0.061  23.761  0.00  0.00    -0.043 C 
ATOM     11  C   UNL     1      10.602  -0.729  22.454  0.00  0.00    +0.173 C 
ATOM     12  N   UNL     1      10.100  -2.098  22.600  0.00  0.00    -0.284 NA
BRANCH  10  13
ATOM     13  C   UNL     1      10.645   1.390  23.962  0.00  0.00    +0.044 C 
BRANCH  13  14
ATOM     14  C   UNL     1      10.246   2.273  22.769  0.00  0.00    +0.125 C 
BRANCH  14  15
ATOM     15  C   UNL     1       8.766   2.223  22.490  0.00  0.00    +0.305 C 
ATOM     16  O   UNL     1       7.887   2.482  23.295  0.00  0.00    -0.251 OA
BRANCH  15  17
ATOM     17  O   UNL     1       8.497   1.882  21.209  0.00  0.00    -0.481 OA
ATOM     18  H   UNL     1       8.390   2.639  20.604  0.00  0.00    +0.295 HD
ENDBRANCH  15  17
ENDBRANCH  14  15
ENDBRANCH  13  14
ENDBRANCH  10  13
BRANCH   9  19
ATOM     19  C   UNL     1       9.104  -0.717  25.970  0.00  0.00    +0.157 C 
BRANCH  19  20
ATOM     20  C   UNL     1       7.698  -0.162  26.072  0.00  0.00    +0.309 C 
ATOM     21  O   UNL     1       7.186   0.132  27.146  0.00  0.00    -0.251 OA
BRANCH  20  22
ATOM     22  O   UNL     1       7.093   0.113  24.899  0.00  0.00    -0.480 OA
ATOM     23  H   UNL     1       7.429   0.911  24.440  0.00  0.00    +0.295 HD
ENDBRANCH  20  22
ENDBRANCH  19  20
ENDBRANCH   9  19
ENDBRANCH   7   8
ENDBRANCH   5   7
BRANCH   4  24
ATOM     24  C   UNL     1       6.377  -3.626  26.360  0.00  0.00    +0.044 C 
BRANCH  24  25
ATOM     25  C   UNL     1       4.937  -3.269  26.753  0.00  0.00    +0.125 C 
BRANCH  25  26
ATOM     26  C   UNL     1       4.231  -2.348  25.791  0.00  0.00    +0.305 C 
ATOM     27  O   UNL     1       4.530  -1.190  25.577  0.00  0.00    -0.251 OA
BRANCH  26  28
ATOM     28  O   UNL     1       3.234  -2.985  25.130  0.00  0.00    -0.481 OA
ATOM     29  H   UNL     1       2.664  -2.393  24.592  0.00  0.00    +0.295 HD
ENDBRANCH  26  28
ENDBRANCH  25  26
ENDBRANCH  24  25
ENDBRANCH   4  24
BRANCH   3  30
ATOM     30  C   UNL     1       5.396  -6.375  25.001  0.00  0.00    +0.157 C 
BRANCH  30  31
ATOM     31  C   UNL     1       3.949  -6.602  24.609  0.00  0.00    +0.309 C 
ATOM     32  O   UNL     1       3.043  -5.794  24.710  0.00  0.00    -0.251 OA
BRANCH  31  33
ATOM     33  O   UNL     1       3.750  -7.843  24.091  0.00  0.00    -0.480 OA
ATOM     34  H   UNL     1       4.527  -8.438  24.139  0.00  0.00    +0.295 HD
ENDBRANCH  31  33
ENDBRANCH  30  31
ENDBRANCH   3  30
TORSDOF 16
ENDMDL
MODEL 8
REMARK VINA RESULT:      -5.9      2.474      7.582
REMARK  Name = 
REMARK  17 active torsions:
REMARK  status: ('A' for Active; 'I' for Inactive)
REMARK    1  A    between atoms: C_1  and  C_2
REMARK    2  A    between atoms: C_4  and  C_6
REMARK    3  A    between atoms: C_6  and  C_7
REMARK    4  A    between atoms: C_10  and  C_11
REMARK    5  A    between atoms: C_11  and  C_12
REMARK    6  A    between atoms: C_12  and  C_13
REMARK    7  A    between atoms: C_13  and  O_14
REMARK    8  A    between atoms: C_16  and  C_17
REMARK    9  A    between atoms: C_17  and  C_18
REMARK   10  A    between atoms: C_18  and  O_19
REMARK   11  A    between atoms: C_21  and  C_22
REMARK   12  A    between atoms: C_22  and  C_23
REMARK   13  A    between atoms: C_23  and  C_24
REMARK   14  A    between atoms: C_24  and  O_25
REMARK   15  A    between atoms: C_27  and  C_28
REMARK   16  A    between atoms: C_28  and  C_29
REMARK   17  A    between atoms: C_29  and  O_30
REMARK                            x       y       z     vdW  Elec       q    Type
REMARK                         _______ _______ _______ _____ _____    ______ ____
ROOT
ATOM      1  C   UNL     1       7.190   2.717  24.948  0.00  0.00    +0.065 C 
ATOM      2  C   UNL     1       7.562   1.266  24.889  0.00  0.00    +0.037 C 
ATOM      3  C   UNL     1       8.909   0.788  24.526  0.00  0.00    -0.015 C 
ATOM      4  C   UNL     1       8.791  -0.546  24.651  0.00  0.00    -0.039 C 
ATOM      5  C   UNL     1       7.414  -0.917  25.150  0.00  0.00    +0.138 C 
ATOM      6  N   UNL     1       6.675   0.367  25.211  0.00  0.00    -0.280 NA
ENDROOT
BRANCH   5   7
ATOM      7  C   UNL     1       7.442  -1.453  26.583  0.00  0.00    +0.086 C 
BRANCH   7   8
ATOM      8  C   UNL     1       6.505  -2.610  26.745  0.00  0.00    +0.042 C 
ATOM      9  C   UNL     1       6.938  -4.015  26.632  0.00  0.00    -0.015 C 
ATOM     10  C   UNL     1       5.769  -4.663  26.755  0.00  0.00    -0.043 C 
ATOM     11  C   UNL     1       4.630  -3.710  26.954  0.00  0.00    +0.173 C 
ATOM     12  N   UNL     1       5.238  -2.377  26.941  0.00  0.00    -0.284 NA
BRANCH  10  13
ATOM     13  C   UNL     1       5.509  -6.142  26.670  0.00  0.00    +0.044 C 
BRANCH  13  14
ATOM     14  C   UNL     1       4.223  -6.484  25.903  0.00  0.00    +0.125 C 
BRANCH  14  15
ATOM     15  C   UNL     1       4.392  -6.348  24.412  0.00  0.00    +0.305 C 
ATOM     16  O   UNL     1       4.328  -5.303  23.787  0.00  0.00    -0.251 OA
BRANCH  15  17
ATOM     17  O   UNL     1       4.662  -7.532  23.817  0.00  0.00    -0.481 OA
ATOM     18  H   UNL     1       4.325  -8.311  24.297  0.00  0.00    +0.295 HD
ENDBRANCH  15  17
ENDBRANCH  14  15
ENDBRANCH  13  14
ENDBRANCH  10  13
BRANCH   9  19
ATOM     19  C   UNL     1       8.323  -4.466  26.325  0.00  0.00    +0.157 C 
BRANCH  19  20
ATOM     20  C   UNL     1       8.596  -5.063  24.960  0.00  0.00    +0.309 C 
ATOM     21  O   UNL     1       7.813  -4.943  24.024  0.00  0.00    -0.251 OA
BRANCH  20  22
ATOM     22  O   UNL     1       9.812  -5.622  24.800  0.00  0.00    -0.480 OA
ATOM     23  H   UNL     1      10.299  -5.328  24.002  0.00  0.00    +0.295 HD
ENDBRANCH  20  22
ENDBRANCH  19  20
ENDBRANCH   9  19
ENDBRANCH   7   8
ENDBRANCH   5   7
BRANCH   4  24
ATOM     24  C   UNL     1       9.878  -1.573  24.381  0.00  0.00    +0.044 C 
BRANCH  24  25
ATOM     25  C   UNL     1      10.321  -1.702  22.918  0.00  0.00    +0.125 C 
BRANCH  25  26
ATOM     26  C   UNL     1       9.196  -1.662  21.914  0.00  0.00    +0.305 C 
ATOM     27  O   UNL     1       8.179  -2.324  21.970  0.00  0.00    -0.251 OA
BRANCH  26  28
ATOM     28  O   UNL     1       9.424  -0.743  20.944  0.00  0.00    -0.481 OA
ATOM     29  H   UNL     1       9.770   0.114  21.274  0.00  0.00    +0.295 HD
ENDBRANCH  26  28
ENDBRANCH  25  26
ENDBRANCH  24  25
ENDBRANCH   4  24
BRANCH   3  30
ATOM     30  C   UNL     1      10.110   1.638  24.298  0.00  0.00    +0.157 C 
BRANCH  30  31
ATOM     31  C   UNL     1      10.209   2.313  22.944  0.00  0.00    +0.309 C 
ATOM     32  O   UNL     1      10.148   1.760  21.860  0.00  0.00    -0.251 OA
BRANCH  31  33
ATOM     33  O   UNL     1      10.358   3.660  23.056  0.00  0.00    -0.480 OA
ATOM     34  H   UNL     1      11.073   4.042  22.505  0.00  0.00    +0.295 HD
ENDBRANCH  31  33
ENDBRANCH  30  31
ENDBRANCH   3  30
TORSDOF 16
ENDMDL
MODEL 9
REMARK VINA RESULT:      -5.8      2.717      5.016
REMARK  Name = 
REMARK  17 active torsions:
REMARK  status: ('A' for Active; 'I' for Inactive)
REMARK    1  A    between atoms: C_1  and  C_2
REMARK    2  A    between atoms: C_4  and  C_6
REMARK    3  A    between atoms: C_6  and  C_7
REMARK    4  A    between atoms: C_10  and  C_11
REMARK    5  A    between atoms: C_11  and  C_12
REMARK    6  A    between atoms: C_12  and  C_13
REMARK    7  A    between atoms: C_13  and  O_14
REMARK    8  A    between atoms: C_16  and  C_17
REMARK    9  A    between atoms: C_17  and  C_18
REMARK   10  A    between atoms: C_18  and  O_19
REMARK   11  A    between atoms: C_21  and  C_22
REMARK   12  A    between atoms: C_22  and  C_23
REMARK   13  A    between atoms: C_23  and  C_24
REMARK   14  A    between atoms: C_24  and  O_25
REMARK   15  A    between atoms: C_27  and  C_28
REMARK   16  A    between atoms: C_28  and  C_29
REMARK   17  A    between atoms: C_29  and  O_30
REMARK                            x       y       z     vdW  Elec       q    Type
REMARK                         _______ _______ _______ _____ _____    ______ ____
ROOT
ATOM      1  C   UNL     1       1.077  -5.173  23.083  0.00  0.00    +0.065 C 
ATOM      2  C   UNL     1       2.385  -5.251  23.811  0.00  0.00    +0.037 C 
ATOM      3  C   UNL     1       2.674  -6.254  24.853  0.00  0.00    -0.015 C 
ATOM      4  C   UNL     1       3.950  -5.977  25.180  0.00  0.00    -0.039 C 
ATOM      5  C   UNL     1       4.494  -4.862  24.318  0.00  0.00    +0.138 C 
ATOM      6  N   UNL     1       3.341  -4.425  23.493  0.00  0.00    -0.280 NA
ENDROOT
BRANCH   5   7
ATOM      7  C   UNL     1       5.552  -5.357  23.330  0.00  0.00    +0.086 C 
BRANCH   7   8
ATOM      8  C   UNL     1       6.632  -4.337  23.140  0.00  0.00    +0.042 C 
ATOM      9  C   UNL     1       7.870  -4.319  23.940  0.00  0.00    -0.015 C 
ATOM     10  C   UNL     1       8.464  -3.205  23.485  0.00  0.00    -0.043 C 
ATOM     11  C   UNL     1       7.645  -2.540  22.421  0.00  0.00    +0.173 C 
ATOM     12  N   UNL     1       6.458  -3.385  22.268  0.00  0.00    -0.284 NA
BRANCH  10  13
ATOM     13  C   UNL     1       9.754  -2.583  23.943  0.00  0.00    +0.044 C 
BRANCH  13  14
ATOM     14  C   UNL     1       9.631  -1.077  24.220  0.00  0.00    +0.125 C 
BRANCH  14  15
ATOM     15  C   UNL     1       8.663  -0.777  25.336  0.00  0.00    +0.305 C 
ATOM     16  O   UNL     1       7.694  -0.041  25.250  0.00  0.00    -0.251 OA
BRANCH  15  17
ATOM     17  O   UNL     1       8.962  -1.452  26.469  0.00  0.00    -0.481 OA
ATOM     18  H   UNL     1       8.723  -0.985  27.291  0.00  0.00    +0.295 HD
ENDBRANCH  15  17
ENDBRANCH  14  15
ENDBRANCH  13  14
ENDBRANCH  10  13
BRANCH   9  19
ATOM     19  C   UNL     1       8.198  -5.271  25.037  0.00  0.00    +0.157 C 
BRANCH  19  20
ATOM     20  C   UNL     1       7.891  -4.857  26.462  0.00  0.00    +0.309 C 
ATOM     21  O   UNL     1       7.333  -3.799  26.730  0.00  0.00    -0.251 OA
BRANCH  20  22
ATOM     22  O   UNL     1       8.150  -5.783  27.406  0.00  0.00    -0.480 OA
ATOM     23  H   UNL     1       8.982  -6.283  27.276  0.00  0.00    +0.295 HD
ENDBRANCH  20  22
ENDBRANCH  19  20
ENDBRANCH   9  19
ENDBRANCH   7   8
ENDBRANCH   5   7
BRANCH   4  24
ATOM     24  C   UNL     1       4.781  -6.690  26.233  0.00  0.00    +0.044 C 
BRANCH  24  25
ATOM     25  C   UNL     1       4.729  -6.085  27.642  0.00  0.00    +0.125 C 
BRANCH  25  26
ATOM     26  C   UNL     1       5.114  -7.033  28.749  0.00  0.00    +0.305 C 
ATOM     27  O   UNL     1       6.248  -7.249  29.129  0.00  0.00    -0.251 OA
BRANCH  26  28
ATOM     28  O   UNL     1       4.025  -7.594  29.329  0.00  0.00    -0.481 OA
ATOM     29  H   UNL     1       3.305  -6.958  29.533  0.00  0.00    +0.295 HD
ENDBRANCH  26  28
ENDBRANCH  25  26
ENDBRANCH  24  25
ENDBRANCH   4  24
BRANCH   3  30
ATOM     30  C   UNL     1       1.798  -7.392  25.243  0.00  0.00    +0.157 C 
BRANCH  30  31
ATOM     31  C   UNL     1       2.048  -8.708  24.534  0.00  0.00    +0.309 C 
ATOM     32  O   UNL     1       2.072  -9.810  25.053  0.00  0.00    -0.251 OA
BRANCH  31  33
ATOM     33  O   UNL     1       2.230  -8.539  23.197  0.00  0.00    -0.480 OA
ATOM     34  H   UNL     1       3.114  -8.204  22.941  0.00  0.00    +0.295 HD
ENDBRANCH  31  33
ENDBRANCH  30  31
ENDBRANCH   3  30
TORSDOF 16
ENDMDL
