MODEL 1
REMARK VINA RESULT:      -5.7      0.000      0.000
REMARK  Name = 
REMARK  3 active torsions:
REMARK  status: ('A' for Active; 'I' for Inactive)
REMARK    1  A    between atoms: CA_2  and  C_3
REMARK    2  A    between atoms: C_3  and  O_4
REMARK    3  A    between atoms: C_9  and  N_14
REMARK                            x       y       z     vdW  Elec       q    Type
REMARK                         _______ _______ _______ _____ _____    ______ ____
ROOT
ATOM      1  CA  UNL     1      10.298   0.711  23.509  0.00  0.00    +0.084 C 
ATOM      2  N   UNL     1      10.001  -0.147  22.336  0.00  0.00    -0.307 NA
ATOM      3  H   UNL     1       9.016  -0.036  22.090  0.00  0.00    +0.123 HD
ATOM      4  C   UNL     1      10.218  -1.558  22.694  0.00  0.00    +0.117 C 
ATOM      5  C   UNL     1       9.556  -1.975  23.990  0.00  0.00    -0.024 A 
ATOM      6  C   UNL     1       9.142  -1.017  24.938  0.00  0.00    -0.041 A 
ATOM      7  C   UNL     1       8.557  -1.426  26.146  0.00  0.00    +0.010 A 
ATOM      8  C   UNL     1       8.413  -2.783  26.439  0.00  0.00    +0.084 A 
ATOM      9  C   UNL     1       8.851  -3.736  25.513  0.00  0.00    +0.273 A 
ATOM     10  C   UNL     1       9.419  -3.340  24.292  0.00  0.00    +0.089 A 
ATOM     11  C   UNL     1       9.289   0.455  24.639  0.00  0.00    +0.056 C 
ENDROOT
BRANCH   9  12
ATOM     12  N   UNL     1       8.723  -5.165  25.829  0.00  0.00    +0.080 N 
ATOM     13  O   UNL     1       7.962  -5.485  26.752  0.00  0.00    +0.041 OA
ATOM     14  O   UNL     1       9.384  -5.966  25.153  0.00  0.00    -0.576 OA
ENDBRANCH   9  12
BRANCH   1  15
ATOM     15  C   UNL     1      10.275   2.191  23.091  0.00  0.00    +0.174 C 
BRANCH  15  16
ATOM     16  O   UNL     1      10.212   2.292  21.670  0.00  0.00    -0.393 OA
ATOM     17  H   UNL     1      11.035   1.870  21.350  0.00  0.00    +0.209 HD
ENDBRANCH  15  16
ENDBRANCH   1  15
TORSDOF 3
ENDMDL
MODEL 2
REMARK VINA RESULT:      -5.7      1.211      2.006
REMARK  Name = 
REMARK  3 active torsions:
REMARK  status: ('A' for Active; 'I' for Inactive)
REMARK    1  A    between atoms: CA_2  and  C_3
REMARK    2  A    between atoms: C_3  and  O_4
REMARK    3  A    between atoms: C_9  and  N_14
REMARK                            x       y       z     vdW  Elec       q    Type
REMARK                         _______ _______ _______ _____ _____    ______ ____
ROOT
ATOM      1  CA  UNL     1       9.449   1.109  23.639  0.00  0.00    +0.084 C 
ATOM      2  N   UNL     1       9.281   1.388  25.085  0.00  0.00    -0.307 NA
ATOM      3  H   UNL     1      10.191   1.313  25.542  0.00  0.00    +0.123 HD
ATOM      4  C   UNL     1       8.396   0.372  25.680  0.00  0.00    +0.117 C 
ATOM      5  C   UNL     1       8.770  -1.053  25.331  0.00  0.00    -0.024 A 
ATOM      6  C   UNL     1       9.605  -1.338  24.232  0.00  0.00    -0.041 A 
ATOM      7  C   UNL     1       9.916  -2.667  23.908  0.00  0.00    +0.010 A 
ATOM      8  C   UNL     1       9.371  -3.721  24.644  0.00  0.00    +0.084 A 
ATOM      9  C   UNL     1       8.518  -3.441  25.716  0.00  0.00    +0.273 A 
ATOM     10  C   UNL     1       8.216  -2.115  26.064  0.00  0.00    +0.089 A 
ATOM     11  C   UNL     1      10.204  -0.212  23.424  0.00  0.00    +0.056 C 
ENDROOT
BRANCH   9  12
ATOM     12  N   UNL     1       7.924  -4.547  26.478  0.00  0.00    +0.080 N 
ATOM     13  O   UNL     1       7.176  -4.260  27.422  0.00  0.00    +0.041 OA
ATOM     14  O   UNL     1       8.206  -5.703  26.131  0.00  0.00    -0.576 OA
ENDBRANCH   9  12
BRANCH   1  15
ATOM     15  C   UNL     1      10.199   2.272  22.968  0.00  0.00    +0.174 C 
BRANCH  15  16
ATOM     16  O   UNL     1      10.132   2.140  21.550  0.00  0.00    -0.393 OA
ATOM     17  H   UNL     1      10.572   1.288  21.355  0.00  0.00    +0.209 HD
ENDBRANCH  15  16
ENDBRANCH   1  15
TORSDOF 3
ENDMDL
MODEL 3
REMARK VINA RESULT:      -5.5      4.741      7.374
REMARK  Name = 
REMARK  3 active torsions:
REMARK  status: ('A' for Active; 'I' for Inactive)
REMARK    1  A    between atoms: CA_2  and  C_3
REMARK    2  A    between atoms: C_3  and  O_4
REMARK    3  A    between atoms: C_9  and  N_14
REMARK                            x       y       z     vdW  Elec       q    Type
REMARK                         _______ _______ _______ _____ _____    ______ ____
ROOT
ATOM      1  CA  UNL     1       5.680  -5.974  27.906  0.00  0.00    +0.084 C 
ATOM      2  N   UNL     1       5.072  -7.139  27.218  0.00  0.00    -0.307 NA
ATOM      3  H   UNL     1       5.792  -7.850  27.079  0.00  0.00    +0.123 HD
ATOM      4  C   UNL     1       4.587  -6.726  25.891  0.00  0.00    +0.117 C 
ATOM      5  C   UNL     1       5.599  -5.945  25.079  0.00  0.00    -0.024 A 
ATOM      6  C   UNL     1       6.710  -5.334  25.694  0.00  0.00    -0.041 A 
ATOM      7  C   UNL     1       7.621  -4.591  24.928  0.00  0.00    +0.010 A 
ATOM      8  C   UNL     1       7.415  -4.416  23.559  0.00  0.00    +0.084 A 
ATOM      9  C   UNL     1       6.297  -4.996  22.952  0.00  0.00    +0.273 A 
ATOM     10  C   UNL     1       5.390  -5.759  23.703  0.00  0.00    +0.089 A 
ATOM     11  C   UNL     1       6.949  -5.512  27.174  0.00  0.00    +0.056 C 
ENDROOT
BRANCH   9  12
ATOM     12  N   UNL     1       6.065  -4.794  21.515  0.00  0.00    +0.080 N 
ATOM     13  O   UNL     1       6.288  -5.747  20.756  0.00  0.00    +0.041 OA
ATOM     14  O   UNL     1       5.660  -3.682  21.147  0.00  0.00    -0.576 OA
ENDBRANCH   9  12
BRANCH   1  15
ATOM     15  C   UNL     1       6.002  -6.341  29.364  0.00  0.00    +0.174 C 
BRANCH  15  16
ATOM     16  O   UNL     1       6.797  -7.525  29.402  0.00  0.00    -0.393 OA
ATOM     17  H   UNL     1       6.383  -8.128  28.752  0.00  0.00    +0.209 HD
ENDBRANCH  15  16
ENDBRANCH   1  15
TORSDOF 3
ENDMDL
MODEL 4
REMARK VINA RESULT:      -5.5      2.002      2.458
REMARK  Name = 
REMARK  3 active torsions:
REMARK  status: ('A' for Active; 'I' for Inactive)
REMARK    1  A    between atoms: CA_2  and  C_3
REMARK    2  A    between atoms: C_3  and  O_4
REMARK    3  A    between atoms: C_9  and  N_14
REMARK                            x       y       z     vdW  Elec       q    Type
REMARK                         _______ _______ _______ _____ _____    ______ ____
ROOT
ATOM      1  CA  UNL     1      10.613   2.257  23.037  0.00  0.00    +0.084 C 
ATOM      2  N   UNL     1       9.604   2.180  21.953  0.00  0.00    -0.307 NA
ATOM      3  H   UNL     1       8.707   2.506  22.315  0.00  0.00    +0.123 HD
ATOM      4  C   UNL     1       9.438   0.777  21.538  0.00  0.00    +0.117 C 
ATOM      5  C   UNL     1       9.233  -0.186  22.688  0.00  0.00    -0.024 A 
ATOM      6  C   UNL     1       9.583   0.169  24.007  0.00  0.00    -0.041 A 
ATOM      7  C   UNL     1       9.412  -0.749  25.054  0.00  0.00    +0.010 A 
ATOM      8  C   UNL     1       8.931  -2.034  24.797  0.00  0.00    +0.084 A 
ATOM      9  C   UNL     1       8.613  -2.398  23.485  0.00  0.00    +0.273 A 
ATOM     10  C   UNL     1       8.759  -1.483  22.432  0.00  0.00    +0.089 A 
ATOM     11  C   UNL     1      10.103   1.554  24.305  0.00  0.00    +0.056 C 
ENDROOT
BRANCH   9  12
ATOM     12  N   UNL     1       8.130  -3.758  23.207  0.00  0.00    +0.080 N 
ATOM     13  O   UNL     1       7.261  -3.893  22.335  0.00  0.00    +0.041 OA
ATOM     14  O   UNL     1       8.620  -4.689  23.862  0.00  0.00    -0.576 OA
ENDBRANCH   9  12
BRANCH   1  15
ATOM     15  C   UNL     1      10.945   3.730  23.335  0.00  0.00    +0.174 C 
BRANCH  15  16
ATOM     16  O   UNL     1       9.763   4.522  23.240  0.00  0.00    -0.393 OA
ATOM     17  H   UNL     1       9.025   3.883  23.303  0.00  0.00    +0.209 HD
ENDBRANCH  15  16
ENDBRANCH   1  15
TORSDOF 3
ENDMDL
MODEL 5
REMARK VINA RESULT:      -5.5      3.689      6.280
REMARK  Name = 
REMARK  3 active torsions:
REMARK  status: ('A' for Active; 'I' for Inactive)
REMARK    1  A    between atoms: CA_2  and  C_3
REMARK    2  A    between atoms: C_3  and  O_4
REMARK    3  A    between atoms: C_9  and  N_14
REMARK                            x       y       z     vdW  Elec       q    Type
REMARK                         _______ _______ _______ _____ _____    ______ ____
ROOT
ATOM      1  CA  UNL     1       4.630  -5.157  23.677  0.00  0.00    +0.084 C 
ATOM      2  N   UNL     1       4.727  -4.660  22.283  0.00  0.00    -0.307 NA
ATOM      3  H   UNL     1       5.205  -5.363  21.717  0.00  0.00    +0.123 HD
ATOM      4  C   UNL     1       5.540  -3.434  22.256  0.00  0.00    +0.117 C 
ATOM      5  C   UNL     1       6.854  -3.547  23.000  0.00  0.00    -0.024 A 
ATOM      6  C   UNL     1       7.067  -4.565  23.951  0.00  0.00    -0.041 A 
ATOM      7  C   UNL     1       8.281  -4.636  24.650  0.00  0.00    +0.010 A 
ATOM      8  C   UNL     1       9.274  -3.677  24.441  0.00  0.00    +0.084 A 
ATOM      9  C   UNL     1       9.052  -2.648  23.521  0.00  0.00    +0.273 A 
ATOM     10  C   UNL     1       7.851  -2.578  22.800  0.00  0.00    +0.089 A 
ATOM     11  C   UNL     1       6.005  -5.612  24.189  0.00  0.00    +0.056 C 
ENDROOT
BRANCH   9  12
ATOM     12  N   UNL     1      10.085  -1.623  23.317  0.00  0.00    +0.080 N 
ATOM     13  O   UNL     1      10.851  -1.761  22.353  0.00  0.00    +0.041 OA
ATOM     14  O   UNL     1      10.130  -0.681  24.121  0.00  0.00    -0.576 OA
ENDBRANCH   9  12
BRANCH   1  15
ATOM     15  C   UNL     1       3.619  -6.315  23.748  0.00  0.00    +0.174 C 
BRANCH  15  16
ATOM     16  O   UNL     1       4.294  -7.530  24.065  0.00  0.00    -0.393 OA
ATOM     17  H   UNL     1       4.483  -7.947  23.200  0.00  0.00    +0.209 HD
ENDBRANCH  15  16
ENDBRANCH   1  15
TORSDOF 3
ENDMDL
MODEL 6
REMARK VINA RESULT:      -5.4      1.706      2.553
REMARK  Name = 
REMARK  3 active torsions:
REMARK  status: ('A' for Active; 'I' for Inactive)
REMARK    1  A    between atoms: CA_2  and  C_3
REMARK    2  A    between atoms: C_3  and  O_4
REMARK    3  A    between atoms: C_9  and  N_14
REMARK                            x       y       z     vdW  Elec       q    Type
REMARK                         _______ _______ _______ _____ _____    ______ ____
ROOT
ATOM      1  CA  UNL     1       8.976  -0.591  22.695  0.00  0.00    +0.084 C 
ATOM      2  N   UNL     1       9.876  -0.616  23.873  0.00  0.00    -0.307 NA
ATOM      3  H   UNL     1      10.700  -1.174  23.645  0.00  0.00    +0.123 HD
ATOM      4  C   UNL     1       9.189  -1.268  25.000  0.00  0.00    +0.117 C 
ATOM      5  C   UNL     1       8.543  -2.591  24.647  0.00  0.00    -0.024 A 
ATOM      6  C   UNL     1       8.277  -2.937  23.306  0.00  0.00    -0.041 A 
ATOM      7  C   UNL     1       7.651  -4.155  23.002  0.00  0.00    +0.010 A 
ATOM      8  C   UNL     1       7.250  -5.018  24.023  0.00  0.00    +0.084 A 
ATOM      9  C   UNL     1       7.485  -4.663  25.355  0.00  0.00    +0.273 A 
ATOM     10  C   UNL     1       8.129  -3.457  25.672  0.00  0.00    +0.089 A 
ATOM     11  C   UNL     1       8.704  -2.016  22.188  0.00  0.00    +0.056 C 
ENDROOT
BRANCH   9  12
ATOM     12  N   UNL     1       7.043  -5.558  26.433  0.00  0.00    +0.080 N 
ATOM     13  O   UNL     1       7.700  -5.565  27.482  0.00  0.00    +0.041 OA
ATOM     14  O   UNL     1       6.037  -6.253  26.229  0.00  0.00    -0.576 OA
ENDBRANCH   9  12
BRANCH   1  15
ATOM     15  C   UNL     1       9.601   0.266  21.580  0.00  0.00    +0.174 C 
BRANCH  15  16
ATOM     16  O   UNL     1       8.673   1.264  21.159  0.00  0.00    -0.393 OA
ATOM     17  H   UNL     1       9.208   2.077  21.054  0.00  0.00    +0.209 HD
ENDBRANCH  15  16
ENDBRANCH   1  15
TORSDOF 3
ENDMDL
MODEL 7
REMARK VINA RESULT:      -5.4      3.151      3.971
REMARK  Name = 
REMARK  3 active torsions:
REMARK  status: ('A' for Active; 'I' for Inactive)
REMARK    1  A    between atoms: CA_2  and  C_3
REMARK    2  A    between atoms: C_3  and  O_4
REMARK    3  A    between atoms: C_9  and  N_14
REMARK                            x       y       z     vdW  Elec       q    Type
REMARK                         _______ _______ _______ _____ _____    ______ ____
ROOT
ATOM      1  CA  UNL     1       9.039  -2.024  23.494  0.00  0.00    +0.084 C 
ATOM      2  N   UNL     1       9.854  -3.146  24.021  0.00  0.00    -0.307 NA
ATOM      3  H   UNL     1      10.138  -3.740  23.241  0.00  0.00    +0.123 HD
ATOM      4  C   UNL     1       9.032  -3.961  24.930  0.00  0.00    +0.117 C 
ATOM      5  C   UNL     1       7.682  -4.347  24.363  0.00  0.00    -0.024 A 
ATOM      6  C   UNL     1       7.124  -3.651  23.272  0.00  0.00    -0.041 A 
ATOM      7  C   UNL     1       5.859  -4.005  22.780  0.00  0.00    +0.010 A 
ATOM      8  C   UNL     1       5.123  -5.022  23.389  0.00  0.00    +0.084 A 
ATOM      9  C   UNL     1       5.661  -5.694  24.492  0.00  0.00    +0.273 A 
ATOM     10  C   UNL     1       6.934  -5.363  24.980  0.00  0.00    +0.089 A 
ATOM     11  C   UNL     1       7.906  -2.548  22.599  0.00  0.00    +0.056 C 
ENDROOT
BRANCH   9  12
ATOM     12  N   UNL     1       4.878  -6.748  25.151  0.00  0.00    +0.080 N 
ATOM     13  O   UNL     1       4.191  -7.487  24.434  0.00  0.00    +0.041 OA
ATOM     14  O   UNL     1       4.953  -6.836  26.384  0.00  0.00    -0.576 OA
ENDBRANCH   9  12
BRANCH   1  15
ATOM     15  C   UNL     1       9.938  -1.052  22.710  0.00  0.00    +0.174 C 
BRANCH  15  16
ATOM     16  O   UNL     1      10.211  -1.581  21.415  0.00  0.00    -0.393 OA
ATOM     17  H   UNL     1       9.867  -0.910  20.791  0.00  0.00    +0.209 HD
ENDBRANCH  15  16
ENDBRANCH   1  15
TORSDOF 3
ENDMDL
MODEL 8
REMARK VINA RESULT:      -5.4      1.525      6.026
REMARK  Name = 
REMARK  3 active torsions:
REMARK  status: ('A' for Active; 'I' for Inactive)
REMARK    1  A    between atoms: CA_2  and  C_3
REMARK    2  A    between atoms: C_3  and  O_4
REMARK    3  A    between atoms: C_9  and  N_14
REMARK                            x       y       z     vdW  Elec       q    Type
REMARK                         _______ _______ _______ _____ _____    ______ ____
ROOT
ATOM      1  CA  UNL     1       9.125  -3.752  25.548  0.00  0.00    +0.084 C 
ATOM      2  N   UNL     1       8.033  -2.992  26.204  0.00  0.00    -0.307 NA
ATOM      3  H   UNL     1       7.224  -2.976  25.580  0.00  0.00    +0.123 HD
ATOM      4  C   UNL     1       8.464  -1.601  26.417  0.00  0.00    +0.117 C 
ATOM      5  C   UNL     1       9.068  -0.947  25.192  0.00  0.00    -0.024 A 
ATOM      6  C   UNL     1       9.539  -1.720  24.111  0.00  0.00    -0.041 A 
ATOM      7  C   UNL     1      10.121  -1.095  22.998  0.00  0.00    +0.010 A 
ATOM      8  C   UNL     1      10.275   0.291  22.965  0.00  0.00    +0.084 A 
ATOM      9  C   UNL     1       9.836   1.058  24.049  0.00  0.00    +0.273 A 
ATOM     10  C   UNL     1       9.233   0.447  25.160  0.00  0.00    +0.089 A 
ATOM     11  C   UNL     1       9.380  -3.221  24.129  0.00  0.00    +0.056 C 
ENDROOT
BRANCH   9  12
ATOM     12  N   UNL     1      10.019   2.515  24.028  0.00  0.00    +0.080 N 
ATOM     13  O   UNL     1       9.150   3.212  24.569  0.00  0.00    +0.041 OA
ATOM     14  O   UNL     1      11.032   2.961  23.471  0.00  0.00    -0.576 OA
ENDBRANCH   9  12
BRANCH   1  15
ATOM     15  C   UNL     1       8.767  -5.247  25.507  0.00  0.00    +0.174 C 
BRANCH  15  16
ATOM     16  O   UNL     1       9.956  -6.032  25.568  0.00  0.00    -0.393 OA
ATOM     17  H   UNL     1      10.047  -6.280  26.510  0.00  0.00    +0.209 HD
ENDBRANCH  15  16
ENDBRANCH   1  15
TORSDOF 3
ENDMDL
MODEL 9
REMARK VINA RESULT:      -5.3      2.345      6.119
REMARK  Name = 
REMARK  3 active torsions:
REMARK  status: ('A' for Active; 'I' for Inactive)
REMARK    1  A    between atoms: CA_2  and  C_3
REMARK    2  A    between atoms: C_3  and  O_4
REMARK    3  A    between atoms: C_9  and  N_14
REMARK                            x       y       z     vdW  Elec       q    Type
REMARK                         _______ _______ _______ _____ _____    ______ ____
ROOT
ATOM      1  CA  UNL     1       6.681  -5.306  26.868  0.00  0.00    +0.084 C 
ATOM      2  N   UNL     1       8.058  -5.854  26.831  0.00  0.00    -0.307 NA
ATOM      3  H   UNL     1       8.572  -5.506  27.643  0.00  0.00    +0.123 HD
ATOM      4  C   UNL     1       8.745  -5.369  25.623  0.00  0.00    +0.117 C 
ATOM      5  C   UNL     1       8.633  -3.875  25.406  0.00  0.00    -0.024 A 
ATOM      6  C   UNL     1       7.637  -3.118  26.056  0.00  0.00    -0.041 A 
ATOM      7  C   UNL     1       7.532  -1.739  25.820  0.00  0.00    +0.010 A 
ATOM      8  C   UNL     1       8.384  -1.110  24.911  0.00  0.00    +0.084 A 
ATOM      9  C   UNL     1       9.352  -1.865  24.242  0.00  0.00    +0.273 A 
ATOM     10  C   UNL     1       9.482  -3.241  24.485  0.00  0.00    +0.089 A 
ATOM     11  C   UNL     1       6.707  -3.780  27.044  0.00  0.00    +0.056 C 
ENDROOT
BRANCH   9  12
ATOM     12  N   UNL     1      10.235  -1.210  23.266  0.00  0.00    +0.080 N 
ATOM     13  O   UNL     1      10.513  -1.834  22.233  0.00  0.00    +0.041 OA
ATOM     14  O   UNL     1      10.648  -0.074  23.534  0.00  0.00    -0.576 OA
ENDBRANCH   9  12
BRANCH   1  15
ATOM     15  C   UNL     1       5.889  -5.966  28.010  0.00  0.00    +0.174 C 
BRANCH  15  16
ATOM     16  O   UNL     1       5.386  -7.231  27.584  0.00  0.00    -0.393 OA
ATOM     17  H   UNL     1       6.058  -7.880  27.874  0.00  0.00    +0.209 HD
ENDBRANCH  15  16
ENDBRANCH   1  15
TORSDOF 3
ENDMDL
