MODEL 1
REMARK VINA RESULT:      -4.5      0.000      0.000
REMARK  Name = 
REMARK  5 active torsions:
REMARK  status: ('A' for Active; 'I' for Inactive)
REMARK    1  A    between atoms: N_3  and  O_4
REMARK    2  A    between atoms: N_5  and  C_6
REMARK    3  A    between atoms: C_6  and  C_7
REMARK    4  A    between atoms: C_7  and  C_8
REMARK    5  A    between atoms: C_8  and  N_9
REMARK                            x       y       z     vdW  Elec       q    Type
REMARK                         _______ _______ _______ _____ _____    ______ ____
ROOT
ATOM      1  N   UNL     1      10.852   6.073  23.302  0.00  0.00    -0.287 N 
ATOM      2  H   UNL     1       9.982   5.793  23.739  0.00  0.00    +0.255 HD
ATOM      3  H   UNL     1      11.102   7.024  23.549  0.00  0.00    +0.255 HD
ATOM      4  C   UNL     1      11.843   5.157  23.241  0.00  0.00    +0.407 C 
ATOM      5  N   UNL     1      11.741   3.876  23.394  0.00  0.00    -0.111 NA
ATOM      6  N   UNL     1      13.058   5.700  22.911  0.00  0.00    -0.142 N 
ATOM      7  H   UNL     1      13.208   6.696  23.057  0.00  0.00    +0.299 HD
ENDROOT
BRANCH   6   8
ATOM      8  O   UNL     1      14.158   4.896  23.239  0.00  0.00    -0.233 OA
ATOM      9  H   UNL     1      14.435   5.235  24.115  0.00  0.00    +0.262 HD
ENDBRANCH   6   8
BRANCH   5  10
ATOM     10  C   UNL     1      10.423   3.302  23.665  0.00  0.00    +0.249 C 
BRANCH  10  11
ATOM     11  C   UNL     1      10.591   1.782  23.755  0.00  0.00    +0.091 C 
BRANCH  11  12
ATOM     12  C   UNL     1      10.124   1.054  22.496  0.00  0.00    +0.130 C 
BRANCH  12  13
ATOM     13  N   UNL     1       9.709   2.031  21.465  0.00  0.00    +0.219 N 
ATOM     14  H   UNL     1       9.620   1.631  20.525  0.00  0.00    +0.199 HD
ATOM     15  H   UNL     1      10.330   2.846  21.428  0.00  0.00    +0.199 HD
ATOM     16  H   UNL     1       8.782   2.423  21.737  0.00  0.00    +0.199 HD
ENDBRANCH  12  13
ENDBRANCH  11  12
ENDBRANCH  10  11
ENDBRANCH   5  10
TORSDOF 5
ENDMDL
MODEL 2
REMARK VINA RESULT:      -4.1      4.009      4.955
REMARK  Name = 
REMARK  5 active torsions:
REMARK  status: ('A' for Active; 'I' for Inactive)
REMARK    1  A    between atoms: N_3  and  O_4
REMARK    2  A    between atoms: N_5  and  C_6
REMARK    3  A    between atoms: C_6  and  C_7
REMARK    4  A    between atoms: C_7  and  C_8
REMARK    5  A    between atoms: C_8  and  N_9
REMARK                            x       y       z     vdW  Elec       q    Type
REMARK                         _______ _______ _______ _____ _____    ______ ____
ROOT
ATOM      1  N   UNL     1       9.587   1.867  21.374  0.00  0.00    -0.287 N 
ATOM      2  H   UNL     1       9.940   2.698  21.832  0.00  0.00    +0.255 HD
ATOM      3  H   UNL     1       9.700   1.922  20.368  0.00  0.00    +0.255 HD
ATOM      4  C   UNL     1       9.823   0.678  21.970  0.00  0.00    +0.407 C 
ATOM      5  N   UNL     1      10.177   0.469  23.197  0.00  0.00    -0.111 NA
ATOM      6  N   UNL     1       9.577  -0.394  21.150  0.00  0.00    -0.142 N 
ATOM      7  H   UNL     1       9.570  -0.250  20.143  0.00  0.00    +0.299 HD
ENDROOT
BRANCH   6   8
ATOM      8  O   UNL     1      10.188  -1.586  21.560  0.00  0.00    -0.233 OA
ATOM      9  H   UNL     1      10.735  -1.312  22.325  0.00  0.00    +0.262 HD
ENDBRANCH   6   8
BRANCH   5  10
ATOM     10  C   UNL     1      10.356   1.619  24.083  0.00  0.00    +0.249 C 
BRANCH  10  11
ATOM     11  C   UNL     1       9.026   1.858  24.805  0.00  0.00    +0.091 C 
BRANCH  11  12
ATOM     12  C   UNL     1       8.412   0.577  25.366  0.00  0.00    +0.130 C 
BRANCH  12  13
ATOM     13  N   UNL     1       9.402  -0.141  26.200  0.00  0.00    +0.219 N 
ATOM     14  H   UNL     1      10.374   0.128  26.017  0.00  0.00    +0.199 HD
ATOM     15  H   UNL     1       9.312  -1.159  26.121  0.00  0.00    +0.199 HD
ATOM     16  H   UNL     1       9.196   0.061  27.202  0.00  0.00    +0.199 HD
ENDBRANCH  12  13
ENDBRANCH  11  12
ENDBRANCH  10  11
ENDBRANCH   5  10
TORSDOF 5
ENDMDL
MODEL 3
REMARK VINA RESULT:      -4.0      9.701     10.085
REMARK  Name = 
REMARK  5 active torsions:
REMARK  status: ('A' for Active; 'I' for Inactive)
REMARK    1  A    between atoms: N_3  and  O_4
REMARK    2  A    between atoms: N_5  and  C_6
REMARK    3  A    between atoms: C_6  and  C_7
REMARK    4  A    between atoms: C_7  and  C_8
REMARK    5  A    between atoms: C_8  and  N_9
REMARK                            x       y       z     vdW  Elec       q    Type
REMARK                         _______ _______ _______ _____ _____    ______ ____
ROOT
ATOM      1  N   UNL     1       7.759  -5.813  27.170  0.00  0.00    -0.287 N 
ATOM      2  H   UNL     1       6.802  -6.130  27.074  0.00  0.00    +0.255 HD
ATOM      3  H   UNL     1       8.283  -6.402  27.808  0.00  0.00    +0.255 HD
ATOM      4  C   UNL     1       8.387  -5.378  26.056  0.00  0.00    +0.407 C 
ATOM      5  N   UNL     1       7.846  -5.026  24.934  0.00  0.00    -0.111 NA
ATOM      6  N   UNL     1       9.743  -5.252  26.216  0.00  0.00    -0.142 N 
ATOM      7  H   UNL     1      10.200  -5.767  26.965  0.00  0.00    +0.299 HD
ENDROOT
BRANCH   6   8
ATOM      8  O   UNL     1      10.466  -5.215  25.016  0.00  0.00    -0.233 OA
ATOM      9  H   UNL     1      10.329  -4.300  24.695  0.00  0.00    +0.262 HD
ENDBRANCH   6   8
BRANCH   5  10
ATOM     10  C   UNL     1       6.390  -5.089  24.805  0.00  0.00    +0.249 C 
BRANCH  10  11
ATOM     11  C   UNL     1       6.020  -4.479  23.450  0.00  0.00    +0.091 C 
BRANCH  11  12
ATOM     12  C   UNL     1       7.123  -4.632  22.404  0.00  0.00    +0.130 C 
BRANCH  12  13
ATOM     13  N   UNL     1       7.290  -6.057  22.041  0.00  0.00    +0.219 N 
ATOM     14  H   UNL     1       6.998  -6.711  22.776  0.00  0.00    +0.199 HD
ATOM     15  H   UNL     1       8.249  -6.277  21.754  0.00  0.00    +0.199 HD
ATOM     16  H   UNL     1       6.714  -6.250  21.194  0.00  0.00    +0.199 HD
ENDBRANCH  12  13
ENDBRANCH  11  12
ENDBRANCH  10  11
ENDBRANCH   5  10
TORSDOF 5
ENDMDL
MODEL 4
REMARK VINA RESULT:      -4.0      9.546     10.332
REMARK  Name = 
REMARK  5 active torsions:
REMARK  status: ('A' for Active; 'I' for Inactive)
REMARK    1  A    between atoms: N_3  and  O_4
REMARK    2  A    between atoms: N_5  and  C_6
REMARK    3  A    between atoms: C_6  and  C_7
REMARK    4  A    between atoms: C_7  and  C_8
REMARK    5  A    between atoms: C_8  and  N_9
REMARK                            x       y       z     vdW  Elec       q    Type
REMARK                         _______ _______ _______ _____ _____    ______ ____
ROOT
ATOM      1  N   UNL     1       9.846  -5.743  25.450  0.00  0.00    -0.287 N 
ATOM      2  H   UNL     1      10.286  -5.275  24.667  0.00  0.00    +0.255 HD
ATOM      3  H   UNL     1      10.515  -5.946  26.184  0.00  0.00    +0.255 HD
ATOM      4  C   UNL     1       8.617  -5.321  25.819  0.00  0.00    +0.407 C 
ATOM      5  N   UNL     1       7.791  -4.604  25.127  0.00  0.00    -0.111 NA
ATOM      6  N   UNL     1       8.230  -5.795  27.046  0.00  0.00    -0.142 N 
ATOM      7  H   UNL     1       8.944  -6.114  27.697  0.00  0.00    +0.299 HD
ENDROOT
BRANCH   6   8
ATOM      8  O   UNL     1       7.186  -5.074  27.641  0.00  0.00    -0.233 OA
ATOM      9  H   UNL     1       6.942  -4.418  26.956  0.00  0.00    +0.262 HD
ENDBRANCH   6   8
BRANCH   5  10
ATOM     10  C   UNL     1       8.185  -4.173  23.786  0.00  0.00    +0.249 C 
BRANCH  10  11
ATOM     11  C   UNL     1       7.043  -4.533  22.831  0.00  0.00    +0.091 C 
BRANCH  11  12
ATOM     12  C   UNL     1       7.244  -5.881  22.141  0.00  0.00    +0.130 C 
BRANCH  12  13
ATOM     13  N   UNL     1       5.935  -6.516  21.870  0.00  0.00    +0.219 N 
ATOM     14  H   UNL     1       5.221  -6.318  22.579  0.00  0.00    +0.199 HD
ATOM     15  H   UNL     1       6.013  -7.530  21.742  0.00  0.00    +0.199 HD
ATOM     16  H   UNL     1       5.582  -6.165  20.954  0.00  0.00    +0.199 HD
ENDBRANCH  12  13
ENDBRANCH  11  12
ENDBRANCH  10  11
ENDBRANCH   5  10
TORSDOF 5
ENDMDL
MODEL 5
REMARK VINA RESULT:      -4.0      3.878      5.317
REMARK  Name = 
REMARK  5 active torsions:
REMARK  status: ('A' for Active; 'I' for Inactive)
REMARK    1  A    between atoms: N_3  and  O_4
REMARK    2  A    between atoms: N_5  and  C_6
REMARK    3  A    between atoms: C_6  and  C_7
REMARK    4  A    between atoms: C_7  and  C_8
REMARK    5  A    between atoms: C_8  and  N_9
REMARK                            x       y       z     vdW  Elec       q    Type
REMARK                         _______ _______ _______ _____ _____    ______ ____
ROOT
ATOM      1  N   UNL     1       9.302  -1.222  24.883  0.00  0.00    -0.287 N 
ATOM      2  H   UNL     1       9.098  -0.436  25.488  0.00  0.00    +0.255 HD
ATOM      3  H   UNL     1       8.526  -1.873  24.847  0.00  0.00    +0.255 HD
ATOM      4  C   UNL     1       9.965  -0.968  23.733  0.00  0.00    +0.407 C 
ATOM      5  N   UNL     1      10.642   0.092  23.433  0.00  0.00    -0.111 NA
ATOM      6  N   UNL     1       9.936  -2.019  22.853  0.00  0.00    -0.142 N 
ATOM      7  H   UNL     1       9.206  -2.722  22.949  0.00  0.00    +0.299 HD
ENDROOT
BRANCH   6   8
ATOM      8  O   UNL     1      10.231  -1.671  21.528  0.00  0.00    -0.233 OA
ATOM      9  H   UNL     1      10.934  -2.304  21.276  0.00  0.00    +0.262 HD
ENDBRANCH   6   8
BRANCH   5  10
ATOM     10  C   UNL     1      10.732   1.172  24.416  0.00  0.00    +0.249 C 
BRANCH  10  11
ATOM     11  C   UNL     1      10.539   2.495  23.668  0.00  0.00    +0.091 C 
BRANCH  11  12
ATOM     12  C   UNL     1       9.271   2.521  22.817  0.00  0.00    +0.130 C 
BRANCH  12  13
ATOM     13  N   UNL     1       9.568   2.055  21.444  0.00  0.00    +0.219 N 
ATOM     14  H   UNL     1       9.336   2.738  20.713  0.00  0.00    +0.199 HD
ATOM     15  H   UNL     1       9.113   1.162  21.229  0.00  0.00    +0.199 HD
ATOM     16  H   UNL     1      10.587   1.850  21.379  0.00  0.00    +0.199 HD
ENDBRANCH  12  13
ENDBRANCH  11  12
ENDBRANCH  10  11
ENDBRANCH   5  10
TORSDOF 5
ENDMDL
MODEL 6
REMARK VINA RESULT:      -3.9      3.257      4.131
REMARK  Name = 
REMARK  5 active torsions:
REMARK  status: ('A' for Active; 'I' for Inactive)
REMARK    1  A    between atoms: N_3  and  O_4
REMARK    2  A    between atoms: N_5  and  C_6
REMARK    3  A    between atoms: C_6  and  C_7
REMARK    4  A    between atoms: C_7  and  C_8
REMARK    5  A    between atoms: C_8  and  N_9
REMARK                            x       y       z     vdW  Elec       q    Type
REMARK                         _______ _______ _______ _____ _____    ______ ____
ROOT
ATOM      1  N   UNL     1      10.650   3.264  23.037  0.00  0.00    -0.287 N 
ATOM      2  H   UNL     1      11.410   3.144  23.696  0.00  0.00    +0.255 HD
ATOM      3  H   UNL     1      10.872   3.967  22.340  0.00  0.00    +0.255 HD
ATOM      4  C   UNL     1       9.998   2.155  22.627  0.00  0.00    +0.407 C 
ATOM      5  N   UNL     1      10.006   0.986  23.183  0.00  0.00    -0.111 NA
ATOM      6  N   UNL     1       9.200   2.373  21.533  0.00  0.00    -0.142 N 
ATOM      7  H   UNL     1       9.389   3.177  20.939  0.00  0.00    +0.299 HD
ENDROOT
BRANCH   6   8
ATOM      8  O   UNL     1       8.847   1.210  20.835  0.00  0.00    -0.233 OA
ATOM      9  H   UNL     1       8.015   1.459  20.382  0.00  0.00    +0.262 HD
ENDBRANCH   6   8
BRANCH   5  10
ATOM     10  C   UNL     1      10.798   0.790  24.397  0.00  0.00    +0.249 C 
BRANCH  10  11
ATOM     11  C   UNL     1      10.035  -0.189  25.294  0.00  0.00    +0.091 C 
BRANCH  11  12
ATOM     12  C   UNL     1       9.137  -1.143  24.508  0.00  0.00    +0.130 C 
BRANCH  12  13
ATOM     13  N   UNL     1       9.959  -2.122  23.764  0.00  0.00    +0.219 N 
ATOM     14  H   UNL     1       9.680  -2.242  22.784  0.00  0.00    +0.199 HD
ATOM     15  H   UNL     1       9.984  -3.038  24.222  0.00  0.00    +0.199 HD
ATOM     16  H   UNL     1      10.950  -1.798  23.777  0.00  0.00    +0.199 HD
ENDBRANCH  12  13
ENDBRANCH  11  12
ENDBRANCH  10  11
ENDBRANCH   5  10
TORSDOF 5
ENDMDL
MODEL 7
REMARK VINA RESULT:      -3.9      3.118      4.315
REMARK  Name = 
REMARK  5 active torsions:
REMARK  status: ('A' for Active; 'I' for Inactive)
REMARK    1  A    between atoms: N_3  and  O_4
REMARK    2  A    between atoms: N_5  and  C_6
REMARK    3  A    between atoms: C_6  and  C_7
REMARK    4  A    between atoms: C_7  and  C_8
REMARK    5  A    between atoms: C_8  and  N_9
REMARK                            x       y       z     vdW  Elec       q    Type
REMARK                         _______ _______ _______ _____ _____    ______ ____
ROOT
ATOM      1  N   UNL     1       8.867   1.112  20.954  0.00  0.00    -0.287 N 
ATOM      2  H   UNL     1       8.308   0.267  20.977  0.00  0.00    +0.255 HD
ATOM      3  H   UNL     1       8.312   1.916  20.683  0.00  0.00    +0.255 HD
ATOM      4  C   UNL     1       9.782   1.281  21.933  0.00  0.00    +0.407 C 
ATOM      5  N   UNL     1      10.259   0.378  22.729  0.00  0.00    -0.111 NA
ATOM      6  N   UNL     1      10.274   2.559  21.996  0.00  0.00    -0.142 N 
ATOM      7  H   UNL     1       9.732   3.315  21.584  0.00  0.00    +0.299 HD
ENDROOT
BRANCH   6   8
ATOM      8  O   UNL     1      10.885   2.884  23.214  0.00  0.00    -0.233 OA
ATOM      9  H   UNL     1      10.173   3.335  23.713  0.00  0.00    +0.262 HD
ENDBRANCH   6   8
BRANCH   5  10
ATOM     10  C   UNL     1       9.785  -0.999  22.595  0.00  0.00    +0.249 C 
BRANCH  10  11
ATOM     11  C   UNL     1       9.841  -1.644  23.984  0.00  0.00    +0.091 C 
BRANCH  11  12
ATOM     12  C   UNL     1       9.071  -0.853  25.040  0.00  0.00    +0.130 C 
BRANCH  12  13
ATOM     13  N   UNL     1       9.941   0.186  25.635  0.00  0.00    +0.219 N 
ATOM     14  H   UNL     1      10.249  -0.025  26.591  0.00  0.00    +0.199 HD
ATOM     15  H   UNL     1       9.508   1.115  25.617  0.00  0.00    +0.199 HD
ATOM     16  H   UNL     1      10.791   0.284  25.040  0.00  0.00    +0.199 HD
ENDBRANCH  12  13
ENDBRANCH  11  12
ENDBRANCH  10  11
ENDBRANCH   5  10
TORSDOF 5
ENDMDL
MODEL 8
REMARK VINA RESULT:      -3.9      8.548      9.448
REMARK  Name = 
REMARK  5 active torsions:
REMARK  status: ('A' for Active; 'I' for Inactive)
REMARK    1  A    between atoms: N_3  and  O_4
REMARK    2  A    between atoms: N_5  and  C_6
REMARK    3  A    between atoms: C_6  and  C_7
REMARK    4  A    between atoms: C_7  and  C_8
REMARK    5  A    between atoms: C_8  and  N_9
REMARK                            x       y       z     vdW  Elec       q    Type
REMARK                         _______ _______ _______ _____ _____    ______ ____
ROOT
ATOM      1  N   UNL     1      10.209  -5.620  25.578  0.00  0.00    -0.287 N 
ATOM      2  H   UNL     1      10.885  -5.070  25.062  0.00  0.00    +0.255 HD
ATOM      3  H   UNL     1      10.661  -6.211  26.268  0.00  0.00    +0.255 HD
ATOM      4  C   UNL     1       9.050  -5.019  25.927  0.00  0.00    +0.407 C 
ATOM      5  N   UNL     1       8.551  -3.930  25.438  0.00  0.00    -0.111 NA
ATOM      6  N   UNL     1       8.336  -5.726  26.860  0.00  0.00    -0.142 N 
ATOM      7  H   UNL     1       8.822  -6.408  27.437  0.00  0.00    +0.299 HD
ENDROOT
BRANCH   6   8
ATOM      8  O   UNL     1       7.375  -4.970  27.544  0.00  0.00    -0.233 OA
ATOM      9  H   UNL     1       7.342  -5.389  28.429  0.00  0.00    +0.262 HD
ENDBRANCH   6   8
BRANCH   5  10
ATOM     10  C   UNL     1       9.286  -3.230  24.384  0.00  0.00    +0.249 C 
BRANCH  10  11
ATOM     11  C   UNL     1       8.292  -2.323  23.652  0.00  0.00    +0.091 C 
BRANCH  11  12
ATOM     12  C   UNL     1       7.682  -2.981  22.416  0.00  0.00    +0.130 C 
BRANCH  12  13
ATOM     13  N   UNL     1       7.520  -4.435  22.637  0.00  0.00    +0.219 N 
ATOM     14  H   UNL     1       7.530  -4.709  23.626  0.00  0.00    +0.199 HD
ATOM     15  H   UNL     1       8.217  -4.987  22.127  0.00  0.00    +0.199 HD
ATOM     16  H   UNL     1       6.606  -4.730  22.232  0.00  0.00    +0.199 HD
ENDBRANCH  12  13
ENDBRANCH  11  12
ENDBRANCH  10  11
ENDBRANCH   5  10
TORSDOF 5
ENDMDL
MODEL 9
REMARK VINA RESULT:      -3.8      3.131      3.987
REMARK  Name = 
REMARK  5 active torsions:
REMARK  status: ('A' for Active; 'I' for Inactive)
REMARK    1  A    between atoms: N_3  and  O_4
REMARK    2  A    between atoms: N_5  and  C_6
REMARK    3  A    between atoms: C_6  and  C_7
REMARK    4  A    between atoms: C_7  and  C_8
REMARK    5  A    between atoms: C_8  and  N_9
REMARK                            x       y       z     vdW  Elec       q    Type
REMARK                         _______ _______ _______ _____ _____    ______ ____
ROOT
ATOM      1  N   UNL     1       9.143   2.263  24.908  0.00  0.00    -0.287 N 
ATOM      2  H   UNL     1       9.339   1.713  25.735  0.00  0.00    +0.255 HD
ATOM      3  H   UNL     1       9.229   3.256  25.094  0.00  0.00    +0.255 HD
ATOM      4  C   UNL     1       9.609   1.802  23.727  0.00  0.00    +0.407 C 
ATOM      5  N   UNL     1      10.014   0.603  23.455  0.00  0.00    -0.111 NA
ATOM      6  N   UNL     1       9.559   2.737  22.726  0.00  0.00    -0.142 N 
ATOM      7  H   UNL     1       9.510   3.722  22.975  0.00  0.00    +0.299 HD
ENDROOT
BRANCH   6   8
ATOM      8  O   UNL     1      10.390   2.458  21.633  0.00  0.00    -0.233 OA
ATOM      9  H   UNL     1       9.878   2.787  20.866  0.00  0.00    +0.262 HD
ENDBRANCH   6   8
BRANCH   5  10
ATOM     10  C   UNL     1       9.985  -0.407  24.513  0.00  0.00    +0.249 C 
BRANCH  10  11
ATOM     11  C   UNL     1       9.875  -1.778  23.841  0.00  0.00    +0.091 C 
BRANCH  11  12
ATOM     12  C   UNL     1       8.988  -1.764  22.597  0.00  0.00    +0.130 C 
BRANCH  12  13
ATOM     13  N   UNL     1       9.791  -1.432  21.400  0.00  0.00    +0.219 N 
ATOM     14  H   UNL     1       9.596  -2.028  20.588  0.00  0.00    +0.199 HD
ATOM     15  H   UNL     1      10.798  -1.440  21.591  0.00  0.00    +0.199 HD
ATOM     16  H   UNL     1       9.587  -0.446  21.129  0.00  0.00    +0.199 HD
ENDBRANCH  12  13
ENDBRANCH  11  12
ENDBRANCH  10  11
ENDBRANCH   5  10
TORSDOF 5
ENDMDL
