MODEL 1
REMARK VINA RESULT:      -6.0      0.000      0.000
REMARK  Name = 
REMARK  2 active torsions:
REMARK  status: ('A' for Active; 'I' for Inactive)
REMARK    1  A    between atoms: C_5  and  C_7
REMARK    2  A    between atoms: C_7  and  C_9
REMARK                            x       y       z     vdW  Elec       q    Type
REMARK                         _______ _______ _______ _____ _____    ______ ____
ROOT
ATOM      1  C   UNL     1      10.028  -1.620  23.186  0.00  0.00    +0.230 C 
ATOM      2  O   UNL     1      10.620  -1.959  22.163  0.00  0.00    -0.283 OA
ENDROOT
BRANCH   1   8
ATOM      3  N   UNL     1       9.768  -5.685  25.551  0.00  0.00    -0.313 N 
ATOM      4  H   UNL     1      10.206  -6.218  24.812  0.00  0.00    +0.147 HD
ATOM      5  H   UNL     1       9.101  -6.208  26.108  0.00  0.00    +0.147 HD
ATOM      6  C   UNL     1       9.438  -4.421  25.284  0.00  0.00    +0.285 A 
ATOM      7  O   UNL     1      10.116  -3.832  24.266  0.00  0.00    -0.421 OA
ATOM      8  C   UNL     1       9.566  -2.579  24.162  0.00  0.00    +0.197 A 
ATOM      9  C   UNL     1       8.603  -2.492  25.145  0.00  0.00    +0.166 A 
ATOM     10  N   UNL     1       8.525  -3.673  25.843  0.00  0.00    -0.203 NA
ENDBRANCH   1   8
BRANCH   1  11
ATOM     11  C   UNL     1       9.742  -0.163  23.367  0.00  0.00    +0.026 A 
ATOM     12  C   UNL     1      10.669   0.610  24.082  0.00  0.00    +0.012 A 
ATOM     13  C   UNL     1      10.487   1.990  24.216  0.00  0.00    +0.002 A 
ATOM     14  C   UNL     1       9.377   2.604  23.635  0.00  0.00    +0.015 A 
ATOM     15  C   UNL     1       8.437   1.833  22.958  0.00  0.00    +0.019 A 
ATOM     16 BR   UNL     1       6.938   2.663  22.160  0.00  0.00    -0.050 Br
ATOM     17  C   UNL     1       8.598   0.453  22.844  0.00  0.00    +0.027 A 
ENDBRANCH   1  11
TORSDOF 2
ENDMDL
MODEL 2
REMARK VINA RESULT:      -5.9      3.850      5.389
REMARK  Name = 
REMARK  2 active torsions:
REMARK  status: ('A' for Active; 'I' for Inactive)
REMARK    1  A    between atoms: C_5  and  C_7
REMARK    2  A    between atoms: C_7  and  C_9
REMARK                            x       y       z     vdW  Elec       q    Type
REMARK                         _______ _______ _______ _____ _____    ______ ____
ROOT
ATOM      1  C   UNL     1       9.532  -2.176  23.544  0.00  0.00    +0.230 C 
ATOM      2  O   UNL     1      10.384  -3.019  23.817  0.00  0.00    -0.283 OA
ENDROOT
BRANCH   1   8
ATOM      3  N   UNL     1      10.070   2.113  21.673  0.00  0.00    -0.313 N 
ATOM      4  H   UNL     1      10.158   1.761  20.729  0.00  0.00    +0.147 HD
ATOM      5  H   UNL     1      10.582   2.970  21.851  0.00  0.00    +0.147 HD
ATOM      6  C   UNL     1      10.066   1.220  22.662  0.00  0.00    +0.285 A 
ATOM      7  O   UNL     1       9.711  -0.045  22.321  0.00  0.00    -0.421 OA
ATOM      8  C   UNL     1       9.834  -0.765  23.484  0.00  0.00    +0.197 A 
ATOM      9  C   UNL     1      10.237   0.126  24.455  0.00  0.00    +0.166 A 
ATOM     10  N   UNL     1      10.392   1.382  23.917  0.00  0.00    -0.203 NA
ENDBRANCH   1   8
BRANCH   1  11
ATOM     11  C   UNL     1       8.132  -2.657  23.328  0.00  0.00    +0.026 A 
ATOM     12  C   UNL     1       7.080  -1.886  23.846  0.00  0.00    +0.012 A 
ATOM     13  C   UNL     1       5.751  -2.252  23.609  0.00  0.00    +0.002 A 
ATOM     14  C   UNL     1       5.467  -3.389  22.854  0.00  0.00    +0.015 A 
ATOM     15  C   UNL     1       6.510  -4.176  22.371  0.00  0.00    +0.019 A 
ATOM     16 BR   UNL     1       6.129  -5.711  21.337  0.00  0.00    -0.050 Br
ATOM     17  C   UNL     1       7.837  -3.832  22.626  0.00  0.00    +0.027 A 
ENDBRANCH   1  11
TORSDOF 2
ENDMDL
MODEL 3
REMARK VINA RESULT:      -5.8      1.802      2.039
REMARK  Name = 
REMARK  2 active torsions:
REMARK  status: ('A' for Active; 'I' for Inactive)
REMARK    1  A    between atoms: C_5  and  C_7
REMARK    2  A    between atoms: C_7  and  C_9
REMARK                            x       y       z     vdW  Elec       q    Type
REMARK                         _______ _______ _______ _____ _____    ______ ____
ROOT
ATOM      1  C   UNL     1       7.719  -2.741  22.952  0.00  0.00    +0.230 C 
ATOM      2  O   UNL     1       6.936  -3.328  22.207  0.00  0.00    -0.283 OA
ENDROOT
BRANCH   1   8
ATOM      3  N   UNL     1      10.212  -5.679  25.660  0.00  0.00    -0.313 N 
ATOM      4  H   UNL     1      10.315  -6.369  24.929  0.00  0.00    +0.147 HD
ATOM      5  H   UNL     1      10.192  -6.062  26.599  0.00  0.00    +0.147 HD
ATOM      6  C   UNL     1       9.385  -4.660  25.429  0.00  0.00    +0.285 A 
ATOM      7  O   UNL     1       9.135  -4.380  24.125  0.00  0.00    -0.421 OA
ATOM      8  C   UNL     1       8.235  -3.344  24.159  0.00  0.00    +0.197 A 
ATOM      9  C   UNL     1       8.019  -3.056  25.489  0.00  0.00    +0.166 A 
ATOM     10  N   UNL     1       8.747  -3.907  26.286  0.00  0.00    -0.203 NA
ENDBRANCH   1   8
BRANCH   1  11
ATOM     11  C   UNL     1       8.084  -1.334  22.597  0.00  0.00    +0.026 A 
ATOM     12  C   UNL     1       9.321  -1.109  21.972  0.00  0.00    +0.012 A 
ATOM     13  C   UNL     1       9.678   0.176  21.553  0.00  0.00    +0.002 A 
ATOM     14  C   UNL     1       8.802   1.243  21.755  0.00  0.00    +0.015 A 
ATOM     15  C   UNL     1       7.592   1.027  22.409  0.00  0.00    +0.019 A 
ATOM     16 BR   UNL     1       6.397   2.467  22.674  0.00  0.00    -0.050 Br
ATOM     17  C   UNL     1       7.240  -0.247  22.853  0.00  0.00    +0.027 A 
ENDBRANCH   1  11
TORSDOF 2
ENDMDL
MODEL 4
REMARK VINA RESULT:      -5.8      3.047      3.326
REMARK  Name = 
REMARK  2 active torsions:
REMARK  status: ('A' for Active; 'I' for Inactive)
REMARK    1  A    between atoms: C_5  and  C_7
REMARK    2  A    between atoms: C_7  and  C_9
REMARK                            x       y       z     vdW  Elec       q    Type
REMARK                         _______ _______ _______ _____ _____    ______ ____
ROOT
ATOM      1  C   UNL     1       8.572  -2.855  23.217  0.00  0.00    +0.230 C 
ATOM      2  O   UNL     1       9.406  -3.485  23.864  0.00  0.00    -0.283 OA
ENDROOT
BRANCH   1   8
ATOM      3  N   UNL     1       5.823  -6.303  21.562  0.00  0.00    -0.313 N 
ATOM      4  H   UNL     1       6.599  -6.927  21.388  0.00  0.00    +0.147 HD
ATOM      5  H   UNL     1       5.038  -6.424  20.932  0.00  0.00    +0.147 HD
ATOM      6  C   UNL     1       6.110  -5.046  21.901  0.00  0.00    +0.285 A 
ATOM      7  O   UNL     1       7.342  -4.839  22.431  0.00  0.00    -0.421 OA
ATOM      8  C   UNL     1       7.405  -3.485  22.644  0.00  0.00    +0.197 A 
ATOM      9  C   UNL     1       6.192  -2.968  22.244  0.00  0.00    +0.166 A 
ATOM     10  N   UNL     1       5.381  -3.970  21.763  0.00  0.00    -0.203 NA
ENDBRANCH   1   8
BRANCH   1  11
ATOM     11  C   UNL     1       8.833  -1.400  22.987  0.00  0.00    +0.026 A 
ATOM     12  C   UNL     1       9.352  -1.009  21.743  0.00  0.00    +0.012 A 
ATOM     13  C   UNL     1       9.545   0.344  21.451  0.00  0.00    +0.002 A 
ATOM     14  C   UNL     1       9.221   1.314  22.399  0.00  0.00    +0.015 A 
ATOM     15  C   UNL     1       8.742   0.925  23.648  0.00  0.00    +0.019 A 
ATOM     16 BR   UNL     1       8.290   2.237  24.931  0.00  0.00    -0.050 Br
ATOM     17  C   UNL     1       8.572  -0.423  23.956  0.00  0.00    +0.027 A 
ENDBRANCH   1  11
TORSDOF 2
ENDMDL
MODEL 5
REMARK VINA RESULT:      -5.7      5.205      6.634
REMARK  Name = 
REMARK  2 active torsions:
REMARK  status: ('A' for Active; 'I' for Inactive)
REMARK    1  A    between atoms: C_5  and  C_7
REMARK    2  A    between atoms: C_7  and  C_9
REMARK                            x       y       z     vdW  Elec       q    Type
REMARK                         _______ _______ _______ _____ _____    ______ ____
ROOT
ATOM      1  C   UNL     1       9.385   3.056  24.170  0.00  0.00    +0.230 C 
ATOM      2  O   UNL     1       8.543   3.194  25.055  0.00  0.00    -0.283 OA
ENDROOT
BRANCH   1   8
ATOM      3  N   UNL     1      13.567   4.923  23.070  0.00  0.00    -0.313 N 
ATOM      4  H   UNL     1      14.083   4.110  23.379  0.00  0.00    +0.147 HD
ATOM      5  H   UNL     1      14.066   5.800  23.169  0.00  0.00    +0.147 HD
ATOM      6  C   UNL     1      12.263   4.961  23.344  0.00  0.00    +0.285 A 
ATOM      7  O   UNL     1      11.667   3.763  23.570  0.00  0.00    -0.421 OA
ATOM      8  C   UNL     1      10.365   4.075  23.873  0.00  0.00    +0.197 A 
ATOM      9  C   UNL     1      10.261   5.446  23.788  0.00  0.00    +0.166 A 
ATOM     10  N   UNL     1      11.477   5.998  23.462  0.00  0.00    -0.203 NA
ENDBRANCH   1   8
BRANCH   1  11
ATOM     11  C   UNL     1       9.328   1.804  23.354  0.00  0.00    +0.026 A 
ATOM     12  C   UNL     1       9.096   1.921  21.975  0.00  0.00    +0.012 A 
ATOM     13  C   UNL     1       9.107   0.788  21.156  0.00  0.00    +0.002 A 
ATOM     14  C   UNL     1       9.349  -0.468  21.711  0.00  0.00    +0.015 A 
ATOM     15  C   UNL     1       9.541  -0.591  23.084  0.00  0.00    +0.019 A 
ATOM     16 BR   UNL     1       9.881  -2.291  23.838  0.00  0.00    -0.050 Br
ATOM     17  C   UNL     1       9.505   0.531  23.911  0.00  0.00    +0.027 A 
ENDBRANCH   1  11
TORSDOF 2
ENDMDL
MODEL 6
REMARK VINA RESULT:      -5.6      3.917      5.894
REMARK  Name = 
REMARK  2 active torsions:
REMARK  status: ('A' for Active; 'I' for Inactive)
REMARK    1  A    between atoms: C_5  and  C_7
REMARK    2  A    between atoms: C_7  and  C_9
REMARK                            x       y       z     vdW  Elec       q    Type
REMARK                         _______ _______ _______ _____ _____    ______ ____
ROOT
ATOM      1  C   UNL     1       9.183  -3.888  24.335  0.00  0.00    +0.230 C 
ATOM      2  O   UNL     1       9.955  -4.693  24.853  0.00  0.00    -0.283 OA
ENDROOT
BRANCH   1   8
ATOM      3  N   UNL     1       9.612   0.693  25.339  0.00  0.00    -0.313 N 
ATOM      4  H   UNL     1       8.894   0.671  26.051  0.00  0.00    +0.147 HD
ATOM      5  H   UNL     1       9.698   1.581  24.856  0.00  0.00    +0.147 HD
ATOM      6  C   UNL     1       9.764  -0.396  24.587  0.00  0.00    +0.285 A 
ATOM      7  O   UNL     1       9.304  -1.557  25.120  0.00  0.00    -0.421 OA
ATOM      8  C   UNL     1       9.529  -2.499  24.147  0.00  0.00    +0.197 A 
ATOM      9  C   UNL     1      10.132  -1.841  23.097  0.00  0.00    +0.166 A 
ATOM     10  N   UNL     1      10.265  -0.503  23.385  0.00  0.00    -0.203 NA
ENDBRANCH   1   8
BRANCH   1  11
ATOM     11  C   UNL     1       7.826  -4.386  23.950  0.00  0.00    +0.026 A 
ATOM     12  C   UNL     1       7.397  -4.186  22.628  0.00  0.00    +0.012 A 
ATOM     13  C   UNL     1       6.169  -4.696  22.198  0.00  0.00    +0.002 A 
ATOM     14  C   UNL     1       5.363  -5.409  23.085  0.00  0.00    +0.015 A 
ATOM     15  C   UNL     1       5.769  -5.575  24.406  0.00  0.00    +0.019 A 
ATOM     16 BR   UNL     1       4.684  -6.551  25.608  0.00  0.00    -0.050 Br
ATOM     17  C   UNL     1       6.980  -5.046  24.849  0.00  0.00    +0.027 A 
ENDBRANCH   1  11
TORSDOF 2
ENDMDL
MODEL 7
REMARK VINA RESULT:      -5.6      3.886      5.531
REMARK  Name = 
REMARK  2 active torsions:
REMARK  status: ('A' for Active; 'I' for Inactive)
REMARK    1  A    between atoms: C_5  and  C_7
REMARK    2  A    between atoms: C_7  and  C_9
REMARK                            x       y       z     vdW  Elec       q    Type
REMARK                         _______ _______ _______ _____ _____    ______ ____
ROOT
ATOM      1  C   UNL     1       9.443  -2.193  23.630  0.00  0.00    +0.230 C 
ATOM      2  O   UNL     1      10.353  -3.010  23.767  0.00  0.00    -0.283 OA
ENDROOT
BRANCH   1   8
ATOM      3  N   UNL     1      10.121   2.050  21.703  0.00  0.00    -0.313 N 
ATOM      4  H   UNL     1      10.398   1.672  20.807  0.00  0.00    +0.147 HD
ATOM      5  H   UNL     1      10.551   2.939  21.934  0.00  0.00    +0.147 HD
ATOM      6  C   UNL     1       9.976   1.194  22.713  0.00  0.00    +0.285 A 
ATOM      7  O   UNL     1       9.748  -0.099  22.369  0.00  0.00    -0.421 OA
ATOM      8  C   UNL     1       9.687  -0.771  23.564  0.00  0.00    +0.197 A 
ATOM      9  C   UNL     1       9.864   0.172  24.553  0.00  0.00    +0.166 A 
ATOM     10  N   UNL     1      10.057   1.415  23.998  0.00  0.00    -0.203 NA
ENDBRANCH   1   8
BRANCH   1  11
ATOM     11  C   UNL     1       8.044  -2.721  23.590  0.00  0.00    +0.026 A 
ATOM     12  C   UNL     1       7.178  -2.228  22.602  0.00  0.00    +0.012 A 
ATOM     13  C   UNL     1       5.884  -2.741  22.474  0.00  0.00    +0.002 A 
ATOM     14  C   UNL     1       5.449  -3.751  23.333  0.00  0.00    +0.015 A 
ATOM     15  C   UNL     1       6.294  -4.214  24.338  0.00  0.00    +0.019 A 
ATOM     16 BR   UNL     1       5.711  -5.590  25.496  0.00  0.00    -0.050 Br
ATOM     17  C   UNL     1       7.576  -3.688  24.488  0.00  0.00    +0.027 A 
ENDBRANCH   1  11
TORSDOF 2
ENDMDL
MODEL 8
REMARK VINA RESULT:      -5.5      2.205      2.748
REMARK  Name = 
REMARK  2 active torsions:
REMARK  status: ('A' for Active; 'I' for Inactive)
REMARK    1  A    between atoms: C_5  and  C_7
REMARK    2  A    between atoms: C_7  and  C_9
REMARK                            x       y       z     vdW  Elec       q    Type
REMARK                         _______ _______ _______ _____ _____    ______ ____
ROOT
ATOM      1  C   UNL     1       7.352  -3.205  22.935  0.00  0.00    +0.230 C 
ATOM      2  O   UNL     1       6.876  -3.656  21.895  0.00  0.00    -0.283 OA
ENDROOT
BRANCH   1   8
ATOM      3  N   UNL     1      10.377  -5.567  25.666  0.00  0.00    -0.313 N 
ATOM      4  H   UNL     1      11.107  -5.569  24.967  0.00  0.00    +0.147 HD
ATOM      5  H   UNL     1      10.386  -6.369  26.286  0.00  0.00    +0.147 HD
ATOM      6  C   UNL     1       9.173  -5.133  25.294  0.00  0.00    +0.285 A 
ATOM      7  O   UNL     1       9.143  -4.319  24.209  0.00  0.00    -0.421 OA
ATOM      8  C   UNL     1       7.810  -4.059  24.007  0.00  0.00    +0.197 A 
ATOM      9  C   UNL     1       7.126  -4.722  25.003  0.00  0.00    +0.166 A 
ATOM     10  N   UNL     1       8.003  -5.410  25.808  0.00  0.00    -0.203 NA
ENDBRANCH   1   8
BRANCH   1  11
ATOM     11  C   UNL     1       7.390  -1.717  23.087  0.00  0.00    +0.026 A 
ATOM     12  C   UNL     1       6.393  -1.105  23.861  0.00  0.00    +0.012 A 
ATOM     13  C   UNL     1       6.425   0.273  24.096  0.00  0.00    +0.002 A 
ATOM     14  C   UNL     1       7.454   1.046  23.558  0.00  0.00    +0.015 A 
ATOM     15  C   UNL     1       8.423   0.446  22.759  0.00  0.00    +0.019 A 
ATOM     16 BR   UNL     1       9.825   1.488  22.038  0.00  0.00    -0.050 Br
ATOM     17  C   UNL     1       8.382  -0.923  22.498  0.00  0.00    +0.027 A 
ENDBRANCH   1  11
TORSDOF 2
ENDMDL
MODEL 9
REMARK VINA RESULT:      -5.5      3.368      4.190
REMARK  Name = 
REMARK  2 active torsions:
REMARK  status: ('A' for Active; 'I' for Inactive)
REMARK    1  A    between atoms: C_5  and  C_7
REMARK    2  A    between atoms: C_7  and  C_9
REMARK                            x       y       z     vdW  Elec       q    Type
REMARK                         _______ _______ _______ _____ _____    ______ ____
ROOT
ATOM      1  C   UNL     1       8.289  -4.596  23.870  0.00  0.00    +0.230 C 
ATOM      2  O   UNL     1       9.118  -5.371  24.343  0.00  0.00    -0.283 OA
ENDROOT
BRANCH   1   8
ATOM      3  N   UNL     1       4.005  -6.398  23.105  0.00  0.00    -0.313 N 
ATOM      4  H   UNL     1       3.963  -6.851  24.008  0.00  0.00    +0.147 HD
ATOM      5  H   UNL     1       3.493  -6.876  22.372  0.00  0.00    +0.147 HD
ATOM      6  C   UNL     1       5.168  -5.856  22.744  0.00  0.00    +0.285 A 
ATOM      7  O   UNL     1       6.018  -5.542  23.755  0.00  0.00    -0.421 OA
ATOM      8  C   UNL     1       7.138  -5.057  23.128  0.00  0.00    +0.197 A 
ATOM      9  C   UNL     1       6.877  -5.093  21.775  0.00  0.00    +0.166 A 
ATOM     10  N   UNL     1       5.626  -5.614  21.544  0.00  0.00    -0.203 NA
ENDBRANCH   1   8
BRANCH   1  11
ATOM     11  C   UNL     1       8.542  -3.131  24.036  0.00  0.00    +0.026 A 
ATOM     12  C   UNL     1       8.536  -2.601  25.335  0.00  0.00    +0.012 A 
ATOM     13  C   UNL     1       8.840  -1.254  25.552  0.00  0.00    +0.002 A 
ATOM     14  C   UNL     1       9.150  -0.429  24.471  0.00  0.00    +0.015 A 
ATOM     15  C   UNL     1       9.119  -0.944  23.178  0.00  0.00    +0.019 A 
ATOM     16 BR   UNL     1       9.550   0.168  21.712  0.00  0.00    -0.050 Br
ATOM     17  C   UNL     1       8.791  -2.280  22.952  0.00  0.00    +0.027 A 
ENDBRANCH   1  11
TORSDOF 2
ENDMDL
