MODEL 1
REMARK VINA RESULT:      -6.8      0.000      0.000
REMARK  Name = 
REMARK  9 active torsions:
REMARK  status: ('A' for Active; 'I' for Inactive)
REMARK    1  A    between atoms: N_1  and  CA_2
REMARK    2  A    between atoms: CA_2  and  C_4
REMARK    3  A    between atoms: CA_2  and  C_6
REMARK    4  A    between atoms: C_4  and  O_5
REMARK    5  A    between atoms: N_8  and  C_9
REMARK    6  A    between atoms: C_11  and  C_13
REMARK    7  A    between atoms: C_13  and  O_14
REMARK    8  A    between atoms: C_16  and  N_21
REMARK    9  A    between atoms: C_18  and  O_20
REMARK                            x       y       z     vdW  Elec       q    Type
REMARK                         _______ _______ _______ _____ _____    ______ ____
ROOT
ATOM      1  C   UNL     1       8.949  -1.636  24.804  0.00  0.00    +0.137 C 
ATOM      2  C   UNL     1       8.997  -3.124  24.432  0.00  0.00    +0.187 C 
ATOM      3  C   UNL     1       8.574  -3.851  25.718  0.00  0.00    +0.253 C 
ATOM      4  O   UNL     1       8.304  -2.856  26.727  0.00  0.00    -0.346 OA
ATOM      5  C   UNL     1       8.043  -1.618  26.033  0.00  0.00    +0.169 C 
ENDROOT
BRANCH   3   6
ATOM      6  N   UNL     1       7.403  -4.699  25.549  0.00  0.00    -0.286 N 
ATOM      7  C   UNL     1       6.829  -5.458  26.533  0.00  0.00    +0.167 A 
ATOM      8  N   UNL     1       7.272  -5.647  27.790  0.00  0.00    -0.216 NA
ATOM      9  C   UNL     1       6.433  -6.464  28.467  0.00  0.00    +0.225 A 
ATOM     10  N   UNL     1       5.284  -7.035  28.041  0.00  0.00    -0.219 NA
ATOM     11  C   UNL     1       4.877  -6.788  26.775  0.00  0.00    +0.147 A 
ATOM     12  N   UNL     1       3.677  -7.341  26.348  0.00  0.00    -0.341 N 
ATOM     13  H   UNL     1       3.594  -7.397  25.338  0.00  0.00    +0.144 HD
ATOM     14  H   UNL     1       3.400  -8.146  26.893  0.00  0.00    +0.144 HD
ATOM     15  C   UNL     1       5.684  -5.986  25.957  0.00  0.00    +0.147 A 
ATOM     16  N   UNL     1       5.575  -5.596  24.639  0.00  0.00    -0.231 NA
ATOM     17  C   UNL     1       6.625  -4.831  24.428  0.00  0.00    +0.203 A 
ENDBRANCH   3   6
BRANCH   1  19
ATOM     18  C   UNL     1       9.352   0.085  23.054  0.00  0.00    +0.232 C 
ATOM     19  N   UNL     1       8.500  -0.780  23.712  0.00  0.00    -0.306 N 
ATOM     20  H   UNL     1       7.615  -0.971  23.245  0.00  0.00    +0.149 HD
ATOM     21  O   UNL     1      10.531   0.221  23.375  0.00  0.00    -0.274 OA
BRANCH  18  22
ATOM     22  CA  UNL     1       8.702   0.860  21.900  0.00  0.00    +0.163 C 
BRANCH  22  23
ATOM     23  N   UNL     1       9.627   1.934  21.462  0.00  0.00    -0.318 NA
ATOM     24  H1  UNL     1       9.068   2.765  21.257  0.00  0.00    +0.119 HD
ATOM     25  H2  UNL     1      10.159   2.212  22.296  0.00  0.00    +0.119 HD
ENDBRANCH  22  23
BRANCH  22  26
ATOM     26  C   UNL     1       7.346   1.417  22.364  0.00  0.00    +0.183 C 
BRANCH  26  27
ATOM     27  O   UNL     1       7.439   1.947  23.689  0.00  0.00    -0.393 OA
ATOM     28  H   UNL     1       8.218   2.542  23.683  0.00  0.00    +0.209 HD
ENDBRANCH  26  27
ENDBRANCH  22  26
ENDBRANCH  18  22
ENDBRANCH   1  19
BRANCH   2  29
ATOM     29  O   UNL     1      10.323  -3.485  24.019  0.00  0.00    -0.385 OA
ATOM     30  H   UNL     1      10.452  -3.084  23.137  0.00  0.00    +0.210 HD
ENDBRANCH   2  29
BRANCH   5  31
ATOM     31  C   UNL     1       8.301  -0.451  26.983  0.00  0.00    +0.189 C 
BRANCH  31  32
ATOM     32  O   UNL     1       8.247   0.777  26.254  0.00  0.00    -0.392 OA
ATOM     33  H   UNL     1       8.264   0.536  25.308  0.00  0.00    +0.210 HD
ENDBRANCH  31  32
ENDBRANCH   5  31
TORSDOF 9
ENDMDL
MODEL 2
REMARK VINA RESULT:      -6.7      1.752      2.196
REMARK  Name = 
REMARK  9 active torsions:
REMARK  status: ('A' for Active; 'I' for Inactive)
REMARK    1  A    between atoms: N_1  and  CA_2
REMARK    2  A    between atoms: CA_2  and  C_4
REMARK    3  A    between atoms: CA_2  and  C_6
REMARK    4  A    between atoms: C_4  and  O_5
REMARK    5  A    between atoms: N_8  and  C_9
REMARK    6  A    between atoms: C_11  and  C_13
REMARK    7  A    between atoms: C_13  and  O_14
REMARK    8  A    between atoms: C_16  and  N_21
REMARK    9  A    between atoms: C_18  and  O_20
REMARK                            x       y       z     vdW  Elec       q    Type
REMARK                         _______ _______ _______ _____ _____    ______ ____
ROOT
ATOM      1  C   UNL     1       9.102  -1.235  24.515  0.00  0.00    +0.137 C 
ATOM      2  C   UNL     1       9.226  -2.475  23.618  0.00  0.00    +0.187 C 
ATOM      3  C   UNL     1       8.578  -3.602  24.437  0.00  0.00    +0.253 C 
ATOM      4  O   UNL     1       8.119  -3.043  25.686  0.00  0.00    -0.346 OA
ATOM      5  C   UNL     1       7.983  -1.621  25.482  0.00  0.00    +0.169 C 
ENDROOT
BRANCH   3   6
ATOM      6  N   UNL     1       7.463  -4.246  23.758  0.00  0.00    -0.286 N 
ATOM      7  C   UNL     1       6.544  -5.069  24.354  0.00  0.00    +0.167 A 
ATOM      8  N   UNL     1       6.541  -5.514  25.624  0.00  0.00    -0.216 NA
ATOM      9  C   UNL     1       5.467  -6.309  25.841  0.00  0.00    +0.225 A 
ATOM     10  N   UNL     1       4.478  -6.645  24.983  0.00  0.00    -0.219 NA
ATOM     11  C   UNL     1       4.523  -6.146  23.726  0.00  0.00    +0.147 A 
ATOM     12  N   UNL     1       3.487  -6.457  22.855  0.00  0.00    -0.341 N 
ATOM     13  H   UNL     1       3.732  -6.339  21.877  0.00  0.00    +0.144 HD
ATOM     14  H   UNL     1       2.988  -7.294  23.123  0.00  0.00    +0.144 HD
ATOM     15  C   UNL     1       5.611  -5.339  23.365  0.00  0.00    +0.147 A 
ATOM     16  N   UNL     1       5.965  -4.732  22.179  0.00  0.00    -0.231 NA
ATOM     17  C   UNL     1       7.082  -4.092  22.450  0.00  0.00    +0.203 A 
ENDBRANCH   3   6
BRANCH   1  19
ATOM     18  C   UNL     1       9.693   1.090  23.860  0.00  0.00    +0.232 C 
ATOM     19  N   UNL     1       8.856  -0.004  23.771  0.00  0.00    -0.306 N 
ATOM     20  H   UNL     1       8.208  -0.004  22.987  0.00  0.00    +0.149 HD
ATOM     21  O   UNL     1      10.672   1.114  24.604  0.00  0.00    -0.274 OA
BRANCH  18  22
ATOM     22  CA  UNL     1       9.295   2.268  22.961  0.00  0.00    +0.163 C 
BRANCH  22  23
ATOM     23  N   UNL     1       9.807   2.021  21.590  0.00  0.00    -0.318 NA
ATOM     24  H1  UNL     1       9.679   1.028  21.381  0.00  0.00    +0.119 HD
ATOM     25  H2  UNL     1       9.146   2.480  20.952  0.00  0.00    +0.119 HD
ENDBRANCH  22  23
BRANCH  22  26
ATOM     26  C   UNL     1       9.846   3.572  23.560  0.00  0.00    +0.183 C 
BRANCH  26  27
ATOM     27  O   UNL     1      11.189   3.804  23.126  0.00  0.00    -0.393 OA
ATOM     28  H   UNL     1      11.283   3.317  22.279  0.00  0.00    +0.209 HD
ENDBRANCH  26  27
ENDBRANCH  22  26
ENDBRANCH  18  22
ENDBRANCH   1  19
BRANCH   2  29
ATOM     29  O   UNL     1      10.608  -2.740  23.336  0.00  0.00    -0.385 OA
ATOM     30  H   UNL     1      10.987  -1.896  23.020  0.00  0.00    +0.210 HD
ENDBRANCH   2  29
BRANCH   5  31
ATOM     31  C   UNL     1       8.055  -0.915  26.833  0.00  0.00    +0.189 C 
BRANCH  31  32
ATOM     32  O   UNL     1       9.334  -0.294  26.978  0.00  0.00    -0.392 OA
ATOM     33  H   UNL     1       9.442  -0.107  27.930  0.00  0.00    +0.210 HD
ENDBRANCH  31  32
ENDBRANCH   5  31
TORSDOF 9
ENDMDL
MODEL 3
REMARK VINA RESULT:      -6.6      2.748      7.571
REMARK  Name = 
REMARK  9 active torsions:
REMARK  status: ('A' for Active; 'I' for Inactive)
REMARK    1  A    between atoms: N_1  and  CA_2
REMARK    2  A    between atoms: CA_2  and  C_4
REMARK    3  A    between atoms: CA_2  and  C_6
REMARK    4  A    between atoms: C_4  and  O_5
REMARK    5  A    between atoms: N_8  and  C_9
REMARK    6  A    between atoms: C_11  and  C_13
REMARK    7  A    between atoms: C_13  and  O_14
REMARK    8  A    between atoms: C_16  and  N_21
REMARK    9  A    between atoms: C_18  and  O_20
REMARK                            x       y       z     vdW  Elec       q    Type
REMARK                         _______ _______ _______ _____ _____    ______ ____
ROOT
ATOM      1  C   UNL     1       6.530  -5.494  25.125  0.00  0.00    +0.137 C 
ATOM      2  C   UNL     1       7.844  -4.993  25.742  0.00  0.00    +0.187 C 
ATOM      3  C   UNL     1       8.501  -4.173  24.621  0.00  0.00    +0.253 C 
ATOM      4  O   UNL     1       7.627  -4.201  23.473  0.00  0.00    -0.346 OA
ATOM      5  C   UNL     1       6.309  -4.531  23.959  0.00  0.00    +0.169 C 
ENDROOT
BRANCH   3   6
ATOM      6  N   UNL     1       8.767  -2.790  24.992  0.00  0.00    -0.286 N 
ATOM      7  C   UNL     1       9.350  -1.853  24.181  0.00  0.00    +0.167 A 
ATOM      8  N   UNL     1       9.867  -2.037  22.951  0.00  0.00    -0.216 NA
ATOM      9  C   UNL     1      10.352  -0.871  22.467  0.00  0.00    +0.225 A 
ATOM     10  N   UNL     1      10.344   0.352  23.043  0.00  0.00    -0.219 NA
ATOM     11  C   UNL     1       9.787   0.479  24.269  0.00  0.00    +0.147 A 
ATOM     12  N   UNL     1       9.741   1.741  24.847  0.00  0.00    -0.341 N 
ATOM     13  H   UNL     1       9.625   1.721  25.854  0.00  0.00    +0.144 HD
ATOM     14  H   UNL     1      10.428   2.374  24.459  0.00  0.00    +0.144 HD
ATOM     15  C   UNL     1       9.284  -0.669  24.898  0.00  0.00    +0.147 A 
ATOM     16  N   UNL     1       8.713  -0.876  26.135  0.00  0.00    -0.231 NA
ATOM     17  C   UNL     1       8.422  -2.160  26.159  0.00  0.00    +0.203 A 
ENDBRANCH   3   6
BRANCH   1  19
ATOM     18  C   UNL     1       4.526  -6.593  26.106  0.00  0.00    +0.232 C 
ATOM     19  N   UNL     1       5.427  -5.547  26.078  0.00  0.00    -0.306 N 
ATOM     20  H   UNL     1       5.434  -4.947  26.901  0.00  0.00    +0.149 HD
ATOM     21  O   UNL     1       4.570  -7.522  25.302  0.00  0.00    -0.274 OA
BRANCH  18  22
ATOM     22  CA  UNL     1       3.471  -6.493  27.214  0.00  0.00    +0.163 C 
BRANCH  22  23
ATOM     23  N   UNL     1       2.865  -5.138  27.180  0.00  0.00    -0.318 NA
ATOM     24  H1  UNL     1       2.016  -5.160  27.750  0.00  0.00    +0.119 HD
ATOM     25  H2  UNL     1       3.492  -4.531  27.721  0.00  0.00    +0.119 HD
ENDBRANCH  22  23
BRANCH  22  26
ATOM     26  C   UNL     1       4.129  -6.799  28.570  0.00  0.00    +0.183 C 
BRANCH  26  27
ATOM     27  O   UNL     1       5.324  -7.564  28.394  0.00  0.00    -0.393 OA
ATOM     28  H   UNL     1       5.073  -8.495  28.572  0.00  0.00    +0.209 HD
ENDBRANCH  26  27
ENDBRANCH  22  26
ENDBRANCH  18  22
ENDBRANCH   1  19
BRANCH   2  29
ATOM     29  O   UNL     1       8.655  -6.108  26.140  0.00  0.00    -0.385 OA
ATOM     30  H   UNL     1       9.376  -5.738  26.688  0.00  0.00    +0.210 HD
ENDBRANCH   2  29
BRANCH   5  31
ATOM     31  C   UNL     1       5.488  -5.117  22.814  0.00  0.00    +0.189 C 
BRANCH  31  32
ATOM     32  O   UNL     1       5.592  -6.542  22.833  0.00  0.00    -0.392 OA
ATOM     33  H   UNL     1       4.885  -6.877  22.251  0.00  0.00    +0.210 HD
ENDBRANCH  31  32
ENDBRANCH   5  31
TORSDOF 9
ENDMDL
MODEL 4
REMARK VINA RESULT:      -6.6      2.340      7.294
REMARK  Name = 
REMARK  9 active torsions:
REMARK  status: ('A' for Active; 'I' for Inactive)
REMARK    1  A    between atoms: N_1  and  CA_2
REMARK    2  A    between atoms: CA_2  and  C_4
REMARK    3  A    between atoms: CA_2  and  C_6
REMARK    4  A    between atoms: C_4  and  O_5
REMARK    5  A    between atoms: N_8  and  C_9
REMARK    6  A    between atoms: C_11  and  C_13
REMARK    7  A    between atoms: C_13  and  O_14
REMARK    8  A    between atoms: C_16  and  N_21
REMARK    9  A    between atoms: C_18  and  O_20
REMARK                            x       y       z     vdW  Elec       q    Type
REMARK                         _______ _______ _______ _____ _____    ______ ____
ROOT
ATOM      1  C   UNL     1       6.860  -4.037  25.698  0.00  0.00    +0.137 C 
ATOM      2  C   UNL     1       6.582  -2.542  25.909  0.00  0.00    +0.187 C 
ATOM      3  C   UNL     1       7.945  -1.868  25.688  0.00  0.00    +0.253 C 
ATOM      4  O   UNL     1       8.907  -2.895  25.371  0.00  0.00    -0.346 OA
ATOM      5  C   UNL     1       8.161  -4.035  24.897  0.00  0.00    +0.169 C 
ENDROOT
BRANCH   3   6
ATOM      6  N   UNL     1       7.935  -0.871  24.627  0.00  0.00    -0.286 N 
ATOM      7  C   UNL     1       8.963  -0.013  24.340  0.00  0.00    +0.167 A 
ATOM      8  N   UNL     1      10.115   0.146  25.017  0.00  0.00    -0.216 NA
ATOM      9  C   UNL     1      10.883   1.089  24.425  0.00  0.00    +0.225 A 
ATOM     10  N   UNL     1      10.631   1.802  23.305  0.00  0.00    -0.219 NA
ATOM     11  C   UNL     1       9.466   1.580  22.652  0.00  0.00    +0.147 A 
ATOM     12  N   UNL     1       9.222   2.282  21.479  0.00  0.00    -0.341 N 
ATOM     13  H   UNL     1       8.240   2.322  21.229  0.00  0.00    +0.144 HD
ATOM     14  H   UNL     1       9.765   3.132  21.411  0.00  0.00    +0.144 HD
ATOM     15  C   UNL     1       8.564   0.652  23.191  0.00  0.00    +0.147 A 
ATOM     16  N   UNL     1       7.305   0.246  22.802  0.00  0.00    -0.231 NA
ATOM     17  C   UNL     1       6.957  -0.662  23.689  0.00  0.00    +0.203 A 
ENDBRANCH   3   6
BRANCH   1  19
ATOM     18  C   UNL     1       5.227  -5.909  25.576  0.00  0.00    +0.232 C 
ATOM     19  N   UNL     1       5.758  -4.746  25.056  0.00  0.00    -0.306 N 
ATOM     20  H   UNL     1       5.194  -4.278  24.350  0.00  0.00    +0.149 HD
ATOM     21  O   UNL     1       5.676  -6.445  26.587  0.00  0.00    -0.274 OA
BRANCH  18  22
ATOM     22  CA  UNL     1       4.041  -6.474  24.784  0.00  0.00    +0.163 C 
BRANCH  22  23
ATOM     23  N   UNL     1       4.540  -7.501  23.837  0.00  0.00    -0.318 NA
ATOM     24  H1  UNL     1       5.304  -8.004  24.293  0.00  0.00    +0.119 HD
ATOM     25  H2  UNL     1       3.801  -8.212  23.771  0.00  0.00    +0.119 HD
ENDBRANCH  22  23
BRANCH  22  26
ATOM     26  C   UNL     1       3.318  -5.324  24.064  0.00  0.00    +0.183 C 
BRANCH  26  27
ATOM     27  O   UNL     1       3.926  -5.055  22.798  0.00  0.00    -0.393 OA
ATOM     28  H   UNL     1       4.043  -4.082  22.759  0.00  0.00    +0.209 HD
ENDBRANCH  26  27
ENDBRANCH  22  26
ENDBRANCH  18  22
ENDBRANCH   1  19
BRANCH   2  29
ATOM     29  O   UNL     1       6.078  -2.318  27.234  0.00  0.00    -0.385 OA
ATOM     30  H   UNL     1       6.780  -1.835  27.713  0.00  0.00    +0.210 HD
ENDBRANCH   2  29
BRANCH   5  31
ATOM     31  C   UNL     1       9.006  -5.293  25.077  0.00  0.00    +0.189 C 
BRANCH  31  32
ATOM     32  O   UNL     1       8.586  -5.985  26.254  0.00  0.00    -0.392 OA
ATOM     33  H   UNL     1       7.641  -5.773  26.375  0.00  0.00    +0.210 HD
ENDBRANCH  31  32
ENDBRANCH   5  31
TORSDOF 9
ENDMDL
MODEL 5
REMARK VINA RESULT:      -6.5      2.437      7.663
REMARK  Name = 
REMARK  9 active torsions:
REMARK  status: ('A' for Active; 'I' for Inactive)
REMARK    1  A    between atoms: N_1  and  CA_2
REMARK    2  A    between atoms: CA_2  and  C_4
REMARK    3  A    between atoms: CA_2  and  C_6
REMARK    4  A    between atoms: C_4  and  O_5
REMARK    5  A    between atoms: N_8  and  C_9
REMARK    6  A    between atoms: C_11  and  C_13
REMARK    7  A    between atoms: C_13  and  O_14
REMARK    8  A    between atoms: C_16  and  N_21
REMARK    9  A    between atoms: C_18  and  O_20
REMARK                            x       y       z     vdW  Elec       q    Type
REMARK                         _______ _______ _______ _____ _____    ______ ____
ROOT
ATOM      1  C   UNL     1       7.126  -4.978  24.483  0.00  0.00    +0.137 C 
ATOM      2  C   UNL     1       7.807  -3.705  25.006  0.00  0.00    +0.187 C 
ATOM      3  C   UNL     1       8.188  -2.929  23.735  0.00  0.00    +0.253 C 
ATOM      4  O   UNL     1       7.751  -3.695  22.594  0.00  0.00    -0.346 OA
ATOM      5  C   UNL     1       6.721  -4.591  23.061  0.00  0.00    +0.169 C 
ENDROOT
BRANCH   3   6
ATOM      6  N   UNL     1       7.607  -1.595  23.673  0.00  0.00    -0.286 N 
ATOM      7  C   UNL     1       8.033  -0.587  22.850  0.00  0.00    +0.167 A 
ATOM      8  N   UNL     1       9.100  -0.590  22.029  0.00  0.00    -0.216 NA
ATOM      9  C   UNL     1       9.194   0.592  21.376  0.00  0.00    +0.225 A 
ATOM     10  N   UNL     1       8.376   1.665  21.450  0.00  0.00    -0.219 NA
ATOM     11  C   UNL     1       7.305   1.599  22.275  0.00  0.00    +0.147 A 
ATOM     12  N   UNL     1       6.441   2.685  22.323  0.00  0.00    -0.341 N 
ATOM     13  H   UNL     1       5.874   2.714  23.164  0.00  0.00    +0.144 HD
ATOM     14  H   UNL     1       6.873   3.544  22.010  0.00  0.00    +0.144 HD
ATOM     15  C   UNL     1       7.120   0.439  23.040  0.00  0.00    +0.147 A 
ATOM     16  N   UNL     1       6.179   0.089  23.984  0.00  0.00    -0.231 NA
ATOM     17  C   UNL     1       6.506  -1.134  24.346  0.00  0.00    +0.203 A 
ENDBRANCH   3   6
BRANCH   1  19
ATOM     18  C   UNL     1       6.217  -5.924  26.596  0.00  0.00    +0.232 C 
ATOM     19  N   UNL     1       6.022  -5.430  25.322  0.00  0.00    -0.306 N 
ATOM     20  H   UNL     1       5.065  -5.168  25.090  0.00  0.00    +0.149 HD
ATOM     21  O   UNL     1       7.337  -6.056  27.087  0.00  0.00    -0.274 OA
BRANCH  18  22
ATOM     22  CA  UNL     1       4.927  -6.297  27.336  0.00  0.00    +0.163 C 
BRANCH  22  23
ATOM     23  N   UNL     1       5.197  -7.463  28.214  0.00  0.00    -0.318 NA
ATOM     24  H1  UNL     1       5.536  -8.228  27.626  0.00  0.00    +0.119 HD
ATOM     25  H2  UNL     1       6.023  -7.215  28.772  0.00  0.00    +0.119 HD
ENDBRANCH  22  23
BRANCH  22  26
ATOM     26  C   UNL     1       3.819  -6.589  26.311  0.00  0.00    +0.183 C 
BRANCH  26  27
ATOM     27  O   UNL     1       4.096  -7.793  25.591  0.00  0.00    -0.393 OA
ATOM     28  H   UNL     1       4.447  -7.509  24.720  0.00  0.00    +0.209 HD
ENDBRANCH  26  27
ENDBRANCH  22  26
ENDBRANCH  18  22
ENDBRANCH   1  19
BRANCH   2  29
ATOM     29  O   UNL     1       8.957  -4.051  25.791  0.00  0.00    -0.385 OA
ATOM     30  H   UNL     1       9.467  -3.225  25.904  0.00  0.00    +0.210 HD
ENDBRANCH   2  29
BRANCH   5  31
ATOM     31  C   UNL     1       6.614  -5.772  22.100  0.00  0.00    +0.189 C 
BRANCH  31  32
ATOM     32  O   UNL     1       5.625  -6.686  22.577  0.00  0.00    -0.392 OA
ATOM     33  H   UNL     1       6.094  -7.327  23.145  0.00  0.00    +0.210 HD
ENDBRANCH  31  32
ENDBRANCH   5  31
TORSDOF 9
ENDMDL
MODEL 6
REMARK VINA RESULT:      -6.4      3.573      8.197
REMARK  Name = 
REMARK  9 active torsions:
REMARK  status: ('A' for Active; 'I' for Inactive)
REMARK    1  A    between atoms: N_1  and  CA_2
REMARK    2  A    between atoms: CA_2  and  C_4
REMARK    3  A    between atoms: CA_2  and  C_6
REMARK    4  A    between atoms: C_4  and  O_5
REMARK    5  A    between atoms: N_8  and  C_9
REMARK    6  A    between atoms: C_11  and  C_13
REMARK    7  A    between atoms: C_13  and  O_14
REMARK    8  A    between atoms: C_16  and  N_21
REMARK    9  A    between atoms: C_18  and  O_20
REMARK                            x       y       z     vdW  Elec       q    Type
REMARK                         _______ _______ _______ _____ _____    ______ ____
ROOT
ATOM      1  C   UNL     1       7.861  -1.484  23.449  0.00  0.00    +0.137 C 
ATOM      2  C   UNL     1       7.056  -0.332  24.068  0.00  0.00    +0.187 C 
ATOM      3  C   UNL     1       8.054   0.833  24.139  0.00  0.00    +0.253 C 
ATOM      4  O   UNL     1       9.313   0.380  23.599  0.00  0.00    -0.346 OA
ATOM      5  C   UNL     1       9.023  -0.764  22.768  0.00  0.00    +0.169 C 
ENDROOT
BRANCH   3   6
ATOM      6  N   UNL     1       7.617   2.018  23.415  0.00  0.00    -0.286 N 
ATOM      7  C   UNL     1       8.162   3.268  23.544  0.00  0.00    +0.167 A 
ATOM      8  N   UNL     1       9.116   3.665  24.406  0.00  0.00    -0.216 NA
ATOM      9  C   UNL     1       9.394   4.977  24.230  0.00  0.00    +0.225 A 
ATOM     10  N   UNL     1       8.866   5.839  23.333  0.00  0.00    -0.219 NA
ATOM     11  C   UNL     1       7.928   5.375  22.474  0.00  0.00    +0.147 A 
ATOM     12  N   UNL     1       7.413   6.248  21.525  0.00  0.00    -0.341 N 
ATOM     13  H   UNL     1       6.518   5.954  21.149  0.00  0.00    +0.144 HD
ATOM     14  H   UNL     1       7.524   7.219  21.785  0.00  0.00    +0.144 HD
ATOM     15  C   UNL     1       7.524   4.038  22.584  0.00  0.00    +0.147 A 
ATOM     16  N   UNL     1       6.580   3.294  21.908  0.00  0.00    -0.231 NA
ATOM     17  C   UNL     1       6.659   2.091  22.437  0.00  0.00    +0.203 A 
ENDBRANCH   3   6
BRANCH   1  19
ATOM     18  C   UNL     1       7.109  -3.708  22.629  0.00  0.00    +0.232 C 
ATOM     19  N   UNL     1       7.072  -2.330  22.560  0.00  0.00    -0.306 N 
ATOM     20  H   UNL     1       6.295  -1.933  22.036  0.00  0.00    +0.149 HD
ATOM     21  O   UNL     1       7.840  -4.311  23.413  0.00  0.00    -0.274 OA
BRANCH  18  22
ATOM     22  CA  UNL     1       6.169  -4.418  21.646  0.00  0.00    +0.163 C 
BRANCH  22  23
ATOM     23  N   UNL     1       4.822  -4.523  22.260  0.00  0.00    -0.318 NA
ATOM     24  H1  UNL     1       4.227  -3.807  21.837  0.00  0.00    +0.119 HD
ATOM     25  H2  UNL     1       4.416  -5.399  21.908  0.00  0.00    +0.119 HD
ENDBRANCH  22  23
BRANCH  22  26
ATOM     26  C   UNL     1       6.753  -5.795  21.290  0.00  0.00    +0.183 C 
BRANCH  26  27
ATOM     27  O   UNL     1       6.248  -6.804  22.168  0.00  0.00    -0.393 OA
ATOM     28  H   UNL     1       5.965  -6.334  22.981  0.00  0.00    +0.209 HD
ENDBRANCH  26  27
ENDBRANCH  22  26
ENDBRANCH  18  22
ENDBRANCH   1  19
BRANCH   2  29
ATOM     29  O   UNL     1       6.575  -0.711  25.366  0.00  0.00    -0.385 OA
ATOM     30  H   UNL     1       5.804  -0.137  25.548  0.00  0.00    +0.210 HD
ENDBRANCH   2  29
BRANCH   5  31
ATOM     31  C   UNL     1      10.285  -1.610  22.627  0.00  0.00    +0.189 C 
BRANCH  31  32
ATOM     32  O   UNL     1      10.238  -2.693  23.558  0.00  0.00    -0.392 OA
ATOM     33  H   UNL     1      10.947  -2.529  24.207  0.00  0.00    +0.210 HD
ENDBRANCH  31  32
ENDBRANCH   5  31
TORSDOF 9
ENDMDL
MODEL 7
REMARK VINA RESULT:      -6.4      1.901      2.923
REMARK  Name = 
REMARK  9 active torsions:
REMARK  status: ('A' for Active; 'I' for Inactive)
REMARK    1  A    between atoms: N_1  and  CA_2
REMARK    2  A    between atoms: CA_2  and  C_4
REMARK    3  A    between atoms: CA_2  and  C_6
REMARK    4  A    between atoms: C_4  and  O_5
REMARK    5  A    between atoms: N_8  and  C_9
REMARK    6  A    between atoms: C_11  and  C_13
REMARK    7  A    between atoms: C_13  and  O_14
REMARK    8  A    between atoms: C_16  and  N_21
REMARK    9  A    between atoms: C_18  and  O_20
REMARK                            x       y       z     vdW  Elec       q    Type
REMARK                         _______ _______ _______ _____ _____    ______ ____
ROOT
ATOM      1  C   UNL     1       7.971  -1.462  23.026  0.00  0.00    +0.137 C 
ATOM      2  C   UNL     1       6.807  -2.391  23.400  0.00  0.00    +0.187 C 
ATOM      3  C   UNL     1       7.472  -3.757  23.633  0.00  0.00    +0.253 C 
ATOM      4  O   UNL     1       8.891  -3.608  23.418  0.00  0.00    -0.346 OA
ATOM      5  C   UNL     1       9.191  -2.205  23.569  0.00  0.00    +0.169 C 
ENDROOT
BRANCH   3   6
ATOM      6  N   UNL     1       7.239  -4.296  24.966  0.00  0.00    -0.286 N 
ATOM      7  C   UNL     1       6.281  -5.221  25.286  0.00  0.00    +0.167 A 
ATOM      8  N   UNL     1       5.329  -5.731  24.483  0.00  0.00    -0.216 NA
ATOM      9  C   UNL     1       4.569  -6.622  25.162  0.00  0.00    +0.225 A 
ATOM     10  N   UNL     1       4.684  -7.024  26.447  0.00  0.00    -0.219 NA
ATOM     11  C   UNL     1       5.678  -6.494  27.198  0.00  0.00    +0.147 A 
ATOM     12  N   UNL     1       5.823  -6.935  28.507  0.00  0.00    -0.341 N 
ATOM     13  H   UNL     1       6.343  -6.292  29.094  0.00  0.00    +0.144 HD
ATOM     14  H   UNL     1       4.977  -7.342  28.879  0.00  0.00    +0.144 HD
ATOM     15  C   UNL     1       6.510  -5.526  26.619  0.00  0.00    +0.147 A 
ATOM     16  N   UNL     1       7.555  -4.780  27.120  0.00  0.00    -0.231 NA
ATOM     17  C   UNL     1       7.963  -4.049  26.103  0.00  0.00    +0.203 A 
ENDBRANCH   3   6
BRANCH   1  19
ATOM     18  C   UNL     1       8.235   1.003  22.829  0.00  0.00    +0.232 C 
ATOM     19  N   UNL     1       7.816  -0.105  23.538  0.00  0.00    -0.306 N 
ATOM     20  H   UNL     1       7.180   0.078  24.312  0.00  0.00    +0.149 HD
ATOM     21  O   UNL     1       8.804   0.915  21.743  0.00  0.00    -0.274 OA
BRANCH  18  22
ATOM     22  CA  UNL     1       7.935   2.344  23.512  0.00  0.00    +0.163 C 
BRANCH  22  23
ATOM     23  N   UNL     1       8.315   3.446  22.594  0.00  0.00    -0.318 NA
ATOM     24  H1  UNL     1       8.944   3.063  21.885  0.00  0.00    +0.119 HD
ATOM     25  H2  UNL     1       7.469   3.673  22.056  0.00  0.00    +0.119 HD
ENDBRANCH  22  23
BRANCH  22  26
ATOM     26  C   UNL     1       8.695   2.414  24.847  0.00  0.00    +0.183 C 
BRANCH  26  27
ATOM     27  O   UNL     1       9.787   1.490  24.860  0.00  0.00    -0.393 OA
ATOM     28  H   UNL     1      10.600   2.038  24.837  0.00  0.00    +0.209 HD
ENDBRANCH  26  27
ENDBRANCH  22  26
ENDBRANCH  18  22
ENDBRANCH   1  19
BRANCH   2  29
ATOM     29  O   UNL     1       5.850  -2.432  22.331  0.00  0.00    -0.385 OA
ATOM     30  H   UNL     1       5.975  -3.295  21.889  0.00  0.00    +0.210 HD
ENDBRANCH   2  29
BRANCH   5  31
ATOM     31  C   UNL     1      10.491  -1.892  22.832  0.00  0.00    +0.189 C 
BRANCH  31  32
ATOM     32  O   UNL     1      10.196  -1.517  21.485  0.00  0.00    -0.392 OA
ATOM     33  H   UNL     1      11.045  -1.523  21.006  0.00  0.00    +0.210 HD
ENDBRANCH  31  32
ENDBRANCH   5  31
TORSDOF 9
ENDMDL
MODEL 8
REMARK VINA RESULT:      -6.4      2.432      7.513
REMARK  Name = 
REMARK  9 active torsions:
REMARK  status: ('A' for Active; 'I' for Inactive)
REMARK    1  A    between atoms: N_1  and  CA_2
REMARK    2  A    between atoms: CA_2  and  C_4
REMARK    3  A    between atoms: CA_2  and  C_6
REMARK    4  A    between atoms: C_4  and  O_5
REMARK    5  A    between atoms: N_8  and  C_9
REMARK    6  A    between atoms: C_11  and  C_13
REMARK    7  A    between atoms: C_13  and  O_14
REMARK    8  A    between atoms: C_16  and  N_21
REMARK    9  A    between atoms: C_18  and  O_20
REMARK                            x       y       z     vdW  Elec       q    Type
REMARK                         _______ _______ _______ _____ _____    ______ ____
ROOT
ATOM      1  C   UNL     1       7.621  -4.105  23.899  0.00  0.00    +0.137 C 
ATOM      2  C   UNL     1       8.667  -2.996  24.086  0.00  0.00    +0.187 C 
ATOM      3  C   UNL     1       8.626  -2.209  22.767  0.00  0.00    +0.253 C 
ATOM      4  O   UNL     1       7.635  -2.817  21.913  0.00  0.00    -0.346 OA
ATOM      5  C   UNL     1       6.746  -3.564  22.769  0.00  0.00    +0.169 C 
ENDROOT
BRANCH   3   6
ATOM      6  N   UNL     1       8.312  -0.798  22.943  0.00  0.00    -0.286 N 
ATOM      7  C   UNL     1       9.194   0.159  23.371  0.00  0.00    +0.167 A 
ATOM      8  N   UNL     1      10.459  -0.018  23.795  0.00  0.00    -0.216 NA
ATOM      9  C   UNL     1      11.013   1.169  24.134  0.00  0.00    +0.225 A 
ATOM     10  N   UNL     1      10.467   2.404  24.069  0.00  0.00    -0.219 NA
ATOM     11  C   UNL     1       9.200   2.522  23.611  0.00  0.00    +0.147 A 
ATOM     12  N   UNL     1       8.651   3.793  23.505  0.00  0.00    -0.341 N 
ATOM     13  H   UNL     1       7.637   3.795  23.478  0.00  0.00    +0.144 HD
ATOM     14  H   UNL     1       9.113   4.469  24.099  0.00  0.00    +0.144 HD
ATOM     15  C   UNL     1       8.503   1.356  23.264  0.00  0.00    +0.147 A 
ATOM     16  N   UNL     1       7.215   1.140  22.822  0.00  0.00    -0.231 NA
ATOM     17  C   UNL     1       7.135  -0.162  22.646  0.00  0.00    +0.203 A 
ENDBRANCH   3   6
BRANCH   1  19
ATOM     18  C   UNL     1       7.394  -5.299  26.068  0.00  0.00    +0.232 C 
ATOM     19  N   UNL     1       6.894  -4.428  25.121  0.00  0.00    -0.306 N 
ATOM     20  H   UNL     1       6.120  -3.840  25.424  0.00  0.00    +0.149 HD
ATOM     21  O   UNL     1       8.462  -5.891  25.922  0.00  0.00    -0.274 OA
BRANCH  18  22
ATOM     22  CA  UNL     1       6.506  -5.468  27.307  0.00  0.00    +0.163 C 
BRANCH  22  23
ATOM     23  N   UNL     1       7.197  -6.351  28.279  0.00  0.00    -0.318 NA
ATOM     24  H1  UNL     1       7.893  -6.898  27.766  0.00  0.00    +0.119 HD
ATOM     25  H2  UNL     1       7.773  -5.735  28.865  0.00  0.00    +0.119 HD
ENDBRANCH  22  23
BRANCH  22  26
ATOM     26  C   UNL     1       5.141  -6.033  26.879  0.00  0.00    +0.183 C 
BRANCH  26  27
ATOM     27  O   UNL     1       5.243  -6.717  25.627  0.00  0.00    -0.393 OA
ATOM     28  H   UNL     1       4.826  -6.125  24.966  0.00  0.00    +0.209 HD
ENDBRANCH  26  27
ENDBRANCH  22  26
ENDBRANCH  18  22
ENDBRANCH   1  19
BRANCH   2  29
ATOM     29  O   UNL     1       9.958  -3.575  24.329  0.00  0.00    -0.385 OA
ATOM     30  H   UNL     1      10.481  -2.888  24.788  0.00  0.00    +0.210 HD
ENDBRANCH   2  29
BRANCH   5  31
ATOM     31  C   UNL     1       6.053  -4.645  21.944  0.00  0.00    +0.189 C 
BRANCH  31  32
ATOM     32  O   UNL     1       5.385  -5.556  22.819  0.00  0.00    -0.392 OA
ATOM     33  H   UNL     1       5.385  -5.140  23.702  0.00  0.00    +0.210 HD
ENDBRANCH  31  32
ENDBRANCH   5  31
TORSDOF 9
ENDMDL
MODEL 9
REMARK VINA RESULT:      -6.3      3.269      8.526
REMARK  Name = 
REMARK  9 active torsions:
REMARK  status: ('A' for Active; 'I' for Inactive)
REMARK    1  A    between atoms: N_1  and  CA_2
REMARK    2  A    between atoms: CA_2  and  C_4
REMARK    3  A    between atoms: CA_2  and  C_6
REMARK    4  A    between atoms: C_4  and  O_5
REMARK    5  A    between atoms: N_8  and  C_9
REMARK    6  A    between atoms: C_11  and  C_13
REMARK    7  A    between atoms: C_13  and  O_14
REMARK    8  A    between atoms: C_16  and  N_21
REMARK    9  A    between atoms: C_18  and  O_20
REMARK                            x       y       z     vdW  Elec       q    Type
REMARK                         _______ _______ _______ _____ _____    ______ ____
ROOT
ATOM      1  C   UNL     1       9.674  -0.412  23.768  0.00  0.00    +0.137 C 
ATOM      2  C   UNL     1       9.940   0.697  24.796  0.00  0.00    +0.187 C 
ATOM      3  C   UNL     1       9.960   1.989  23.965  0.00  0.00    +0.253 C 
ATOM      4  O   UNL     1       9.717   1.639  22.586  0.00  0.00    -0.346 OA
ATOM      5  C   UNL     1       9.068   0.351  22.590  0.00  0.00    +0.169 C 
ENDROOT
BRANCH   3   6
ATOM      6  N   UNL     1       8.975   2.972  24.395  0.00  0.00    -0.286 N 
ATOM      7  C   UNL     1       9.076   4.324  24.205  0.00  0.00    +0.167 A 
ATOM      8  N   UNL     1      10.113   5.008  23.688  0.00  0.00    -0.216 NA
ATOM      9  C   UNL     1       9.838   6.332  23.661  0.00  0.00    +0.225 A 
ATOM     10  N   UNL     1       8.710   6.968  24.049  0.00  0.00    -0.219 NA
ATOM     11  C   UNL     1       7.691   6.224  24.538  0.00  0.00    +0.147 A 
ATOM     12  N   UNL     1       6.516   6.871  24.900  0.00  0.00    -0.341 N 
ATOM     13  H   UNL     1       5.941   6.335  25.541  0.00  0.00    +0.144 HD
ATOM     14  H   UNL     1       6.653   7.854  25.091  0.00  0.00    +0.144 HD
ATOM     15  C   UNL     1       7.870   4.839  24.655  0.00  0.00    +0.147 A 
ATOM     16  N   UNL     1       7.062   3.836  25.147  0.00  0.00    -0.231 NA
ATOM     17  C   UNL     1       7.760   2.732  24.981  0.00  0.00    +0.203 A 
ENDBRANCH   3   6
BRANCH   1  19
ATOM     18  C   UNL     1       9.256  -2.805  24.302  0.00  0.00    +0.232 C 
ATOM     19  N   UNL     1       8.836  -1.490  24.281  0.00  0.00    -0.306 N 
ATOM     20  H   UNL     1       8.026  -1.274  24.859  0.00  0.00    +0.149 HD
ATOM     21  O   UNL     1      10.343  -3.157  23.849  0.00  0.00    -0.274 OA
BRANCH  18  22
ATOM     22  CA  UNL     1       8.253  -3.781  24.929  0.00  0.00    +0.163 C 
BRANCH  22  23
ATOM     23  N   UNL     1       7.345  -3.027  25.828  0.00  0.00    -0.318 NA
ATOM     24  H1  UNL     1       6.387  -3.325  25.628  0.00  0.00    +0.119 HD
ATOM     25  H2  UNL     1       7.510  -3.393  26.773  0.00  0.00    +0.119 HD
ENDBRANCH  22  23
BRANCH  22  26
ATOM     26  C   UNL     1       9.020  -4.886  25.674  0.00  0.00    +0.183 C 
BRANCH  26  27
ATOM     27  O   UNL     1       9.717  -5.731  24.754  0.00  0.00    -0.393 OA
ATOM     28  H   UNL     1      10.635  -5.388  24.721  0.00  0.00    +0.209 HD
ENDBRANCH  26  27
ENDBRANCH  22  26
ENDBRANCH  18  22
ENDBRANCH   1  19
BRANCH   2  29
ATOM     29  O   UNL     1      11.191   0.462  25.459  0.00  0.00    -0.385 OA
ATOM     30  H   UNL     1      11.055   0.715  26.393  0.00  0.00    +0.210 HD
ENDBRANCH   2  29
BRANCH   5  31
ATOM     31  C   UNL     1       9.284  -0.319  21.236  0.00  0.00    +0.189 C 
BRANCH  31  32
ATOM     32  O   UNL     1      10.151  -1.445  21.394  0.00  0.00    -0.392 OA
ATOM     33  H   UNL     1      10.780  -1.209  22.102  0.00  0.00    +0.210 HD
ENDBRANCH  31  32
ENDBRANCH   5  31
TORSDOF 9
ENDMDL
