MODEL 1
REMARK VINA RESULT:      -5.2      0.000      0.000
REMARK  Name = 
REMARK  14 active torsions:
REMARK  status: ('A' for Active; 'I' for Inactive)
REMARK    1  A    between atoms: C_2  and  C_3
REMARK    2  A    between atoms: C_2  and  C_11
REMARK    3  A    between atoms: C_2  and  O_17
REMARK    4  A    between atoms: C_3  and  O_4
REMARK    5  A    between atoms: O_4  and  C_5
REMARK    6  A    between atoms: C_5  and  C_7
REMARK    7  A    between atoms: C_7  and  C_8
REMARK    8  A    between atoms: C_8  and  C_9
REMARK    9  A    between atoms: C_9  and  C_10
REMARK   10  A    between atoms: C_11  and  O_12
REMARK   11  A    between atoms: O_12  and  P_13
REMARK   12  A    between atoms: P_13  and  O_14
REMARK   13  A    between atoms: P_13  and  O_15
REMARK   14  A    between atoms: O_17  and  C_18
REMARK                            x       y       z     vdW  Elec       q    Type
REMARK                         _______ _______ _______ _____ _____    ______ ____
ROOT
ATOM      1  C   UNL     1       7.010  -3.792  22.802  0.00  0.00    +0.239 C 
ENDROOT
BRANCH   1   2
ATOM      2  O   UNL     1       6.142  -4.080  21.669  0.00  0.00    -0.458 OA
BRANCH   2   3
ATOM      3  C   UNL     1       6.151  -5.351  21.195  0.00  0.00    +0.446 C 
ATOM      4  O   UNL     1       5.964  -5.699  20.044  0.00  0.00    -0.255 OA
ENDBRANCH   2   3
ENDBRANCH   1   2
BRANCH   1   5
ATOM      5  C   UNL     1       7.665  -5.133  23.187  0.00  0.00    +0.220 C 
BRANCH   5   6
ATOM      6  O   UNL     1       8.750  -4.965  24.081  0.00  0.00    -0.283 OA
BRANCH   6   7
ATOM      7  P   UNL     1       8.370  -5.236  25.747  0.00  0.00    +0.472 P 
ATOM      8  O   UNL     1       8.030  -5.477  27.238  0.00  0.00    -0.228 OA
BRANCH   7   9
ATOM      9  O   UNL     1       8.612  -3.636  25.961  0.00  0.00    -0.303 OA
ATOM     10  H   UNL     1       9.575  -3.510  25.849  0.00  0.00    +0.222 HD
ENDBRANCH   7   9
BRANCH   7  11
ATOM     11  O   UNL     1       9.938  -5.691  25.869  0.00  0.00    -0.303 OA
ATOM     12  H   UNL     1      10.177  -6.306  25.145  0.00  0.00    +0.222 HD
ENDBRANCH   7  11
ENDBRANCH   6   7
ENDBRANCH   5   6
ENDBRANCH   1   5
BRANCH   1  13
ATOM     13  C   UNL     1       8.036  -2.718  22.395  0.00  0.00    +0.279 C 
BRANCH  13  14
ATOM     14  O   UNL     1       8.446  -1.848  23.456  0.00  0.00    -0.461 OA
BRANCH  14  15
ATOM     15  C   UNL     1       9.758  -1.500  23.470  0.00  0.00    +0.307 C 
ATOM     16  O   UNL     1      10.598  -1.844  22.642  0.00  0.00    -0.251 OA
BRANCH  15  17
ATOM     17  C   UNL     1      10.030  -0.544  24.600  0.00  0.00    +0.120 C 
BRANCH  17  18
ATOM     18  C   UNL     1      10.909   0.593  24.087  0.00  0.00    +0.011 C 
BRANCH  18  19
ATOM     19  C   UNL     1      10.076   1.773  23.592  0.00  0.00    -0.003 C 
ATOM     20  C   UNL     1       9.992   1.791  22.074  0.00  0.00    +0.004 C 
ENDBRANCH  18  19
ENDBRANCH  17  18
ENDBRANCH  15  17
ENDBRANCH  14  15
ENDBRANCH  13  14
ENDBRANCH   1  13
TORSDOF 13
ENDMDL
MODEL 2
REMARK VINA RESULT:      -5.0      1.821      2.800
REMARK  Name = 
REMARK  14 active torsions:
REMARK  status: ('A' for Active; 'I' for Inactive)
REMARK    1  A    between atoms: C_2  and  C_3
REMARK    2  A    between atoms: C_2  and  C_11
REMARK    3  A    between atoms: C_2  and  O_17
REMARK    4  A    between atoms: C_3  and  O_4
REMARK    5  A    between atoms: O_4  and  C_5
REMARK    6  A    between atoms: C_5  and  C_7
REMARK    7  A    between atoms: C_7  and  C_8
REMARK    8  A    between atoms: C_8  and  C_9
REMARK    9  A    between atoms: C_9  and  C_10
REMARK   10  A    between atoms: C_11  and  O_12
REMARK   11  A    between atoms: O_12  and  P_13
REMARK   12  A    between atoms: P_13  and  O_14
REMARK   13  A    between atoms: P_13  and  O_15
REMARK   14  A    between atoms: O_17  and  C_18
REMARK                            x       y       z     vdW  Elec       q    Type
REMARK                         _______ _______ _______ _____ _____    ______ ____
ROOT
ATOM      1  C   UNL     1       8.536  -2.121  24.735  0.00  0.00    +0.239 C 
ENDROOT
BRANCH   1   2
ATOM      2  O   UNL     1       7.554  -1.713  23.741  0.00  0.00    -0.458 OA
BRANCH   2   3
ATOM      3  C   UNL     1       7.656  -2.271  22.509  0.00  0.00    +0.446 C 
ATOM      4  O   UNL     1       7.049  -3.243  22.100  0.00  0.00    -0.255 OA
ENDBRANCH   2   3
ENDBRANCH   1   2
BRANCH   1   5
ATOM      5  C   UNL     1       9.723  -2.706  23.944  0.00  0.00    +0.220 C 
BRANCH   5   6
ATOM      6  O   UNL     1      10.126  -3.971  24.435  0.00  0.00    -0.283 OA
BRANCH   6   7
ATOM      7  P   UNL     1       8.900  -4.846  25.286  0.00  0.00    +0.472 P 
ATOM      8  O   UNL     1       7.803  -5.630  26.048  0.00  0.00    -0.228 OA
BRANCH   7   9
ATOM      9  O   UNL     1      10.061  -5.939  25.637  0.00  0.00    -0.303 OA
ATOM     10  H   UNL     1      10.408  -6.223  24.769  0.00  0.00    +0.222 HD
ENDBRANCH   7   9
BRANCH   7  11
ATOM     11  O   UNL     1       8.514  -5.435  23.809  0.00  0.00    -0.303 OA
ATOM     12  H   UNL     1       8.169  -4.722  23.232  0.00  0.00    +0.222 HD
ENDBRANCH   7  11
ENDBRANCH   6   7
ENDBRANCH   5   6
ENDBRANCH   1   5
BRANCH   1  13
ATOM     13  C   UNL     1       8.928  -0.903  25.591  0.00  0.00    +0.279 C 
BRANCH  13  14
ATOM     14  O   UNL     1       8.863   0.355  24.909  0.00  0.00    -0.461 OA
BRANCH  14  15
ATOM     15  C   UNL     1      10.052   0.897  24.542  0.00  0.00    +0.307 C 
ATOM     16  O   UNL     1      11.155   0.550  24.956  0.00  0.00    -0.251 OA
BRANCH  15  17
ATOM     17  C   UNL     1       9.842   1.935  23.471  0.00  0.00    +0.120 C 
BRANCH  17  18
ATOM     18  C   UNL     1       9.938   1.264  22.105  0.00  0.00    +0.011 C 
BRANCH  18  19
ATOM     19  C   UNL     1       8.616   1.338  21.343  0.00  0.00    -0.003 C 
ATOM     20  C   UNL     1       7.632   2.266  22.036  0.00  0.00    +0.004 C 
ENDBRANCH  18  19
ENDBRANCH  17  18
ENDBRANCH  15  17
ENDBRANCH  14  15
ENDBRANCH  13  14
ENDBRANCH   1  13
TORSDOF 13
ENDMDL
MODEL 3
REMARK VINA RESULT:      -5.0      1.332      1.701
REMARK  Name = 
REMARK  14 active torsions:
REMARK  status: ('A' for Active; 'I' for Inactive)
REMARK    1  A    between atoms: C_2  and  C_3
REMARK    2  A    between atoms: C_2  and  C_11
REMARK    3  A    between atoms: C_2  and  O_17
REMARK    4  A    between atoms: C_3  and  O_4
REMARK    5  A    between atoms: O_4  and  C_5
REMARK    6  A    between atoms: C_5  and  C_7
REMARK    7  A    between atoms: C_7  and  C_8
REMARK    8  A    between atoms: C_8  and  C_9
REMARK    9  A    between atoms: C_9  and  C_10
REMARK   10  A    between atoms: C_11  and  O_12
REMARK   11  A    between atoms: O_12  and  P_13
REMARK   12  A    between atoms: P_13  and  O_14
REMARK   13  A    between atoms: P_13  and  O_15
REMARK   14  A    between atoms: O_17  and  C_18
REMARK                            x       y       z     vdW  Elec       q    Type
REMARK                         _______ _______ _______ _____ _____    ______ ____
ROOT
ATOM      1  C   UNL     1       6.311  -3.874  22.716  0.00  0.00    +0.239 C 
ENDROOT
BRANCH   1   2
ATOM      2  O   UNL     1       7.156  -4.948  22.212  0.00  0.00    -0.458 OA
BRANCH   2   3
ATOM      3  C   UNL     1       6.595  -5.805  21.323  0.00  0.00    +0.446 C 
ATOM      4  O   UNL     1       5.954  -5.507  20.332  0.00  0.00    -0.255 OA
ENDBRANCH   2   3
ENDBRANCH   1   2
BRANCH   1   5
ATOM      5  C   UNL     1       6.037  -4.208  24.195  0.00  0.00    +0.220 C 
BRANCH   5   6
ATOM      6  O   UNL     1       6.976  -5.127  24.723  0.00  0.00    -0.283 OA
BRANCH   6   7
ATOM      7  P   UNL     1       8.166  -4.430  25.769  0.00  0.00    +0.472 P 
ATOM      8  O   UNL     1       9.231  -3.807  26.704  0.00  0.00    -0.228 OA
BRANCH   7   9
ATOM      9  O   UNL     1       9.207  -4.577  24.520  0.00  0.00    -0.303 OA
ATOM     10  H   UNL     1       8.703  -4.279  23.737  0.00  0.00    +0.222 HD
ENDBRANCH   7   9
BRANCH   7  11
ATOM     11  O   UNL     1       8.329  -5.954  26.342  0.00  0.00    -0.303 OA
ATOM     12  H   UNL     1       8.523  -6.579  25.614  0.00  0.00    +0.222 HD
ENDBRANCH   7  11
ENDBRANCH   6   7
ENDBRANCH   5   6
ENDBRANCH   1   5
BRANCH   1  13
ATOM     13  C   UNL     1       7.036  -2.529  22.529  0.00  0.00    +0.279 C 
BRANCH  13  14
ATOM     14  O   UNL     1       8.436  -2.636  22.248  0.00  0.00    -0.461 OA
BRANCH  14  15
ATOM     15  C   UNL     1       9.220  -1.636  22.726  0.00  0.00    +0.307 C 
ATOM     16  O   UNL     1       9.572  -1.500  23.895  0.00  0.00    -0.251 OA
BRANCH  15  17
ATOM     17  C   UNL     1       9.684  -0.754  21.597  0.00  0.00    +0.120 C 
BRANCH  17  18
ATOM     18  C   UNL     1       9.022   0.613  21.732  0.00  0.00    +0.011 C 
BRANCH  18  19
ATOM     19  C   UNL     1      10.042   1.708  22.044  0.00  0.00    -0.003 C 
ATOM     20  C   UNL     1       9.547   2.622  23.154  0.00  0.00    +0.004 C 
ENDBRANCH  18  19
ENDBRANCH  17  18
ENDBRANCH  15  17
ENDBRANCH  14  15
ENDBRANCH  13  14
ENDBRANCH   1  13
TORSDOF 13
ENDMDL
MODEL 4
REMARK VINA RESULT:      -5.0      1.207      1.303
REMARK  Name = 
REMARK  14 active torsions:
REMARK  status: ('A' for Active; 'I' for Inactive)
REMARK    1  A    between atoms: C_2  and  C_3
REMARK    2  A    between atoms: C_2  and  C_11
REMARK    3  A    between atoms: C_2  and  O_17
REMARK    4  A    between atoms: C_3  and  O_4
REMARK    5  A    between atoms: O_4  and  C_5
REMARK    6  A    between atoms: C_5  and  C_7
REMARK    7  A    between atoms: C_7  and  C_8
REMARK    8  A    between atoms: C_8  and  C_9
REMARK    9  A    between atoms: C_9  and  C_10
REMARK   10  A    between atoms: C_11  and  O_12
REMARK   11  A    between atoms: O_12  and  P_13
REMARK   12  A    between atoms: P_13  and  O_14
REMARK   13  A    between atoms: P_13  and  O_15
REMARK   14  A    between atoms: O_17  and  C_18
REMARK                            x       y       z     vdW  Elec       q    Type
REMARK                         _______ _______ _______ _____ _____    ______ ____
ROOT
ATOM      1  C   UNL     1       6.360  -3.700  22.883  0.00  0.00    +0.239 C 
ENDROOT
BRANCH   1   2
ATOM      2  O   UNL     1       7.083  -4.639  22.036  0.00  0.00    -0.458 OA
BRANCH   2   3
ATOM      3  C   UNL     1       6.341  -5.530  21.333  0.00  0.00    +0.446 C 
ATOM      4  O   UNL     1       6.006  -5.436  20.167  0.00  0.00    -0.255 OA
ENDBRANCH   2   3
ENDBRANCH   1   2
BRANCH   1   5
ATOM      5  C   UNL     1       6.005  -4.474  24.168  0.00  0.00    +0.220 C 
BRANCH   5   6
ATOM      6  O   UNL     1       7.124  -5.143  24.720  0.00  0.00    -0.283 OA
BRANCH   6   7
ATOM      7  P   UNL     1       7.132  -5.244  26.447  0.00  0.00    +0.472 P 
ATOM      8  O   UNL     1       7.140  -5.335  27.993  0.00  0.00    -0.228 OA
BRANCH   7   9
ATOM      9  O   UNL     1       7.553  -3.668  26.441  0.00  0.00    -0.303 OA
ATOM     10  H   UNL     1       7.225  -3.324  25.586  0.00  0.00    +0.222 HD
ENDBRANCH   7   9
BRANCH   7  11
ATOM     11  O   UNL     1       8.639  -5.852  26.249  0.00  0.00    -0.303 OA
ATOM     12  H   UNL     1       8.892  -6.406  27.017  0.00  0.00    +0.222 HD
ENDBRANCH   7  11
ENDBRANCH   6   7
ENDBRANCH   5   6
ENDBRANCH   1   5
BRANCH   1  13
ATOM     13  C   UNL     1       7.246  -2.470  23.148  0.00  0.00    +0.279 C 
BRANCH  13  14
ATOM     14  O   UNL     1       8.631  -2.647  22.827  0.00  0.00    -0.461 OA
BRANCH  14  15
ATOM     15  C   UNL     1       9.484  -2.711  23.881  0.00  0.00    +0.307 C 
ATOM     16  O   UNL     1       9.972  -3.738  24.346  0.00  0.00    -0.251 OA
BRANCH  15  17
ATOM     17  C   UNL     1       9.833  -1.323  24.352  0.00  0.00    +0.120 C 
BRANCH  17  18
ATOM     18  C   UNL     1      10.352  -0.514  23.167  0.00  0.00    +0.011 C 
BRANCH  18  19
ATOM     19  C   UNL     1      10.004   0.967  23.297  0.00  0.00    -0.003 C 
ATOM     20  C   UNL     1       9.957   1.644  21.937  0.00  0.00    +0.004 C 
ENDBRANCH  18  19
ENDBRANCH  17  18
ENDBRANCH  15  17
ENDBRANCH  14  15
ENDBRANCH  13  14
ENDBRANCH   1  13
TORSDOF 13
ENDMDL
MODEL 5
REMARK VINA RESULT:      -4.9      1.933      4.120
REMARK  Name = 
REMARK  14 active torsions:
REMARK  status: ('A' for Active; 'I' for Inactive)
REMARK    1  A    between atoms: C_2  and  C_3
REMARK    2  A    between atoms: C_2  and  C_11
REMARK    3  A    between atoms: C_2  and  O_17
REMARK    4  A    between atoms: C_3  and  O_4
REMARK    5  A    between atoms: O_4  and  C_5
REMARK    6  A    between atoms: C_5  and  C_7
REMARK    7  A    between atoms: C_7  and  C_8
REMARK    8  A    between atoms: C_8  and  C_9
REMARK    9  A    between atoms: C_9  and  C_10
REMARK   10  A    between atoms: C_11  and  O_12
REMARK   11  A    between atoms: O_12  and  P_13
REMARK   12  A    between atoms: P_13  and  O_14
REMARK   13  A    between atoms: P_13  and  O_15
REMARK   14  A    between atoms: O_17  and  C_18
REMARK                            x       y       z     vdW  Elec       q    Type
REMARK                         _______ _______ _______ _____ _____    ______ ____
ROOT
ATOM      1  C   UNL     1       8.535  -4.609  25.027  0.00  0.00    +0.239 C 
ENDROOT
BRANCH   1   2
ATOM      2  O   UNL     1       8.628  -4.809  26.466  0.00  0.00    -0.458 OA
BRANCH   2   3
ATOM      3  C   UNL     1       7.476  -5.099  27.122  0.00  0.00    +0.446 C 
ATOM      4  O   UNL     1       7.326  -5.939  27.989  0.00  0.00    -0.255 OA
ENDBRANCH   2   3
ENDBRANCH   1   2
BRANCH   1   5
ATOM      5  C   UNL     1       7.189  -5.226  24.598  0.00  0.00    +0.220 C 
BRANCH   5   6
ATOM      6  O   UNL     1       6.483  -4.400  23.690  0.00  0.00    -0.283 OA
BRANCH   6   7
ATOM      7  P   UNL     1       6.010  -5.176  22.217  0.00  0.00    +0.472 P 
ATOM      8  O   UNL     1       5.587  -5.869  20.899  0.00  0.00    -0.228 OA
BRANCH   7   9
ATOM      9  O   UNL     1       7.572  -5.049  21.763  0.00  0.00    -0.303 OA
ATOM     10  H   UNL     1       8.040  -4.729  22.560  0.00  0.00    +0.222 HD
ENDBRANCH   7   9
BRANCH   7  11
ATOM     11  O   UNL     1       5.548  -3.674  21.758  0.00  0.00    -0.303 OA
ATOM     12  H   UNL     1       5.820  -3.496  20.834  0.00  0.00    +0.222 HD
ENDBRANCH   7  11
ENDBRANCH   6   7
ENDBRANCH   5   6
ENDBRANCH   1   5
BRANCH   1  13
ATOM     13  C   UNL     1       8.632  -3.105  24.716  0.00  0.00    +0.279 C 
BRANCH  13  14
ATOM     14  O   UNL     1       9.651  -2.752  23.773  0.00  0.00    -0.461 OA
BRANCH  14  15
ATOM     15  C   UNL     1       9.252  -1.998  22.717  0.00  0.00    +0.307 C 
ATOM     16  O   UNL     1       8.220  -2.160  22.072  0.00  0.00    -0.251 OA
BRANCH  15  17
ATOM     17  C   UNL     1      10.212  -0.859  22.499  0.00  0.00    +0.120 C 
BRANCH  17  18
ATOM     18  C   UNL     1       9.559   0.173  21.586  0.00  0.00    +0.011 C 
BRANCH  18  19
ATOM     19  C   UNL     1       9.906   1.601  22.003  0.00  0.00    -0.003 C 
ATOM     20  C   UNL     1      10.333   1.661  23.461  0.00  0.00    +0.004 C 
ENDBRANCH  18  19
ENDBRANCH  17  18
ENDBRANCH  15  17
ENDBRANCH  14  15
ENDBRANCH  13  14
ENDBRANCH   1  13
TORSDOF 13
ENDMDL
MODEL 6
REMARK VINA RESULT:      -4.9      2.253      3.759
REMARK  Name = 
REMARK  14 active torsions:
REMARK  status: ('A' for Active; 'I' for Inactive)
REMARK    1  A    between atoms: C_2  and  C_3
REMARK    2  A    between atoms: C_2  and  C_11
REMARK    3  A    between atoms: C_2  and  O_17
REMARK    4  A    between atoms: C_3  and  O_4
REMARK    5  A    between atoms: O_4  and  C_5
REMARK    6  A    between atoms: C_5  and  C_7
REMARK    7  A    between atoms: C_7  and  C_8
REMARK    8  A    between atoms: C_8  and  C_9
REMARK    9  A    between atoms: C_9  and  C_10
REMARK   10  A    between atoms: C_11  and  O_12
REMARK   11  A    between atoms: O_12  and  P_13
REMARK   12  A    between atoms: P_13  and  O_14
REMARK   13  A    between atoms: P_13  and  O_15
REMARK   14  A    between atoms: O_17  and  C_18
REMARK                            x       y       z     vdW  Elec       q    Type
REMARK                         _______ _______ _______ _____ _____    ______ ____
ROOT
ATOM      1  C   UNL     1       8.356  -4.938  24.223  0.00  0.00    +0.239 C 
ENDROOT
BRANCH   1   2
ATOM      2  O   UNL     1       7.736  -5.623  25.349  0.00  0.00    -0.458 OA
BRANCH   2   3
ATOM      3  C   UNL     1       7.970  -5.113  26.583  0.00  0.00    +0.446 C 
ATOM      4  O   UNL     1       7.620  -5.593  27.645  0.00  0.00    -0.255 OA
ENDBRANCH   2   3
ENDBRANCH   1   2
BRANCH   1   5
ATOM      5  C   UNL     1       7.237  -4.731  23.183  0.00  0.00    +0.220 C 
BRANCH   5   6
ATOM      6  O   UNL     1       6.463  -5.900  22.985  0.00  0.00    -0.283 OA
BRANCH   6   7
ATOM      7  P   UNL     1       4.753  -5.640  22.931  0.00  0.00    +0.472 P 
ATOM      8  O   UNL     1       3.224  -5.408  22.883  0.00  0.00    -0.228 OA
BRANCH   7   9
ATOM      9  O   UNL     1       4.921  -4.882  24.366  0.00  0.00    -0.303 OA
ATOM     10  H   UNL     1       5.800  -5.158  24.694  0.00  0.00    +0.222 HD
ENDBRANCH   7   9
BRANCH   7  11
ATOM     11  O   UNL     1       4.660  -7.164  23.521  0.00  0.00    -0.303 OA
ATOM     12  H   UNL     1       5.470  -7.390  24.024  0.00  0.00    +0.222 HD
ENDBRANCH   7  11
ENDBRANCH   6   7
ENDBRANCH   5   6
ENDBRANCH   1   5
BRANCH   1  13
ATOM     13  C   UNL     1       8.973  -3.615  24.712  0.00  0.00    +0.279 C 
BRANCH  13  14
ATOM     14  O   UNL     1      10.172  -3.226  24.033  0.00  0.00    -0.461 OA
BRANCH  14  15
ATOM     15  C   UNL     1      10.131  -2.034  23.383  0.00  0.00    +0.307 C 
ATOM     16  O   UNL     1      10.336  -1.866  22.184  0.00  0.00    -0.251 OA
BRANCH  15  17
ATOM     17  C   UNL     1       9.701  -0.943  24.327  0.00  0.00    +0.120 C 
BRANCH  17  18
ATOM     18  C   UNL     1      10.586   0.280  24.108  0.00  0.00    +0.011 C 
BRANCH  18  19
ATOM     19  C   UNL     1       9.785   1.475  23.594  0.00  0.00    -0.003 C 
ATOM     20  C   UNL     1      10.020   1.698  22.108  0.00  0.00    +0.004 C 
ENDBRANCH  18  19
ENDBRANCH  17  18
ENDBRANCH  15  17
ENDBRANCH  14  15
ENDBRANCH  13  14
ENDBRANCH   1  13
TORSDOF 13
ENDMDL
MODEL 7
REMARK VINA RESULT:      -4.9      1.653      2.413
REMARK  Name = 
REMARK  14 active torsions:
REMARK  status: ('A' for Active; 'I' for Inactive)
REMARK    1  A    between atoms: C_2  and  C_3
REMARK    2  A    between atoms: C_2  and  C_11
REMARK    3  A    between atoms: C_2  and  O_17
REMARK    4  A    between atoms: C_3  and  O_4
REMARK    5  A    between atoms: O_4  and  C_5
REMARK    6  A    between atoms: C_5  and  C_7
REMARK    7  A    between atoms: C_7  and  C_8
REMARK    8  A    between atoms: C_8  and  C_9
REMARK    9  A    between atoms: C_9  and  C_10
REMARK   10  A    between atoms: C_11  and  O_12
REMARK   11  A    between atoms: O_12  and  P_13
REMARK   12  A    between atoms: P_13  and  O_14
REMARK   13  A    between atoms: P_13  and  O_15
REMARK   14  A    between atoms: O_17  and  C_18
REMARK                            x       y       z     vdW  Elec       q    Type
REMARK                         _______ _______ _______ _____ _____    ______ ____
ROOT
ATOM      1  C   UNL     1       7.079  -3.523  23.576  0.00  0.00    +0.239 C 
ENDROOT
BRANCH   1   2
ATOM      2  O   UNL     1       5.645  -3.537  23.829  0.00  0.00    -0.458 OA
BRANCH   2   3
ATOM      3  C   UNL     1       5.224  -3.008  25.005  0.00  0.00    +0.446 C 
ATOM      4  O   UNL     1       4.358  -2.165  25.153  0.00  0.00    -0.255 OA
ENDBRANCH   2   3
ENDBRANCH   1   2
BRANCH   1   5
ATOM      5  C   UNL     1       7.425  -4.918  23.018  0.00  0.00    +0.220 C 
BRANCH   5   6
ATOM      6  O   UNL     1       8.509  -5.518  23.703  0.00  0.00    -0.283 OA
BRANCH   6   7
ATOM      7  P   UNL     1       8.831  -4.864  25.272  0.00  0.00    +0.472 P 
ATOM      8  O   UNL     1       9.119  -4.278  26.676  0.00  0.00    -0.228 OA
BRANCH   7   9
ATOM      9  O   UNL     1      10.160  -4.187  24.610  0.00  0.00    -0.303 OA
ATOM     10  H   UNL     1      10.329  -3.388  25.148  0.00  0.00    +0.222 HD
ENDBRANCH   7   9
BRANCH   7  11
ATOM     11  O   UNL     1       9.487  -6.332  25.578  0.00  0.00    -0.303 OA
ATOM     12  H   UNL     1       9.550  -6.488  26.543  0.00  0.00    +0.222 HD
ENDBRANCH   7  11
ENDBRANCH   6   7
ENDBRANCH   5   6
ENDBRANCH   1   5
BRANCH   1  13
ATOM     13  C   UNL     1       7.410  -2.385  22.593  0.00  0.00    +0.279 C 
BRANCH  13  14
ATOM     14  O   UNL     1       8.358  -1.429  23.082  0.00  0.00    -0.461 OA
BRANCH  14  15
ATOM     15  C   UNL     1       9.521  -1.334  22.388  0.00  0.00    +0.307 C 
ATOM     16  O   UNL     1      10.529  -2.007  22.585  0.00  0.00    -0.251 OA
BRANCH  15  17
ATOM     17  C   UNL     1       9.375  -0.342  21.264  0.00  0.00    +0.120 C 
BRANCH  17  18
ATOM     18  C   UNL     1       8.968   1.008  21.844  0.00  0.00    +0.011 C 
BRANCH  18  19
ATOM     19  C   UNL     1      10.183   1.871  22.179  0.00  0.00    -0.003 C 
ATOM     20  C   UNL     1      10.273   2.141  23.672  0.00  0.00    +0.004 C 
ENDBRANCH  18  19
ENDBRANCH  17  18
ENDBRANCH  15  17
ENDBRANCH  14  15
ENDBRANCH  13  14
ENDBRANCH   1  13
TORSDOF 13
ENDMDL
MODEL 8
REMARK VINA RESULT:      -4.9      1.555      2.184
REMARK  Name = 
REMARK  14 active torsions:
REMARK  status: ('A' for Active; 'I' for Inactive)
REMARK    1  A    between atoms: C_2  and  C_3
REMARK    2  A    between atoms: C_2  and  C_11
REMARK    3  A    between atoms: C_2  and  O_17
REMARK    4  A    between atoms: C_3  and  O_4
REMARK    5  A    between atoms: O_4  and  C_5
REMARK    6  A    between atoms: C_5  and  C_7
REMARK    7  A    between atoms: C_7  and  C_8
REMARK    8  A    between atoms: C_8  and  C_9
REMARK    9  A    between atoms: C_9  and  C_10
REMARK   10  A    between atoms: C_11  and  O_12
REMARK   11  A    between atoms: O_12  and  P_13
REMARK   12  A    between atoms: P_13  and  O_14
REMARK   13  A    between atoms: P_13  and  O_15
REMARK   14  A    between atoms: O_17  and  C_18
REMARK                            x       y       z     vdW  Elec       q    Type
REMARK                         _______ _______ _______ _____ _____    ______ ____
ROOT
ATOM      1  C   UNL     1       8.107  -3.404  23.911  0.00  0.00    +0.239 C 
ENDROOT
BRANCH   1   2
ATOM      2  O   UNL     1       7.688  -3.376  22.517  0.00  0.00    -0.458 OA
BRANCH   2   3
ATOM      3  C   UNL     1       6.420  -2.966  22.265  0.00  0.00    +0.446 C 
ATOM      4  O   UNL     1       5.598  -3.534  21.570  0.00  0.00    -0.255 OA
ENDBRANCH   2   3
ENDBRANCH   1   2
BRANCH   1   5
ATOM      5  C   UNL     1       8.106  -4.889  24.324  0.00  0.00    +0.220 C 
BRANCH   5   6
ATOM      6  O   UNL     1       6.881  -5.283  24.915  0.00  0.00    -0.283 OA
BRANCH   6   7
ATOM      7  P   UNL     1       6.835  -5.167  26.641  0.00  0.00    +0.472 P 
ATOM      8  O   UNL     1       6.794  -5.064  28.185  0.00  0.00    -0.228 OA
BRANCH   7   9
ATOM      9  O   UNL     1       8.274  -5.936  26.633  0.00  0.00    -0.303 OA
ATOM     10  H   UNL     1       8.192  -6.630  27.317  0.00  0.00    +0.222 HD
ENDBRANCH   7   9
BRANCH   7  11
ATOM     11  O   UNL     1       5.895  -6.504  26.550  0.00  0.00    -0.303 OA
ATOM     12  H   UNL     1       6.350  -7.274  26.949  0.00  0.00    +0.222 HD
ENDBRANCH   7  11
ENDBRANCH   6   7
ENDBRANCH   5   6
ENDBRANCH   1   5
BRANCH   1  13
ATOM     13  C   UNL     1       9.494  -2.747  24.037  0.00  0.00    +0.279 C 
BRANCH  13  14
ATOM     14  O   UNL     1       9.535  -1.362  23.676  0.00  0.00    -0.461 OA
BRANCH  14  15
ATOM     15  C   UNL     1       9.815  -0.492  24.680  0.00  0.00    +0.307 C 
ATOM     16  O   UNL     1       9.399  -0.571  25.833  0.00  0.00    -0.251 OA
BRANCH  15  17
ATOM     17  C   UNL     1      10.797   0.548  24.208  0.00  0.00    +0.120 C 
BRANCH  17  18
ATOM     18  C   UNL     1      10.027   1.723  23.613  0.00  0.00    +0.011 C 
BRANCH  18  19
ATOM     19  C   UNL     1      10.056   1.705  22.086  0.00  0.00    -0.003 C 
ATOM     20  C   UNL     1       8.686   1.379  21.512  0.00  0.00    +0.004 C 
ENDBRANCH  18  19
ENDBRANCH  17  18
ENDBRANCH  15  17
ENDBRANCH  14  15
ENDBRANCH  13  14
ENDBRANCH   1  13
TORSDOF 13
ENDMDL
MODEL 9
REMARK VINA RESULT:      -4.9      1.678      2.428
REMARK  Name = 
REMARK  14 active torsions:
REMARK  status: ('A' for Active; 'I' for Inactive)
REMARK    1  A    between atoms: C_2  and  C_3
REMARK    2  A    between atoms: C_2  and  C_11
REMARK    3  A    between atoms: C_2  and  O_17
REMARK    4  A    between atoms: C_3  and  O_4
REMARK    5  A    between atoms: O_4  and  C_5
REMARK    6  A    between atoms: C_5  and  C_7
REMARK    7  A    between atoms: C_7  and  C_8
REMARK    8  A    between atoms: C_8  and  C_9
REMARK    9  A    between atoms: C_9  and  C_10
REMARK   10  A    between atoms: C_11  and  O_12
REMARK   11  A    between atoms: O_12  and  P_13
REMARK   12  A    between atoms: P_13  and  O_14
REMARK   13  A    between atoms: P_13  and  O_15
REMARK   14  A    between atoms: O_17  and  C_18
REMARK                            x       y       z     vdW  Elec       q    Type
REMARK                         _______ _______ _______ _____ _____    ______ ____
ROOT
ATOM      1  C   UNL     1       8.166  -1.943  22.823  0.00  0.00    +0.239 C 
ENDROOT
BRANCH   1   2
ATOM      2  O   UNL     1       7.356  -3.053  22.340  0.00  0.00    -0.458 OA
BRANCH   2   3
ATOM      3  C   UNL     1       6.017  -2.850  22.267  0.00  0.00    +0.446 C 
ATOM      4  O   UNL     1       5.175  -3.668  21.945  0.00  0.00    -0.255 OA
ENDBRANCH   2   3
ENDBRANCH   1   2
BRANCH   1   5
ATOM      5  C   UNL     1       8.815  -2.429  24.133  0.00  0.00    +0.220 C 
BRANCH   5   6
ATOM      6  O   UNL     1       9.268  -3.768  24.046  0.00  0.00    -0.283 OA
BRANCH   6   7
ATOM      7  P   UNL     1       8.665  -4.822  25.278  0.00  0.00    +0.472 P 
ATOM      8  O   UNL     1       8.126  -5.766  26.381  0.00  0.00    -0.228 OA
BRANCH   7   9
ATOM      9  O   UNL     1       9.873  -5.838  24.863  0.00  0.00    -0.303 OA
ATOM     10  H   UNL     1       9.471  -6.456  24.220  0.00  0.00    +0.222 HD
ENDBRANCH   7   9
BRANCH   7  11
ATOM     11  O   UNL     1       7.600  -5.300  24.131  0.00  0.00    -0.303 OA
ATOM     12  H   UNL     1       7.514  -6.275  24.124  0.00  0.00    +0.222 HD
ENDBRANCH   7  11
ENDBRANCH   6   7
ENDBRANCH   5   6
ENDBRANCH   1   5
BRANCH   1  13
ATOM     13  C   UNL     1       9.199  -1.563  21.746  0.00  0.00    +0.279 C 
BRANCH  13  14
ATOM     14  O   UNL     1      10.121  -0.539  22.136  0.00  0.00    -0.461 OA
BRANCH  14  15
ATOM     15  C   UNL     1       9.689   0.740  21.994  0.00  0.00    +0.307 C 
ATOM     16  O   UNL     1       8.833   1.121  21.199  0.00  0.00    -0.251 OA
BRANCH  15  17
ATOM     17  C   UNL     1      10.341   1.627  23.021  0.00  0.00    +0.120 C 
BRANCH  17  18
ATOM     18  C   UNL     1       9.924   1.162  24.413  0.00  0.00    +0.011 C 
BRANCH  18  19
ATOM     19  C   UNL     1       8.642   1.848  24.880  0.00  0.00    -0.003 C 
ATOM     20  C   UNL     1       8.715   3.353  24.673  0.00  0.00    +0.004 C 
ENDBRANCH  18  19
ENDBRANCH  17  18
ENDBRANCH  15  17
ENDBRANCH  14  15
ENDBRANCH  13  14
ENDBRANCH   1  13
TORSDOF 13
ENDMDL
