MODEL 1
REMARK VINA RESULT:      -5.3      0.000      0.000
REMARK  Name = 
REMARK  11 active torsions:
REMARK  status: ('A' for Active; 'I' for Inactive)
REMARK    1  A    between atoms: C_2  and  O_3
REMARK    2  A    between atoms: C_5  and  O_7
REMARK    3  A    between atoms: C_8  and  O_10
REMARK    4  A    between atoms: O_10  and  C_11
REMARK    5  A    between atoms: C_11  and  C_12
REMARK    6  A    between atoms: C_12  and  C_13
REMARK    7  A    between atoms: C_13  and  C_14
REMARK    8  A    between atoms: C_14  and  C_15
REMARK    9  A    between atoms: C_15  and  C_16
REMARK   10  A    between atoms: C_18  and  C_20
REMARK   11  A    between atoms: C_20  and  O_21
REMARK                            x       y       z     vdW  Elec       q    Type
REMARK                         _______ _______ _______ _____ _____    ______ ____
ROOT
ATOM      1  C   UNL     1      10.145   1.175  22.250  0.00  0.00    +0.148 C 
ATOM      2  C   UNL     1       9.974   1.052  23.779  0.00  0.00    +0.175 C 
ATOM      3  O   UNL     1      10.079  -0.317  24.205  0.00  0.00    -0.341 OA
ATOM      4  C   UNL     1       9.170  -1.230  23.576  0.00  0.00    +0.279 C 
ATOM      5  C   UNL     1       9.322  -1.186  22.038  0.00  0.00    +0.173 C 
ATOM      6  C   UNL     1       9.198   0.239  21.507  0.00  0.00    +0.070 C 
ENDROOT
BRANCH   5   7
ATOM      7  O   UNL     1      10.596  -1.707  21.632  0.00  0.00    -0.387 OA
ATOM      8  H   UNL     1      10.698  -1.533  20.676  0.00  0.00    +0.210 HD
ENDBRANCH   5   7
BRANCH   1   9
ATOM      9  O   UNL     1       9.939   2.518  21.810  0.00  0.00    -0.389 OA
ATOM     10  H   UNL     1       9.288   2.485  21.085  0.00  0.00    +0.210 HD
ENDBRANCH   1   9
BRANCH   2  11
ATOM     11  C   UNL     1       8.725   1.780  24.322  0.00  0.00    +0.190 C 
BRANCH  11  12
ATOM     12  O   UNL     1       8.444   1.432  25.675  0.00  0.00    -0.392 OA
ATOM     13  H   UNL     1       8.380   0.453  25.695  0.00  0.00    +0.210 HD
ENDBRANCH  11  12
ENDBRANCH   2  11
BRANCH   4  14
ATOM     14  O   UNL     1       7.818  -0.986  23.937  0.00  0.00    -0.349 OA
BRANCH  14  15
ATOM     15  C   UNL     1       7.103  -2.187  24.224  0.00  0.00    +0.163 C 
BRANCH  15  16
ATOM     16  C   UNL     1       6.026  -2.365  23.159  0.00  0.00    +0.028 C 
BRANCH  16  17
ATOM     17  C   UNL     1       6.442  -3.422  22.137  0.00  0.00    +0.002 C 
BRANCH  17  18
ATOM     18  C   UNL     1       7.422  -4.431  22.728  0.00  0.00    -0.000 C 
BRANCH  18  19
ATOM     19  C   UNL     1       7.227  -5.804  22.086  0.00  0.00    -0.003 C 
ATOM     20  C   UNL     1       6.178  -5.765  20.989  0.00  0.00    +0.004 C 
ENDBRANCH  18  19
ENDBRANCH  17  18
ENDBRANCH  16  17
ENDBRANCH  15  16
ENDBRANCH  14  15
ENDBRANCH   4  14
TORSDOF 10
ENDMDL
MODEL 2
REMARK VINA RESULT:      -5.2      0.616      1.018
REMARK  Name = 
REMARK  11 active torsions:
REMARK  status: ('A' for Active; 'I' for Inactive)
REMARK    1  A    between atoms: C_2  and  O_3
REMARK    2  A    between atoms: C_5  and  O_7
REMARK    3  A    between atoms: C_8  and  O_10
REMARK    4  A    between atoms: O_10  and  C_11
REMARK    5  A    between atoms: C_11  and  C_12
REMARK    6  A    between atoms: C_12  and  C_13
REMARK    7  A    between atoms: C_13  and  C_14
REMARK    8  A    between atoms: C_14  and  C_15
REMARK    9  A    between atoms: C_15  and  C_16
REMARK   10  A    between atoms: C_18  and  C_20
REMARK   11  A    between atoms: C_20  and  O_21
REMARK                            x       y       z     vdW  Elec       q    Type
REMARK                         _______ _______ _______ _____ _____    ______ ____
ROOT
ATOM      1  C   UNL     1      10.061   1.156  22.106  0.00  0.00    +0.148 C 
ATOM      2  C   UNL     1      10.057   1.139  23.648  0.00  0.00    +0.175 C 
ATOM      3  O   UNL     1      10.321  -0.180  24.155  0.00  0.00    -0.341 OA
ATOM      4  C   UNL     1       9.434  -1.206  23.692  0.00  0.00    +0.279 C 
ATOM      5  C   UNL     1       9.425  -1.271  22.147  0.00  0.00    +0.173 C 
ATOM      6  C   UNL     1       9.126   0.095  21.535  0.00  0.00    +0.070 C 
ENDROOT
BRANCH   5   7
ATOM      7  O   UNL     1      10.691  -1.721  21.644  0.00  0.00    -0.387 OA
ATOM      8  H   UNL     1      11.113  -2.260  22.340  0.00  0.00    +0.210 HD
ENDBRANCH   5   7
BRANCH   1   9
ATOM      9  O   UNL     1       9.698   2.441  21.598  0.00  0.00    -0.389 OA
ATOM     10  H   UNL     1      10.027   3.103  22.234  0.00  0.00    +0.210 HD
ENDBRANCH   1   9
BRANCH   2  11
ATOM     11  C   UNL     1       8.812   1.809  24.271  0.00  0.00    +0.190 C 
BRANCH  11  12
ATOM     12  O   UNL     1       8.674   1.506  25.657  0.00  0.00    -0.392 OA
ATOM     13  H   UNL     1       8.500   0.541  25.706  0.00  0.00    +0.210 HD
ENDBRANCH  11  12
ENDBRANCH   2  11
BRANCH   4  14
ATOM     14  O   UNL     1       8.110  -1.041  24.179  0.00  0.00    -0.349 OA
BRANCH  14  15
ATOM     15  C   UNL     1       7.349  -2.246  24.118  0.00  0.00    +0.163 C 
BRANCH  15  16
ATOM     16  C   UNL     1       8.104  -3.325  24.888  0.00  0.00    +0.028 C 
BRANCH  16  17
ATOM     17  C   UNL     1       8.101  -4.645  24.117  0.00  0.00    +0.002 C 
BRANCH  17  18
ATOM     18  C   UNL     1       7.452  -4.501  22.744  0.00  0.00    -0.000 C 
BRANCH  18  19
ATOM     19  C   UNL     1       6.601  -5.729  22.424  0.00  0.00    -0.003 C 
ATOM     20  C   UNL     1       6.214  -5.777  20.957  0.00  0.00    +0.004 C 
ENDBRANCH  18  19
ENDBRANCH  17  18
ENDBRANCH  16  17
ENDBRANCH  15  16
ENDBRANCH  14  15
ENDBRANCH   4  14
TORSDOF 10
ENDMDL
MODEL 3
REMARK VINA RESULT:      -5.0      3.071      6.227
REMARK  Name = 
REMARK  11 active torsions:
REMARK  status: ('A' for Active; 'I' for Inactive)
REMARK    1  A    between atoms: C_2  and  O_3
REMARK    2  A    between atoms: C_5  and  O_7
REMARK    3  A    between atoms: C_8  and  O_10
REMARK    4  A    between atoms: O_10  and  C_11
REMARK    5  A    between atoms: C_11  and  C_12
REMARK    6  A    between atoms: C_12  and  C_13
REMARK    7  A    between atoms: C_13  and  C_14
REMARK    8  A    between atoms: C_14  and  C_15
REMARK    9  A    between atoms: C_15  and  C_16
REMARK   10  A    between atoms: C_18  and  C_20
REMARK   11  A    between atoms: C_20  and  O_21
REMARK                            x       y       z     vdW  Elec       q    Type
REMARK                         _______ _______ _______ _____ _____    ______ ____
ROOT
ATOM      1  C   UNL     1       7.709  -5.261  26.613  0.00  0.00    +0.148 C 
ATOM      2  C   UNL     1       6.704  -5.188  25.444  0.00  0.00    +0.175 C 
ATOM      3  O   UNL     1       7.378  -5.244  24.175  0.00  0.00    -0.341 OA
ATOM      4  C   UNL     1       8.383  -4.243  23.967  0.00  0.00    +0.279 C 
ATOM      5  C   UNL     1       9.449  -4.293  25.086  0.00  0.00    +0.173 C 
ATOM      6  C   UNL     1       8.808  -4.214  26.469  0.00  0.00    +0.070 C 
ENDROOT
BRANCH   5   7
ATOM      7  O   UNL     1      10.214  -5.504  25.015  0.00  0.00    -0.387 OA
ATOM      8  H   UNL     1      10.409  -5.787  25.929  0.00  0.00    +0.210 HD
ENDBRANCH   5   7
BRANCH   1   9
ATOM      9  O   UNL     1       7.054  -5.102  27.872  0.00  0.00    -0.389 OA
ATOM     10  H   UNL     1       6.525  -5.908  28.023  0.00  0.00    +0.210 HD
ENDBRANCH   1   9
BRANCH   2  11
ATOM     11  C   UNL     1       5.698  -4.022  25.565  0.00  0.00    +0.190 C 
BRANCH  11  12
ATOM     12  O   UNL     1       4.990  -3.793  24.349  0.00  0.00    -0.392 OA
ATOM     13  H   UNL     1       5.052  -4.629  23.839  0.00  0.00    +0.210 HD
ENDBRANCH  11  12
ENDBRANCH   2  11
BRANCH   4  14
ATOM     14  O   UNL     1       7.838  -2.936  23.873  0.00  0.00    -0.349 OA
BRANCH  14  15
ATOM     15  C   UNL     1       8.077  -2.332  22.602  0.00  0.00    +0.163 C 
BRANCH  15  16
ATOM     16  C   UNL     1       9.189  -1.302  22.766  0.00  0.00    +0.028 C 
BRANCH  16  17
ATOM     17  C   UNL     1       9.431  -0.551  21.458  0.00  0.00    +0.002 C 
BRANCH  17  18
ATOM     18  C   UNL     1       8.983   0.906  21.546  0.00  0.00    -0.000 C 
BRANCH  18  19
ATOM     19  C   UNL     1      10.110   1.777  22.100  0.00  0.00    -0.003 C 
ATOM     20  C   UNL     1       9.681   2.517  23.355  0.00  0.00    +0.004 C 
ENDBRANCH  18  19
ENDBRANCH  17  18
ENDBRANCH  16  17
ENDBRANCH  15  16
ENDBRANCH  14  15
ENDBRANCH   4  14
TORSDOF 10
ENDMDL
MODEL 4
REMARK VINA RESULT:      -5.0      2.865      6.303
REMARK  Name = 
REMARK  11 active torsions:
REMARK  status: ('A' for Active; 'I' for Inactive)
REMARK    1  A    between atoms: C_2  and  O_3
REMARK    2  A    between atoms: C_5  and  O_7
REMARK    3  A    between atoms: C_8  and  O_10
REMARK    4  A    between atoms: O_10  and  C_11
REMARK    5  A    between atoms: C_11  and  C_12
REMARK    6  A    between atoms: C_12  and  C_13
REMARK    7  A    between atoms: C_13  and  C_14
REMARK    8  A    between atoms: C_14  and  C_15
REMARK    9  A    between atoms: C_15  and  C_16
REMARK   10  A    between atoms: C_18  and  C_20
REMARK   11  A    between atoms: C_20  and  O_21
REMARK                            x       y       z     vdW  Elec       q    Type
REMARK                         _______ _______ _______ _____ _____    ______ ____
ROOT
ATOM      1  C   UNL     1       6.215  -5.391  24.591  0.00  0.00    +0.148 C 
ATOM      2  C   UNL     1       7.166  -5.130  23.405  0.00  0.00    +0.175 C 
ATOM      3  O   UNL     1       8.542  -5.189  23.819  0.00  0.00    -0.341 OA
ATOM      4  C   UNL     1       8.902  -4.302  24.886  0.00  0.00    +0.279 C 
ATOM      5  C   UNL     1       8.010  -4.544  26.126  0.00  0.00    +0.173 C 
ATOM      6  C   UNL     1       6.528  -4.473  25.768  0.00  0.00    +0.070 C 
ENDROOT
BRANCH   5   7
ATOM      7  O   UNL     1       8.271  -5.830  26.705  0.00  0.00    -0.387 OA
ATOM      8  H   UNL     1       7.439  -6.341  26.683  0.00  0.00    +0.210 HD
ENDBRANCH   5   7
BRANCH   1   9
ATOM      9  O   UNL     1       4.848  -5.233  24.207  0.00  0.00    -0.389 OA
ATOM     10  H   UNL     1       4.397  -6.075  24.404  0.00  0.00    +0.210 HD
ENDBRANCH   1   9
BRANCH   2  11
ATOM     11  C   UNL     1       6.812  -3.864  22.594  0.00  0.00    +0.190 C 
BRANCH  11  12
ATOM     12  O   UNL     1       5.713  -4.080  21.712  0.00  0.00    -0.392 OA
ATOM     13  H   UNL     1       5.870  -4.954  21.293  0.00  0.00    +0.210 HD
ENDBRANCH  11  12
ENDBRANCH   2  11
BRANCH   4  14
ATOM     14  O   UNL     1       8.841  -2.937  24.502  0.00  0.00    -0.349 OA
BRANCH  14  15
ATOM     15  C   UNL     1      10.006  -2.515  23.794  0.00  0.00    +0.163 C 
BRANCH  15  16
ATOM     16  C   UNL     1       9.812  -1.058  23.384  0.00  0.00    +0.028 C 
BRANCH  16  17
ATOM     17  C   UNL     1       9.795  -0.919  21.863  0.00  0.00    +0.002 C 
BRANCH  17  18
ATOM     18  C   UNL     1       9.197   0.413  21.420  0.00  0.00    -0.000 C 
BRANCH  18  19
ATOM     19  C   UNL     1       9.968   1.577  22.040  0.00  0.00    -0.003 C 
ATOM     20  C   UNL     1       9.040   2.559  22.733  0.00  0.00    +0.004 C 
ENDBRANCH  18  19
ENDBRANCH  17  18
ENDBRANCH  16  17
ENDBRANCH  15  16
ENDBRANCH  14  15
ENDBRANCH   4  14
TORSDOF 10
ENDMDL
MODEL 5
REMARK VINA RESULT:      -4.9      2.915      6.494
REMARK  Name = 
REMARK  11 active torsions:
REMARK  status: ('A' for Active; 'I' for Inactive)
REMARK    1  A    between atoms: C_2  and  O_3
REMARK    2  A    between atoms: C_5  and  O_7
REMARK    3  A    between atoms: C_8  and  O_10
REMARK    4  A    between atoms: O_10  and  C_11
REMARK    5  A    between atoms: C_11  and  C_12
REMARK    6  A    between atoms: C_12  and  C_13
REMARK    7  A    between atoms: C_13  and  C_14
REMARK    8  A    between atoms: C_14  and  C_15
REMARK    9  A    between atoms: C_15  and  C_16
REMARK   10  A    between atoms: C_18  and  C_20
REMARK   11  A    between atoms: C_20  and  O_21
REMARK                            x       y       z     vdW  Elec       q    Type
REMARK                         _______ _______ _______ _____ _____    ______ ____
ROOT
ATOM      1  C   UNL     1       5.519  -6.100  23.295  0.00  0.00    +0.148 C 
ATOM      2  C   UNL     1       6.654  -6.139  22.250  0.00  0.00    +0.175 C 
ATOM      3  O   UNL     1       7.920  -5.804  22.844  0.00  0.00    -0.341 OA
ATOM      4  C   UNL     1       7.970  -4.538  23.515  0.00  0.00    +0.279 C 
ATOM      5  C   UNL     1       6.880  -4.452  24.610  0.00  0.00    +0.173 C 
ATOM      6  C   UNL     1       5.499  -4.773  24.046  0.00  0.00    +0.070 C 
ENDROOT
BRANCH   5   7
ATOM      7  O   UNL     1       7.152  -5.368  25.680  0.00  0.00    -0.387 OA
ATOM      8  H   UNL     1       8.058  -5.191  26.000  0.00  0.00    +0.210 HD
ENDBRANCH   5   7
BRANCH   1   9
ATOM      9  O   UNL     1       4.246  -6.331  22.690  0.00  0.00    -0.389 OA
ATOM     10  H   UNL     1       3.937  -5.476  22.338  0.00  0.00    +0.210 HD
ENDBRANCH   1   9
BRANCH   2  11
ATOM     11  C   UNL     1       6.338  -5.343  20.965  0.00  0.00    +0.190 C 
BRANCH  11  12
ATOM     12  O   UNL     1       5.511  -4.211  21.221  0.00  0.00    -0.392 OA
ATOM     13  H   UNL     1       5.811  -3.847  22.081  0.00  0.00    +0.210 HD
ENDBRANCH  11  12
ENDBRANCH   2  11
BRANCH   4  14
ATOM     14  O   UNL     1       7.846  -3.444  22.620  0.00  0.00    -0.349 OA
BRANCH  14  15
ATOM     15  C   UNL     1       8.107  -2.189  23.249  0.00  0.00    +0.163 C 
BRANCH  15  16
ATOM     16  C   UNL     1       9.603  -2.099  23.529  0.00  0.00    +0.028 C 
BRANCH  16  17
ATOM     17  C   UNL     1      10.334  -1.432  22.365  0.00  0.00    +0.002 C 
BRANCH  17  18
ATOM     18  C   UNL     1       9.410  -0.523  21.558  0.00  0.00    -0.000 C 
BRANCH  18  19
ATOM     19  C   UNL     1       9.726   0.945  21.842  0.00  0.00    -0.003 C 
ATOM     20  C   UNL     1       8.490   1.818  21.716  0.00  0.00    +0.004 C 
ENDBRANCH  18  19
ENDBRANCH  17  18
ENDBRANCH  16  17
ENDBRANCH  15  16
ENDBRANCH  14  15
ENDBRANCH   4  14
TORSDOF 10
ENDMDL
MODEL 6
REMARK VINA RESULT:      -4.9      1.535      2.520
REMARK  Name = 
REMARK  11 active torsions:
REMARK  status: ('A' for Active; 'I' for Inactive)
REMARK    1  A    between atoms: C_2  and  O_3
REMARK    2  A    between atoms: C_5  and  O_7
REMARK    3  A    between atoms: C_8  and  O_10
REMARK    4  A    between atoms: O_10  and  C_11
REMARK    5  A    between atoms: C_11  and  C_12
REMARK    6  A    between atoms: C_12  and  C_13
REMARK    7  A    between atoms: C_13  and  C_14
REMARK    8  A    between atoms: C_14  and  C_15
REMARK    9  A    between atoms: C_15  and  C_16
REMARK   10  A    between atoms: C_18  and  C_20
REMARK   11  A    between atoms: C_20  and  O_21
REMARK                            x       y       z     vdW  Elec       q    Type
REMARK                         _______ _______ _______ _____ _____    ______ ____
ROOT
ATOM      1  C   UNL     1       9.814   2.509  23.963  0.00  0.00    +0.148 C 
ATOM      2  C   UNL     1       8.375   2.299  23.448  0.00  0.00    +0.175 C 
ATOM      3  O   UNL     1       7.756   1.166  24.079  0.00  0.00    -0.341 OA
ATOM      4  C   UNL     1       8.464  -0.074  23.949  0.00  0.00    +0.279 C 
ATOM      5  C   UNL     1       9.907   0.057  24.491  0.00  0.00    +0.173 C 
ATOM      6  C   UNL     1      10.638   1.231  23.846  0.00  0.00    +0.070 C 
ENDROOT
BRANCH   5   7
ATOM      7  O   UNL     1       9.907   0.254  25.912  0.00  0.00    -0.387 OA
ATOM      8  H   UNL     1       9.111  -0.182  26.273  0.00  0.00    +0.210 HD
ENDBRANCH   5   7
BRANCH   1   9
ATOM      9  O   UNL     1      10.468   3.570  23.265  0.00  0.00    -0.389 OA
ATOM     10  H   UNL     1       9.771   4.168  22.936  0.00  0.00    +0.210 HD
ENDBRANCH   1   9
BRANCH   2  11
ATOM     11  C   UNL     1       8.264   2.293  21.907  0.00  0.00    +0.190 C 
BRANCH  11  12
ATOM     12  O   UNL     1       9.500   1.963  21.279  0.00  0.00    -0.392 OA
ATOM     13  H   UNL     1      10.203   2.327  21.859  0.00  0.00    +0.210 HD
ENDBRANCH  11  12
ENDBRANCH   2  11
BRANCH   4  14
ATOM     14  O   UNL     1       8.488  -0.548  22.612  0.00  0.00    -0.349 OA
BRANCH  14  15
ATOM     15  C   UNL     1       9.021  -1.869  22.508  0.00  0.00    +0.163 C 
BRANCH  15  16
ATOM     16  C   UNL     1       7.856  -2.853  22.507  0.00  0.00    +0.028 C 
BRANCH  16  17
ATOM     17  C   UNL     1       7.933  -3.787  23.713  0.00  0.00    +0.002 C 
BRANCH  17  18
ATOM     18  C   UNL     1       7.604  -5.230  23.338  0.00  0.00    -0.000 C 
BRANCH  18  19
ATOM     19  C   UNL     1       7.310  -5.338  21.842  0.00  0.00    -0.003 C 
ATOM     20  C   UNL     1       5.940  -5.939  21.582  0.00  0.00    +0.004 C 
ENDBRANCH  18  19
ENDBRANCH  17  18
ENDBRANCH  16  17
ENDBRANCH  15  16
ENDBRANCH  14  15
ENDBRANCH   4  14
TORSDOF 10
ENDMDL
MODEL 7
REMARK VINA RESULT:      -4.8      1.233      2.303
REMARK  Name = 
REMARK  11 active torsions:
REMARK  status: ('A' for Active; 'I' for Inactive)
REMARK    1  A    between atoms: C_2  and  O_3
REMARK    2  A    between atoms: C_5  and  O_7
REMARK    3  A    between atoms: C_8  and  O_10
REMARK    4  A    between atoms: O_10  and  C_11
REMARK    5  A    between atoms: C_11  and  C_12
REMARK    6  A    between atoms: C_12  and  C_13
REMARK    7  A    between atoms: C_13  and  C_14
REMARK    8  A    between atoms: C_14  and  C_15
REMARK    9  A    between atoms: C_15  and  C_16
REMARK   10  A    between atoms: C_18  and  C_20
REMARK   11  A    between atoms: C_20  and  O_21
REMARK                            x       y       z     vdW  Elec       q    Type
REMARK                         _______ _______ _______ _____ _____    ______ ____
ROOT
ATOM      1  C   UNL     1       9.392   2.215  24.364  0.00  0.00    +0.148 C 
ATOM      2  C   UNL     1       9.900   0.793  24.679  0.00  0.00    +0.175 C 
ATOM      3  O   UNL     1      10.581   0.221  23.549  0.00  0.00    -0.341 OA
ATOM      4  C   UNL     1       9.821   0.167  22.335  0.00  0.00    +0.279 C 
ATOM      5  C   UNL     1       9.316   1.574  21.939  0.00  0.00    +0.173 C 
ATOM      6  C   UNL     1       8.559   2.238  23.086  0.00  0.00    +0.070 C 
ENDROOT
BRANCH   5   7
ATOM      7  O   UNL     1      10.408   2.427  21.569  0.00  0.00    -0.387 OA
ATOM      8  H   UNL     1      11.141   1.857  21.264  0.00  0.00    +0.210 HD
ENDBRANCH   5   7
BRANCH   1   9
ATOM      9  O   UNL     1       8.627   2.746  25.447  0.00  0.00    -0.389 OA
ATOM     10  H   UNL     1       8.446   3.681  25.237  0.00  0.00    +0.210 HD
ENDBRANCH   1   9
BRANCH   2  11
ATOM     11  C   UNL     1       8.822  -0.129  25.290  0.00  0.00    +0.190 C 
BRANCH  11  12
ATOM     12  O   UNL     1       8.748  -0.006  26.708  0.00  0.00    -0.392 OA
ATOM     13  H   UNL     1       9.675  -0.024  27.029  0.00  0.00    +0.210 HD
ENDBRANCH  11  12
ENDBRANCH   2  11
BRANCH   4  14
ATOM     14  O   UNL     1       8.728  -0.735  22.418  0.00  0.00    -0.349 OA
BRANCH  14  15
ATOM     15  C   UNL     1       9.136  -2.100  22.326  0.00  0.00    +0.163 C 
BRANCH  15  16
ATOM     16  C   UNL     1       8.074  -2.961  23.003  0.00  0.00    +0.028 C 
BRANCH  16  17
ATOM     17  C   UNL     1       6.676  -2.405  22.742  0.00  0.00    +0.002 C 
BRANCH  17  18
ATOM     18  C   UNL     1       5.850  -3.334  21.856  0.00  0.00    -0.000 C 
BRANCH  18  19
ATOM     19  C   UNL     1       6.086  -4.792  22.247  0.00  0.00    -0.003 C 
ATOM     20  C   UNL     1       6.252  -5.679  21.026  0.00  0.00    +0.004 C 
ENDBRANCH  18  19
ENDBRANCH  17  18
ENDBRANCH  16  17
ENDBRANCH  15  16
ENDBRANCH  14  15
ENDBRANCH   4  14
TORSDOF 10
ENDMDL
MODEL 8
REMARK VINA RESULT:      -4.8      1.958      2.456
REMARK  Name = 
REMARK  11 active torsions:
REMARK  status: ('A' for Active; 'I' for Inactive)
REMARK    1  A    between atoms: C_2  and  O_3
REMARK    2  A    between atoms: C_5  and  O_7
REMARK    3  A    between atoms: C_8  and  O_10
REMARK    4  A    between atoms: O_10  and  C_11
REMARK    5  A    between atoms: C_11  and  C_12
REMARK    6  A    between atoms: C_12  and  C_13
REMARK    7  A    between atoms: C_13  and  C_14
REMARK    8  A    between atoms: C_14  and  C_15
REMARK    9  A    between atoms: C_15  and  C_16
REMARK   10  A    between atoms: C_18  and  C_20
REMARK   11  A    between atoms: C_20  and  O_21
REMARK                            x       y       z     vdW  Elec       q    Type
REMARK                         _______ _______ _______ _____ _____    ______ ____
ROOT
ATOM      1  C   UNL     1       7.783  -0.231  22.980  0.00  0.00    +0.148 C 
ATOM      2  C   UNL     1       8.396  -0.121  24.392  0.00  0.00    +0.175 C 
ATOM      3  O   UNL     1       9.706  -0.713  24.438  0.00  0.00    -0.341 OA
ATOM      4  C   UNL     1       9.778  -2.083  24.022  0.00  0.00    +0.279 C 
ATOM      5  C   UNL     1       9.216  -2.254  22.592  0.00  0.00    +0.173 C 
ATOM      6  C   UNL     1       7.812  -1.668  22.471  0.00  0.00    +0.070 C 
ENDROOT
BRANCH   5   7
ATOM      7  O   UNL     1      10.058  -1.605  21.628  0.00  0.00    -0.387 OA
ATOM      8  H   UNL     1       9.585  -0.813  21.305  0.00  0.00    +0.210 HD
ENDBRANCH   5   7
BRANCH   1   9
ATOM      9  O   UNL     1       6.443   0.262  22.954  0.00  0.00    -0.389 OA
ATOM     10  H   UNL     1       6.479   1.168  22.596  0.00  0.00    +0.210 HD
ENDBRANCH   1   9
BRANCH   2  11
ATOM     11  C   UNL     1       7.453  -0.606  25.515  0.00  0.00    +0.190 C 
BRANCH  11  12
ATOM     12  O   UNL     1       8.140  -0.801  26.749  0.00  0.00    -0.392 OA
ATOM     13  H   UNL     1       8.571  -1.680  26.681  0.00  0.00    +0.210 HD
ENDBRANCH  11  12
ENDBRANCH   2  11
BRANCH   4  14
ATOM     14  O   UNL     1       9.105  -2.958  24.916  0.00  0.00    -0.349 OA
BRANCH  14  15
ATOM     15  C   UNL     1       9.673  -4.267  24.931  0.00  0.00    +0.163 C 
BRANCH  15  16
ATOM     16  C   UNL     1       8.542  -5.278  24.771  0.00  0.00    +0.028 C 
BRANCH  16  17
ATOM     17  C   UNL     1       7.183  -4.580  24.793  0.00  0.00    +0.002 C 
BRANCH  17  18
ATOM     18  C   UNL     1       6.345  -4.927  23.565  0.00  0.00    -0.000 C 
BRANCH  18  19
ATOM     19  C   UNL     1       7.207  -5.618  22.509  0.00  0.00    -0.003 C 
ATOM     20  C   UNL     1       6.489  -5.714  21.175  0.00  0.00    +0.004 C 
ENDBRANCH  18  19
ENDBRANCH  17  18
ENDBRANCH  16  17
ENDBRANCH  15  16
ENDBRANCH  14  15
ENDBRANCH   4  14
TORSDOF 10
ENDMDL
MODEL 9
REMARK VINA RESULT:      -4.7      2.306      6.000
REMARK  Name = 
REMARK  11 active torsions:
REMARK  status: ('A' for Active; 'I' for Inactive)
REMARK    1  A    between atoms: C_2  and  O_3
REMARK    2  A    between atoms: C_5  and  O_7
REMARK    3  A    between atoms: C_8  and  O_10
REMARK    4  A    between atoms: O_10  and  C_11
REMARK    5  A    between atoms: C_11  and  C_12
REMARK    6  A    between atoms: C_12  and  C_13
REMARK    7  A    between atoms: C_13  and  C_14
REMARK    8  A    between atoms: C_14  and  C_15
REMARK    9  A    between atoms: C_15  and  C_16
REMARK   10  A    between atoms: C_18  and  C_20
REMARK   11  A    between atoms: C_20  and  O_21
REMARK                            x       y       z     vdW  Elec       q    Type
REMARK                         _______ _______ _______ _____ _____    ______ ____
ROOT
ATOM      1  C   UNL     1       5.442  -3.748  23.007  0.00  0.00    +0.148 C 
ATOM      2  C   UNL     1       6.444  -4.554  23.860  0.00  0.00    +0.175 C 
ATOM      3  O   UNL     1       6.922  -3.779  24.972  0.00  0.00    -0.341 OA
ATOM      4  C   UNL     1       7.529  -2.525  24.633  0.00  0.00    +0.279 C 
ATOM      5  C   UNL     1       6.555  -1.648  23.810  0.00  0.00    +0.173 C 
ATOM      6  C   UNL     1       6.021  -2.399  22.594  0.00  0.00    +0.070 C 
ENDROOT
BRANCH   5   7
ATOM      7  O   UNL     1       5.438  -1.233  24.608  0.00  0.00    -0.387 OA
ATOM      8  H   UNL     1       5.778  -0.981  25.489  0.00  0.00    +0.210 HD
ENDBRANCH   5   7
BRANCH   1   9
ATOM      9  O   UNL     1       5.042  -4.477  21.846  0.00  0.00    -0.389 OA
ATOM     10  H   UNL     1       4.205  -4.085  21.536  0.00  0.00    +0.210 HD
ENDBRANCH   1   9
BRANCH   2  11
ATOM     11  C   UNL     1       7.566  -5.218  23.033  0.00  0.00    +0.190 C 
BRANCH  11  12
ATOM     12  O   UNL     1       7.077  -6.274  22.209  0.00  0.00    -0.392 OA
ATOM     13  H   UNL     1       6.960  -7.047  22.803  0.00  0.00    +0.210 HD
ENDBRANCH  11  12
ENDBRANCH   2  11
BRANCH   4  14
ATOM     14  O   UNL     1       8.751  -2.685  23.928  0.00  0.00    -0.349 OA
BRANCH  14  15
ATOM     15  C   UNL     1       9.518  -1.482  23.882  0.00  0.00    +0.163 C 
BRANCH  15  16
ATOM     16  C   UNL     1      10.232  -1.425  22.535  0.00  0.00    +0.028 C 
BRANCH  16  17
ATOM     17  C   UNL     1       9.395  -0.665  21.508  0.00  0.00    +0.002 C 
BRANCH  17  18
ATOM     18  C   UNL     1       8.944   0.695  22.035  0.00  0.00    -0.000 C 
BRANCH  18  19
ATOM     19  C   UNL     1      10.119   1.671  22.069  0.00  0.00    -0.003 C 
ATOM     20  C   UNL     1       9.941   2.724  23.148  0.00  0.00    +0.004 C 
ENDBRANCH  18  19
ENDBRANCH  17  18
ENDBRANCH  16  17
ENDBRANCH  15  16
ENDBRANCH  14  15
ENDBRANCH   4  14
TORSDOF 10
ENDMDL
