MODEL 1
REMARK VINA RESULT:      -7.6      0.000      0.000
REMARK  Name = 
REMARK  6 active torsions:
REMARK  status: ('A' for Active; 'I' for Inactive)
REMARK    1  A    between atoms: O_1  and  C_2
REMARK    2  A    between atoms: C_2  and  C_3
REMARK    3  A    between atoms: C_3  and  C_4
REMARK    4  A    between atoms: N_7  and  C_10
REMARK    5  A    between atoms: C_10  and  C_19
REMARK    6  A    between atoms: C_14  and  O_15
REMARK                            x       y       z     vdW  Elec       q    Type
REMARK                         _______ _______ _______ _____ _____    ______ ____
ROOT
ATOM      1  C   UNL     1       7.821  -3.719  24.991  0.00  0.00    +0.203 C 
ATOM      2  C   UNL     1       8.787  -4.859  25.497  0.00  0.00    +0.274 C 
ATOM      3  O   UNL     1       9.885  -5.050  24.968  0.00  0.00    -0.271 OA
ATOM      4  N   UNL     1       8.379  -5.684  26.521  0.00  0.00    -0.129 NA
ATOM      5  C   UNL     1       7.414  -5.328  27.275  0.00  0.00    +0.278 C 
ATOM      6  N   UNL     1       6.683  -4.206  27.158  0.00  0.00    -0.240 N 
ATOM      7  H   UNL     1       5.862  -4.060  27.725  0.00  0.00    +0.159 HD
ATOM      8  C   UNL     1       6.649  -3.527  25.982  0.00  0.00    +0.255 C 
ATOM      9  O   UNL     1       5.618  -2.892  25.740  0.00  0.00    -0.272 OA
ENDROOT
BRANCH   1  13
ATOM     10  C   UNL     1       7.912  -0.328  22.787  0.00  0.00    -0.006 C 
ATOM     11  C   UNL     1       7.101  -0.557  24.073  0.00  0.00    +0.019 C 
ATOM     12  C   UNL     1       7.929  -1.165  25.201  0.00  0.00    +0.086 C 
ATOM     13  N   UNL     1       8.596  -2.419  24.841  0.00  0.00    -0.278 NA
ATOM     14  C   UNL     1       9.421  -2.253  23.640  0.00  0.00    +0.086 C 
ATOM     15  C   UNL     1       8.741  -1.573  22.442  0.00  0.00    +0.019 C 
BRANCH  10  16
ATOM     16  C   UNL     1       8.756   0.963  22.872  0.00  0.00    +0.031 C 
BRANCH  16  17
ATOM     17  C   UNL     1       9.917   1.021  21.879  0.00  0.00    +0.156 C 
BRANCH  17  18
ATOM     18  O   UNL     1      10.250   2.371  21.593  0.00  0.00    -0.395 OA
ATOM     19  H   UNL     1       9.880   2.578  20.718  0.00  0.00    +0.209 HD
ENDBRANCH  17  18
ENDBRANCH  16  17
ENDBRANCH  10  16
ENDBRANCH   1  13
BRANCH   1  20
ATOM     20  C   UNL     1       7.263  -4.249  23.632  0.00  0.00    -0.009 A 
ATOM     21  C   UNL     1       6.159  -3.622  23.013  0.00  0.00    +0.006 A 
ATOM     22  C   UNL     1       5.610  -4.120  21.830  0.00  0.00    +0.000 A 
ATOM     23  C   UNL     1       6.136  -5.267  21.251  0.00  0.00    +0.000 A 
ATOM     24  C   UNL     1       7.206  -5.921  21.857  0.00  0.00    +0.000 A 
ATOM     25  C   UNL     1       7.760  -5.424  23.042  0.00  0.00    +0.006 A 
ENDBRANCH   1  20
BRANCH   5  26
ATOM     26  O   UNL     1       7.044  -6.120  28.289  0.00  0.00    -0.483 OA
ATOM     27  H   UNL     1       7.221  -7.058  28.138  0.00  0.00    +0.295 HD
ENDBRANCH   5  26
TORSDOF 6
ENDMDL
MODEL 2
REMARK VINA RESULT:      -7.5      2.224      4.111
REMARK  Name = 
REMARK  6 active torsions:
REMARK  status: ('A' for Active; 'I' for Inactive)
REMARK    1  A    between atoms: O_1  and  C_2
REMARK    2  A    between atoms: C_2  and  C_3
REMARK    3  A    between atoms: C_3  and  C_4
REMARK    4  A    between atoms: N_7  and  C_10
REMARK    5  A    between atoms: C_10  and  C_19
REMARK    6  A    between atoms: C_14  and  O_15
REMARK                            x       y       z     vdW  Elec       q    Type
REMARK                         _______ _______ _______ _____ _____    ______ ____
ROOT
ATOM      1  C   UNL     1       6.734  -4.027  24.173  0.00  0.00    +0.203 C 
ATOM      2  C   UNL     1       5.379  -3.948  23.370  0.00  0.00    +0.274 C 
ATOM      3  O   UNL     1       4.523  -3.102  23.639  0.00  0.00    -0.271 OA
ATOM      4  N   UNL     1       5.129  -4.868  22.377  0.00  0.00    -0.129 NA
ATOM      5  C   UNL     1       6.092  -5.538  21.877  0.00  0.00    +0.278 C 
ATOM      6  N   UNL     1       7.381  -5.481  22.252  0.00  0.00    -0.240 N 
ATOM      7  H   UNL     1       8.058  -6.131  21.883  0.00  0.00    +0.159 HD
ATOM      8  C   UNL     1       7.724  -4.986  23.470  0.00  0.00    +0.255 C 
ATOM      9  O   UNL     1       8.753  -5.435  23.979  0.00  0.00    -0.272 OA
ENDROOT
BRANCH   1  13
ATOM     10  C   UNL     1       9.621  -1.699  22.554  0.00  0.00    -0.006 C 
ATOM     11  C   UNL     1       8.171  -1.827  22.061  0.00  0.00    +0.019 C 
ATOM     12  C   UNL     1       7.145  -1.696  23.183  0.00  0.00    +0.086 C 
ATOM     13  N   UNL     1       7.346  -2.638  24.286  0.00  0.00    -0.278 NA
ATOM     14  C   UNL     1       8.704  -2.535  24.828  0.00  0.00    +0.086 C 
ATOM     15  C   UNL     1       9.845  -2.566  23.802  0.00  0.00    +0.019 C 
BRANCH  10  16
ATOM     16  C   UNL     1      10.022  -0.222  22.758  0.00  0.00    +0.031 C 
BRANCH  16  17
ATOM     17  C   UNL     1       9.482   0.729  21.688  0.00  0.00    +0.156 C 
BRANCH  17  18
ATOM     18  O   UNL     1      10.213   1.946  21.702  0.00  0.00    -0.395 OA
ATOM     19  H   UNL     1       9.928   2.460  20.927  0.00  0.00    +0.209 HD
ENDBRANCH  17  18
ENDBRANCH  16  17
ENDBRANCH  10  16
ENDBRANCH   1  13
BRANCH   1  20
ATOM     20  C   UNL     1       6.337  -4.625  25.560  0.00  0.00    -0.009 A 
ATOM     21  C   UNL     1       5.748  -5.906  25.650  0.00  0.00    +0.006 A 
ATOM     22  C   UNL     1       5.331  -6.430  26.875  0.00  0.00    +0.000 A 
ATOM     23  C   UNL     1       5.473  -5.678  28.033  0.00  0.00    +0.000 A 
ATOM     24  C   UNL     1       6.025  -4.402  27.968  0.00  0.00    +0.000 A 
ATOM     25  C   UNL     1       6.445  -3.874  26.743  0.00  0.00    +0.006 A 
ENDBRANCH   1  20
BRANCH   5  26
ATOM     26  O   UNL     1       5.847  -6.408  20.889  0.00  0.00    -0.483 OA
ATOM     27  H   UNL     1       6.123  -7.313  21.086  0.00  0.00    +0.295 HD
ENDBRANCH   5  26
TORSDOF 6
ENDMDL
MODEL 3
REMARK VINA RESULT:      -7.4      2.019      2.898
REMARK  Name = 
REMARK  6 active torsions:
REMARK  status: ('A' for Active; 'I' for Inactive)
REMARK    1  A    between atoms: O_1  and  C_2
REMARK    2  A    between atoms: C_2  and  C_3
REMARK    3  A    between atoms: C_3  and  C_4
REMARK    4  A    between atoms: N_7  and  C_10
REMARK    5  A    between atoms: C_10  and  C_19
REMARK    6  A    between atoms: C_14  and  O_15
REMARK                            x       y       z     vdW  Elec       q    Type
REMARK                         _______ _______ _______ _____ _____    ______ ____
ROOT
ATOM      1  C   UNL     1       6.952  -3.925  24.347  0.00  0.00    +0.203 C 
ATOM      2  C   UNL     1       7.838  -4.975  23.572  0.00  0.00    +0.274 C 
ATOM      3  O   UNL     1       7.567  -5.313  22.417  0.00  0.00    -0.271 OA
ATOM      4  N   UNL     1       8.908  -5.558  24.212  0.00  0.00    -0.129 NA
ATOM      5  C   UNL     1       9.388  -5.018  25.263  0.00  0.00    +0.278 C 
ATOM      6  N   UNL     1       8.924  -3.916  25.876  0.00  0.00    -0.240 N 
ATOM      7  H   UNL     1       9.291  -3.625  26.769  0.00  0.00    +0.159 HD
ATOM      8  C   UNL     1       7.653  -3.489  25.655  0.00  0.00    +0.255 C 
ATOM      9  O   UNL     1       7.108  -2.877  26.578  0.00  0.00    -0.272 OA
ENDROOT
BRANCH   1  13
ATOM     10  C   UNL     1       8.299  -0.172  23.661  0.00  0.00    -0.006 C 
ATOM     11  C   UNL     1       8.825  -1.462  23.010  0.00  0.00    +0.019 C 
ATOM     12  C   UNL     1       7.712  -2.354  22.468  0.00  0.00    +0.086 C 
ATOM     13  N   UNL     1       6.699  -2.714  23.462  0.00  0.00    -0.278 NA
ATOM     14  C   UNL     1       6.128  -1.519  24.091  0.00  0.00    +0.086 C 
ATOM     15  C   UNL     1       7.135  -0.484  24.613  0.00  0.00    +0.019 C 
BRANCH  10  16
ATOM     16  C   UNL     1       7.951   0.895  22.601  0.00  0.00    +0.031 C 
BRANCH  16  17
ATOM     17  C   UNL     1       8.944   0.976  21.441  0.00  0.00    +0.156 C 
BRANCH  17  18
ATOM     18  O   UNL     1       9.626   2.222  21.467  0.00  0.00    -0.395 OA
ATOM     19  H   UNL     1       9.434   2.636  22.326  0.00  0.00    +0.209 HD
ENDBRANCH  17  18
ENDBRANCH  16  17
ENDBRANCH  10  16
ENDBRANCH   1  13
BRANCH   1  20
ATOM     20  C   UNL     1       5.642  -4.698  24.700  0.00  0.00    -0.009 A 
ATOM     21  C   UNL     1       5.657  -5.748  25.645  0.00  0.00    +0.006 A 
ATOM     22  C   UNL     1       4.508  -6.489  25.927  0.00  0.00    +0.000 A 
ATOM     23  C   UNL     1       3.324  -6.212  25.256  0.00  0.00    +0.000 A 
ATOM     24  C   UNL     1       3.289  -5.202  24.299  0.00  0.00    +0.000 A 
ATOM     25  C   UNL     1       4.438  -4.456  24.015  0.00  0.00    +0.006 A 
ENDBRANCH   1  20
BRANCH   5  26
ATOM     26  O   UNL     1      10.450  -5.572  25.862  0.00  0.00    -0.483 OA
ATOM     27  H   UNL     1      10.242  -6.021  26.692  0.00  0.00    +0.295 HD
ENDBRANCH   5  26
TORSDOF 6
ENDMDL
MODEL 4
REMARK VINA RESULT:      -7.3      1.944      2.854
REMARK  Name = 
REMARK  6 active torsions:
REMARK  status: ('A' for Active; 'I' for Inactive)
REMARK    1  A    between atoms: O_1  and  C_2
REMARK    2  A    between atoms: C_2  and  C_3
REMARK    3  A    between atoms: C_3  and  C_4
REMARK    4  A    between atoms: N_7  and  C_10
REMARK    5  A    between atoms: C_10  and  C_19
REMARK    6  A    between atoms: C_14  and  O_15
REMARK                            x       y       z     vdW  Elec       q    Type
REMARK                         _______ _______ _______ _____ _____    ______ ____
ROOT
ATOM      1  C   UNL     1       7.051  -3.541  24.320  0.00  0.00    +0.203 C 
ATOM      2  C   UNL     1       7.758  -4.742  23.580  0.00  0.00    +0.274 C 
ATOM      3  O   UNL     1       7.395  -5.106  22.458  0.00  0.00    -0.271 OA
ATOM      4  N   UNL     1       8.770  -5.424  24.216  0.00  0.00    -0.129 NA
ATOM      5  C   UNL     1       9.361  -4.893  25.213  0.00  0.00    +0.278 C 
ATOM      6  N   UNL     1       9.072  -3.707  25.773  0.00  0.00    -0.240 N 
ATOM      7  H   UNL     1       9.513  -3.417  26.633  0.00  0.00    +0.159 HD
ATOM      8  C   UNL     1       7.859  -3.128  25.572  0.00  0.00    +0.255 C 
ATOM      9  O   UNL     1       7.439  -2.398  26.473  0.00  0.00    -0.272 OA
ENDROOT
BRANCH   1  13
ATOM     10  C   UNL     1       9.198  -0.496  22.742  0.00  0.00    -0.006 C 
ATOM     11  C   UNL     1       9.076  -1.917  22.169  0.00  0.00    +0.019 C 
ATOM     12  C   UNL     1       7.633  -2.409  22.093  0.00  0.00    +0.086 C 
ATOM     13  N   UNL     1       6.919  -2.359  23.371  0.00  0.00    -0.278 NA
ATOM     14  C   UNL     1       6.965  -1.013  23.950  0.00  0.00    +0.086 C 
ATOM     15  C   UNL     1       8.350  -0.352  24.014  0.00  0.00    +0.019 C 
BRANCH  10  16
ATOM     16  C   UNL     1       8.883   0.574  21.674  0.00  0.00    +0.031 C 
BRANCH  16  17
ATOM     17  C   UNL     1       9.125   2.012  22.135  0.00  0.00    +0.156 C 
BRANCH  17  18
ATOM     18  O   UNL     1      10.387   2.468  21.671  0.00  0.00    -0.395 OA
ATOM     19  H   UNL     1      10.220   3.227  21.087  0.00  0.00    +0.209 HD
ENDBRANCH  17  18
ENDBRANCH  16  17
ENDBRANCH  10  16
ENDBRANCH   1  13
BRANCH   1  20
ATOM     20  C   UNL     1       5.668  -4.112  24.767  0.00  0.00    -0.009 A 
ATOM     21  C   UNL     1       4.468  -3.461  24.404  0.00  0.00    +0.006 A 
ATOM     22  C   UNL     1       3.227  -3.924  24.846  0.00  0.00    +0.000 A 
ATOM     23  C   UNL     1       3.159  -5.033  25.679  0.00  0.00    +0.000 A 
ATOM     24  C   UNL     1       4.328  -5.675  26.075  0.00  0.00    +0.000 A 
ATOM     25  C   UNL     1       5.573  -5.216  25.632  0.00  0.00    +0.006 A 
ENDBRANCH   1  20
BRANCH   5  26
ATOM     26  O   UNL     1      10.367  -5.549  25.807  0.00  0.00    -0.483 OA
ATOM     27  H   UNL     1      10.368  -5.475  26.771  0.00  0.00    +0.295 HD
ENDBRANCH   5  26
TORSDOF 6
ENDMDL
MODEL 5
REMARK VINA RESULT:      -7.1      3.254      7.282
REMARK  Name = 
REMARK  6 active torsions:
REMARK  status: ('A' for Active; 'I' for Inactive)
REMARK    1  A    between atoms: O_1  and  C_2
REMARK    2  A    between atoms: C_2  and  C_3
REMARK    3  A    between atoms: C_3  and  C_4
REMARK    4  A    between atoms: N_7  and  C_10
REMARK    5  A    between atoms: C_10  and  C_19
REMARK    6  A    between atoms: C_14  and  O_15
REMARK                            x       y       z     vdW  Elec       q    Type
REMARK                         _______ _______ _______ _____ _____    ______ ____
ROOT
ATOM      1  C   UNL     1       8.654   1.649  23.590  0.00  0.00    +0.203 C 
ATOM      2  C   UNL     1       7.874   1.790  22.226  0.00  0.00    +0.274 C 
ATOM      3  O   UNL     1       8.445   1.640  21.143  0.00  0.00    -0.271 OA
ATOM      4  N   UNL     1       6.540   2.129  22.244  0.00  0.00    -0.129 NA
ATOM      5  C   UNL     1       5.865   1.987  23.317  0.00  0.00    +0.278 C 
ATOM      6  N   UNL     1       6.334   1.566  24.504  0.00  0.00    -0.240 N 
ATOM      7  H   UNL     1       5.757   1.596  25.331  0.00  0.00    +0.159 HD
ATOM      8  C   UNL     1       7.664   1.621  24.778  0.00  0.00    +0.255 C 
ATOM      9  O   UNL     1       7.979   1.765  25.962  0.00  0.00    -0.272 OA
ENDROOT
BRANCH   1  13
ATOM     10  C   UNL     1       8.508  -2.241  24.693  0.00  0.00    -0.006 C 
ATOM     11  C   UNL     1       8.035  -1.656  23.352  0.00  0.00    +0.019 C 
ATOM     12  C   UNL     1       9.061  -0.726  22.711  0.00  0.00    +0.086 C 
ATOM     13  N   UNL     1       9.488   0.377  23.576  0.00  0.00    -0.278 NA
ATOM     14  C   UNL     1       9.990  -0.122  24.859  0.00  0.00    +0.086 C 
ATOM     15  C   UNL     1       9.096  -1.138  25.586  0.00  0.00    +0.019 C 
BRANCH  10  16
ATOM     16  C   UNL     1       9.467  -3.433  24.484  0.00  0.00    +0.031 C 
BRANCH  16  17
ATOM     17  C   UNL     1       9.160  -4.648  25.360  0.00  0.00    +0.156 C 
BRANCH  17  18
ATOM     18  O   UNL     1      10.192  -5.615  25.235  0.00  0.00    -0.395 OA
ATOM     19  H   UNL     1      10.928  -5.189  24.762  0.00  0.00    +0.209 HD
ENDBRANCH  17  18
ENDBRANCH  16  17
ENDBRANCH  10  16
ENDBRANCH   1  13
BRANCH   1  20
ATOM     20  C   UNL     1       9.528   2.941  23.680  0.00  0.00    -0.009 A 
ATOM     21  C   UNL     1       8.942   4.186  24.002  0.00  0.00    +0.006 A 
ATOM     22  C   UNL     1       9.698   5.359  24.027  0.00  0.00    +0.000 A 
ATOM     23  C   UNL     1      11.049   5.320  23.709  0.00  0.00    +0.000 A 
ATOM     24  C   UNL     1      11.644   4.111  23.360  0.00  0.00    +0.000 A 
ATOM     25  C   UNL     1      10.890   2.932  23.336  0.00  0.00    +0.006 A 
ENDBRANCH   1  20
BRANCH   5  26
ATOM     26  O   UNL     1       4.561   2.287  23.319  0.00  0.00    -0.483 OA
ATOM     27  H   UNL     1       3.983   1.527  23.469  0.00  0.00    +0.295 HD
ENDBRANCH   5  26
TORSDOF 6
ENDMDL
MODEL 6
REMARK VINA RESULT:      -7.1      1.580      5.829
REMARK  Name = 
REMARK  6 active torsions:
REMARK  status: ('A' for Active; 'I' for Inactive)
REMARK    1  A    between atoms: O_1  and  C_2
REMARK    2  A    between atoms: C_2  and  C_3
REMARK    3  A    between atoms: C_3  and  C_4
REMARK    4  A    between atoms: N_7  and  C_10
REMARK    5  A    between atoms: C_10  and  C_19
REMARK    6  A    between atoms: C_14  and  O_15
REMARK                            x       y       z     vdW  Elec       q    Type
REMARK                         _______ _______ _______ _____ _____    ______ ____
ROOT
ATOM      1  C   UNL     1       7.861  -2.638  24.144  0.00  0.00    +0.203 C 
ATOM      2  C   UNL     1       7.309  -1.257  23.618  0.00  0.00    +0.274 C 
ATOM      3  O   UNL     1       6.124  -0.946  23.760  0.00  0.00    -0.271 OA
ATOM      4  N   UNL     1       8.155  -0.403  22.949  0.00  0.00    -0.129 NA
ATOM      5  C   UNL     1       9.417  -0.549  23.057  0.00  0.00    +0.278 C 
ATOM      6  N   UNL     1      10.052  -1.513  23.745  0.00  0.00    -0.240 N 
ATOM      7  H   UNL     1      11.052  -1.624  23.680  0.00  0.00    +0.159 HD
ATOM      8  C   UNL     1       9.406  -2.661  24.077  0.00  0.00    +0.255 C 
ATOM      9  O   UNL     1      10.102  -3.674  24.185  0.00  0.00    -0.272 OA
ENDROOT
BRANCH   1  13
ATOM     10  C   UNL     1       6.732  -5.586  26.675  0.00  0.00    -0.006 C 
ATOM     11  C   UNL     1       8.167  -5.091  26.436  0.00  0.00    +0.019 C 
ATOM     12  C   UNL     1       8.293  -3.571  26.494  0.00  0.00    +0.086 C 
ATOM     13  N   UNL     1       7.398  -2.864  25.575  0.00  0.00    -0.278 NA
ATOM     14  C   UNL     1       6.003  -3.264  25.784  0.00  0.00    +0.086 C 
ATOM     15  C   UNL     1       5.734  -4.776  25.833  0.00  0.00    +0.019 C 
BRANCH  10  16
ATOM     16  C   UNL     1       6.384  -5.608  28.179  0.00  0.00    +0.031 C 
BRANCH  16  17
ATOM     17  C   UNL     1       5.142  -6.430  28.524  0.00  0.00    +0.156 C 
BRANCH  17  18
ATOM     18  O   UNL     1       5.424  -7.817  28.402  0.00  0.00    -0.395 OA
ATOM     19  H   UNL     1       6.257  -7.982  28.876  0.00  0.00    +0.209 HD
ENDBRANCH  17  18
ENDBRANCH  16  17
ENDBRANCH  10  16
ENDBRANCH   1  13
BRANCH   1  20
ATOM     20  C   UNL     1       7.288  -3.697  23.150  0.00  0.00    -0.009 A 
ATOM     21  C   UNL     1       7.781  -5.021  23.144  0.00  0.00    +0.006 A 
ATOM     22  C   UNL     1       7.323  -5.963  22.222  0.00  0.00    +0.000 A 
ATOM     23  C   UNL     1       6.379  -5.599  21.271  0.00  0.00    +0.000 A 
ATOM     24  C   UNL     1       5.898  -4.293  21.236  0.00  0.00    +0.000 A 
ATOM     25  C   UNL     1       6.354  -3.347  22.160  0.00  0.00    +0.006 A 
ENDBRANCH   1  20
BRANCH   5  26
ATOM     26  O   UNL     1      10.235   0.306  22.430  0.00  0.00    -0.483 OA
ATOM     27  H   UNL     1      10.015   0.449  21.500  0.00  0.00    +0.295 HD
ENDBRANCH   5  26
TORSDOF 6
ENDMDL
MODEL 7
REMARK VINA RESULT:      -6.9      2.531      5.646
REMARK  Name = 
REMARK  6 active torsions:
REMARK  status: ('A' for Active; 'I' for Inactive)
REMARK    1  A    between atoms: O_1  and  C_2
REMARK    2  A    between atoms: C_2  and  C_3
REMARK    3  A    between atoms: C_3  and  C_4
REMARK    4  A    between atoms: N_7  and  C_10
REMARK    5  A    between atoms: C_10  and  C_19
REMARK    6  A    between atoms: C_14  and  O_15
REMARK                            x       y       z     vdW  Elec       q    Type
REMARK                         _______ _______ _______ _____ _____    ______ ____
ROOT
ATOM      1  C   UNL     1       7.181  -3.429  24.415  0.00  0.00    +0.203 C 
ATOM      2  C   UNL     1       7.836  -3.232  25.837  0.00  0.00    +0.274 C 
ATOM      3  O   UNL     1       7.350  -2.456  26.664  0.00  0.00    -0.271 OA
ATOM      4  N   UNL     1       8.996  -3.906  26.145  0.00  0.00    -0.129 NA
ATOM      5  C   UNL     1       9.340  -4.921  25.454  0.00  0.00    +0.278 C 
ATOM      6  N   UNL     1       8.697  -5.411  24.381  0.00  0.00    -0.240 N 
ATOM      7  H   UNL     1       9.103  -6.146  23.823  0.00  0.00    +0.159 HD
ATOM      8  C   UNL     1       7.823  -4.634  23.688  0.00  0.00    +0.255 C 
ATOM      9  O   UNL     1       7.696  -4.882  22.486  0.00  0.00    -0.272 OA
ENDROOT
BRANCH   1  13
ATOM     10  C   UNL     1       4.326  -6.244  23.873  0.00  0.00    -0.006 C 
ATOM     11  C   UNL     1       5.170  -6.036  25.140  0.00  0.00    +0.019 C 
ATOM     12  C   UNL     1       5.215  -4.580  25.595  0.00  0.00    +0.086 C 
ATOM     13  N   UNL     1       5.683  -3.649  24.566  0.00  0.00    -0.278 NA
ATOM     14  C   UNL     1       4.887  -3.771  23.341  0.00  0.00    +0.086 C 
ATOM     15  C   UNL     1       4.683  -5.197  22.808  0.00  0.00    +0.019 C 
BRANCH  10  16
ATOM     16  C   UNL     1       2.817  -6.292  24.199  0.00  0.00    +0.031 C 
BRANCH  16  17
ATOM     17  C   UNL     1       1.909  -6.328  22.969  0.00  0.00    +0.156 C 
BRANCH  17  18
ATOM     18  O   UNL     1       2.044  -7.573  22.298  0.00  0.00    -0.395 OA
ATOM     19  H   UNL     1       2.973  -7.648  22.018  0.00  0.00    +0.209 HD
ENDBRANCH  17  18
ENDBRANCH  16  17
ENDBRANCH  10  16
ENDBRANCH   1  13
BRANCH   1  20
ATOM     20  C   UNL     1       7.523  -2.119  23.638  0.00  0.00    -0.009 A 
ATOM     21  C   UNL     1       8.765  -1.974  22.980  0.00  0.00    +0.006 A 
ATOM     22  C   UNL     1       9.111  -0.787  22.333  0.00  0.00    +0.000 A 
ATOM     23  C   UNL     1       8.234   0.290  22.346  0.00  0.00    +0.000 A 
ATOM     24  C   UNL     1       7.016   0.183  23.011  0.00  0.00    +0.000 A 
ATOM     25  C   UNL     1       6.665  -1.006  23.660  0.00  0.00    +0.006 A 
ENDBRANCH   1  20
BRANCH   5  26
ATOM     26  O   UNL     1      10.452  -5.592  25.779  0.00  0.00    -0.483 OA
ATOM     27  H   UNL     1      10.300  -6.520  26.002  0.00  0.00    +0.295 HD
ENDBRANCH   5  26
TORSDOF 6
ENDMDL
MODEL 8
REMARK VINA RESULT:      -6.9      2.824      6.621
REMARK  Name = 
REMARK  6 active torsions:
REMARK  status: ('A' for Active; 'I' for Inactive)
REMARK    1  A    between atoms: O_1  and  C_2
REMARK    2  A    between atoms: C_2  and  C_3
REMARK    3  A    between atoms: C_3  and  C_4
REMARK    4  A    between atoms: N_7  and  C_10
REMARK    5  A    between atoms: C_10  and  C_19
REMARK    6  A    between atoms: C_14  and  O_15
REMARK                            x       y       z     vdW  Elec       q    Type
REMARK                         _______ _______ _______ _____ _____    ______ ____
ROOT
ATOM      1  C   UNL     1       8.522   0.073  24.449  0.00  0.00    +0.203 C 
ATOM      2  C   UNL     1      10.038   0.510  24.469  0.00  0.00    +0.274 C 
ATOM      3  O   UNL     1      10.807   0.113  25.347  0.00  0.00    -0.271 OA
ATOM      4  N   UNL     1      10.500   1.385  23.512  0.00  0.00    -0.129 NA
ATOM      5  C   UNL     1       9.832   1.562  22.440  0.00  0.00    +0.278 C 
ATOM      6  N   UNL     1       8.649   1.002  22.137  0.00  0.00    -0.240 N 
ATOM      7  H   UNL     1       8.133   1.288  21.319  0.00  0.00    +0.159 HD
ATOM      8  C   UNL     1       7.858   0.490  23.116  0.00  0.00    +0.255 C 
ATOM      9  O   UNL     1       6.642   0.505  22.908  0.00  0.00    -0.272 OA
ENDROOT
BRANCH   1  13
ATOM     10  C   UNL     1       7.114  -3.251  22.622  0.00  0.00    -0.006 C 
ATOM     11  C   UNL     1       8.505  -2.626  22.430  0.00  0.00    +0.019 C 
ATOM     12  C   UNL     1       9.200  -2.299  23.749  0.00  0.00    +0.086 C 
ATOM     13  N   UNL     1       8.420  -1.433  24.634  0.00  0.00    -0.278 NA
ATOM     14  C   UNL     1       7.091  -1.998  24.890  0.00  0.00    +0.086 C 
ATOM     15  C   UNL     1       6.302  -2.454  23.654  0.00  0.00    +0.019 C 
BRANCH  10  16
ATOM     16  C   UNL     1       7.210  -4.756  22.952  0.00  0.00    +0.031 C 
BRANCH  16  17
ATOM     17  C   UNL     1       7.067  -5.676  21.739  0.00  0.00    +0.156 C 
BRANCH  17  18
ATOM     18  O   UNL     1       5.835  -6.380  21.800  0.00  0.00    -0.395 OA
ATOM     19  H   UNL     1       5.367  -6.069  22.594  0.00  0.00    +0.209 HD
ENDBRANCH  17  18
ENDBRANCH  16  17
ENDBRANCH  10  16
ENDBRANCH   1  13
BRANCH   1  20
ATOM     20  C   UNL     1       7.866   0.871  25.620  0.00  0.00    -0.009 A 
ATOM     21  C   UNL     1       7.708   2.272  25.538  0.00  0.00    +0.006 A 
ATOM     22  C   UNL     1       7.179   3.008  26.600  0.00  0.00    +0.000 A 
ATOM     23  C   UNL     1       6.819   2.364  27.776  0.00  0.00    +0.000 A 
ATOM     24  C   UNL     1       6.992   0.988  27.894  0.00  0.00    +0.000 A 
ATOM     25  C   UNL     1       7.520   0.247  26.831  0.00  0.00    +0.006 A 
ENDBRANCH   1  20
BRANCH   5  26
ATOM     26  O   UNL     1      10.304   2.390  21.499  0.00  0.00    -0.483 OA
ATOM     27  H   UNL     1       9.696   2.532  20.762  0.00  0.00    +0.295 HD
ENDBRANCH   5  26
TORSDOF 6
ENDMDL
MODEL 9
REMARK VINA RESULT:      -6.5      2.577      6.250
REMARK  Name = 
REMARK  6 active torsions:
REMARK  status: ('A' for Active; 'I' for Inactive)
REMARK    1  A    between atoms: O_1  and  C_2
REMARK    2  A    between atoms: C_2  and  C_3
REMARK    3  A    between atoms: C_3  and  C_4
REMARK    4  A    between atoms: N_7  and  C_10
REMARK    5  A    between atoms: C_10  and  C_19
REMARK    6  A    between atoms: C_14  and  O_15
REMARK                            x       y       z     vdW  Elec       q    Type
REMARK                         _______ _______ _______ _____ _____    ______ ____
ROOT
ATOM      1  C   UNL     1       7.535  -1.135  24.346  0.00  0.00    +0.203 C 
ATOM      2  C   UNL     1       9.012  -0.618  24.547  0.00  0.00    +0.274 C 
ATOM      3  O   UNL     1       9.359  -0.064  25.593  0.00  0.00    -0.271 OA
ATOM      4  N   UNL     1       9.919  -0.751  23.520  0.00  0.00    -0.129 NA
ATOM      5  C   UNL     1       9.688  -1.574  22.574  0.00  0.00    +0.278 C 
ATOM      6  N   UNL     1       8.590  -2.335  22.430  0.00  0.00    -0.240 N 
ATOM      7  H   UNL     1       8.437  -2.871  21.590  0.00  0.00    +0.159 HD
ATOM      8  C   UNL     1       7.439  -2.013  23.076  0.00  0.00    +0.255 C 
ATOM      9  O   UNL     1       6.386  -2.351  22.530  0.00  0.00    -0.272 OA
ENDROOT
BRANCH   1  13
ATOM     10  C   UNL     1       7.135  -4.940  25.661  0.00  0.00    -0.006 C 
ATOM     11  C   UNL     1       8.397  -4.069  25.764  0.00  0.00    +0.019 C 
ATOM     12  C   UNL     1       8.116  -2.673  26.314  0.00  0.00    +0.086 C 
ATOM     13  N   UNL     1       7.099  -1.932  25.566  0.00  0.00    -0.278 NA
ATOM     14  C   UNL     1       5.852  -2.697  25.468  0.00  0.00    +0.086 C 
ATOM     15  C   UNL     1       5.989  -4.155  25.005  0.00  0.00    +0.019 C 
BRANCH  10  16
ATOM     16  C   UNL     1       6.754  -5.548  27.028  0.00  0.00    +0.031 C 
BRANCH  16  17
ATOM     17  C   UNL     1       5.328  -6.096  27.096  0.00  0.00    +0.156 C 
BRANCH  17  18
ATOM     18  O   UNL     1       5.319  -7.358  27.747  0.00  0.00    -0.395 OA
ATOM     19  H   UNL     1       6.063  -7.363  28.373  0.00  0.00    +0.209 HD
ENDBRANCH  17  18
ENDBRANCH  16  17
ENDBRANCH  10  16
ENDBRANCH   1  13
BRANCH   1  20
ATOM     20  C   UNL     1       6.689   0.161  24.138  0.00  0.00    -0.009 A 
ATOM     21  C   UNL     1       6.880   0.972  22.998  0.00  0.00    +0.006 A 
ATOM     22  C   UNL     1       6.176   2.165  22.827  0.00  0.00    +0.000 A 
ATOM     23  C   UNL     1       5.281   2.586  23.802  0.00  0.00    +0.000 A 
ATOM     24  C   UNL     1       5.095   1.820  24.949  0.00  0.00    +0.000 A 
ATOM     25  C   UNL     1       5.798   0.623  25.123  0.00  0.00    +0.006 A 
ENDBRANCH   1  20
BRANCH   5  26
ATOM     26  O   UNL     1      10.590  -1.722  21.595  0.00  0.00    -0.483 OA
ATOM     27  H   UNL     1      10.439  -2.496  21.037  0.00  0.00    +0.295 HD
ENDBRANCH   5  26
TORSDOF 6
ENDMDL
