MODEL 1
REMARK VINA RESULT:      -6.4      0.000      0.000
REMARK  Name = 
REMARK  32 active torsions:
REMARK  status: ('A' for Active; 'I' for Inactive)
REMARK    1  A    between atoms: C_1  and  C_2
REMARK    2  A    between atoms: C_2  and  C_4
REMARK    3  A    between atoms: C_2  and  C_58
REMARK    4  A    between atoms: C_4  and  S_5
REMARK    5  A    between atoms: S_5  and  C_6
REMARK    6  A    between atoms: C_6  and  C_7
REMARK    7  A    between atoms: C_7  and  N_8
REMARK    8  A    between atoms: C_9  and  C_11
REMARK    9  A    between atoms: C_11  and  C_12
REMARK   10  A    between atoms: C_12  and  N_13
REMARK   11  A    between atoms: C_14  and  C_16
REMARK   12  A    between atoms: C_16  and  O_18
REMARK   13  A    between atoms: C_16  and  C_19
REMARK   14  A    between atoms: C_19  and  C_20
REMARK   15  A    between atoms: C_19  and  C_21
REMARK   16  A    between atoms: C_19  and  C_22
REMARK   17  A    between atoms: C_22  and  O_23
REMARK   18  A    between atoms: O_23  and  P_24
REMARK   19  A    between atoms: P_24  and  O_25
REMARK   20  A    between atoms: P_24  and  O_27
REMARK   21  A    between atoms: O_27  and  P_28
REMARK   22  A    between atoms: P_28  and  O_29
REMARK   23  A    between atoms: P_28  and  O_31
REMARK   24  A    between atoms: O_31  and  C_32
REMARK   25  A    between atoms: C_32  and  C_33
REMARK   26  A    between atoms: C_36  and  N_48
REMARK   27  A    between atoms: C_38  and  O_40
REMARK   28  A    between atoms: C_41  and  O_43
REMARK   29  A    between atoms: O_43  and  P_44
REMARK   30  A    between atoms: P_44  and  O_45
REMARK   31  A    between atoms: P_44  and  O_46
REMARK   32  A    between atoms: C_58  and  O_59
REMARK                            x       y       z     vdW  Elec       q    Type
REMARK                         _______ _______ _______ _____ _____    ______ ____
ROOT
ATOM      1  O   UNL     1       4.617  -4.519  22.234  0.00  0.00    -0.186 OA
ENDROOT
BRANCH   1   2
ATOM      2  P   UNL     1       6.185  -5.250  22.164  0.00  0.00    +0.483 P 
ATOM      3  O   UNL     1       6.064  -5.489  20.660  0.00  0.00    -0.227 OA
BRANCH   2   4
ATOM      4  O   UNL     1       7.751  -5.980  22.094  0.00  0.00    -0.302 OA
ATOM      5  H   UNL     1       7.527  -6.919  21.907  0.00  0.00    +0.222 HD
ENDBRANCH   2   4
BRANCH   2   6
ATOM      6  O   UNL     1       6.906  -3.764  22.353  0.00  0.00    -0.286 OA
BRANCH   6   7
ATOM      7  C   UNL     1       7.921  -3.690  23.349  0.00  0.00    +0.181 C 
BRANCH   7   8
ATOM      8  C   UNL     1       8.715  -2.358  23.340  0.00  0.00    +0.024 C 
ATOM      9  C   UNL     1      10.136  -2.645  23.879  0.00  0.00    +0.016 C 
ATOM     10  C   UNL     1       8.872  -1.865  21.884  0.00  0.00    +0.016 C 
BRANCH   8  11
ATOM     11  C   UNL     1       7.997  -1.246  24.159  0.00  0.00    +0.208 C 
BRANCH  11  14
ATOM     12  N   UNL     1       7.269   0.829  23.056  0.00  0.00    -0.313 N 
ATOM     13  H   UNL     1       6.421   0.271  22.967  0.00  0.00    +0.149 HD
ATOM     14  C   UNL     1       8.307   0.202  23.714  0.00  0.00    +0.242 C 
ATOM     15  O   UNL     1       9.380   0.725  23.950  0.00  0.00    -0.273 OA
BRANCH  12  16
ATOM     16  C   UNL     1       7.234   2.164  22.472  0.00  0.00    +0.113 C 
BRANCH  16  17
ATOM     17  C   UNL     1       5.931   2.942  22.436  0.00  0.00    +0.114 C 
BRANCH  17  20
ATOM     18  N   UNL     1       5.587   4.643  24.161  0.00  0.00    -0.314 N 
ATOM     19  H   UNL     1       6.270   5.198  23.626  0.00  0.00    +0.149 HD
ATOM     20  C   UNL     1       5.296   3.381  23.702  0.00  0.00    +0.215 C 
ATOM     21  O   UNL     1       4.502   2.681  24.302  0.00  0.00    -0.276 OA
BRANCH  18  22
ATOM     22  C   UNL     1       5.739   4.780  25.585  0.00  0.00    +0.115 C 
BRANCH  22  23
ATOM     23  C   UNL     1       7.204   5.204  26.288  0.00  0.00    +0.088 C 
BRANCH  23  24
ATOM     24  S   UNL     1       8.504   6.903  26.287  0.00  0.00    -0.158 S 
BRANCH  24  25
ATOM     25  C   UNL     1      10.134   6.868  25.144  0.00  0.00    +0.083 C 
BRANCH  25  27
ATOM     26  C   UNL     1       9.791   4.460  23.844  0.00  0.00    +0.020 C 
ATOM     27  C   UNL     1      10.537   5.788  24.014  0.00  0.00    +0.104 C 
BRANCH  27  28
ATOM     28  C   UNL     1      12.055   5.585  23.788  0.00  0.00    +0.308 C 
ATOM     29  O   UNL     1      12.524   4.768  23.009  0.00  0.00    -0.251 OA
BRANCH  28  30
ATOM     30  O   UNL     1      12.886   6.328  24.569  0.00  0.00    -0.480 OA
ATOM     31  H   UNL     1      12.475   6.456  25.439  0.00  0.00    +0.295 HD
ENDBRANCH  28  30
ENDBRANCH  27  28
ENDBRANCH  25  27
ENDBRANCH  24  25
ENDBRANCH  23  24
ENDBRANCH  22  23
ENDBRANCH  18  22
ENDBRANCH  17  20
ENDBRANCH  16  17
ENDBRANCH  12  16
ENDBRANCH  11  14
BRANCH  11  32
ATOM     32  O   UNL     1       6.571  -1.423  24.087  0.00  0.00    -0.382 OA
ATOM     33  H   UNL     1       6.251  -0.764  23.441  0.00  0.00    +0.210 HD
ENDBRANCH  11  32
ENDBRANCH   8  11
ENDBRANCH   7   8
ENDBRANCH   6   7
ENDBRANCH   2   6
ENDBRANCH   1   2
BRANCH   1  34
ATOM     34  P   UNL     1       3.865  -4.912  23.740  0.00  0.00    +0.483 P 
ATOM     35  O   UNL     1       4.141  -3.497  24.282  0.00  0.00    -0.227 OA
BRANCH  34  36
ATOM     36  O   UNL     1       5.203  -5.541  24.422  0.00  0.00    -0.302 OA
ATOM     37  H   UNL     1       4.975  -6.507  24.460  0.00  0.00    +0.222 HD
ENDBRANCH  34  36
BRANCH  34  38
ATOM     38  O   UNL     1       3.111  -5.306  25.247  0.00  0.00    -0.284 OA
BRANCH  38  39
ATOM     39  C   UNL     1       2.563  -4.278  26.110  0.00  0.00    +0.206 C 
BRANCH  39  40
ATOM     40  C   UNL     1       3.135  -4.140  27.513  0.00  0.00    +0.179 C 
ATOM     41  C   UNL     1       4.576  -4.598  27.541  0.00  0.00    +0.194 C 
ATOM     42  C   UNL     1       5.359  -3.300  27.594  0.00  0.00    +0.196 C 
ATOM     43  C   UNL     1       4.298  -2.193  27.507  0.00  0.00    +0.253 C 
ATOM     44  O   UNL     1       3.072  -2.780  27.937  0.00  0.00    -0.346 OA
BRANCH  43  45
ATOM     45  N   UNL     1       4.551  -1.016  28.304  0.00  0.00    -0.286 N 
ATOM     46  C   UNL     1       5.439  -0.030  27.989  0.00  0.00    +0.167 A 
ATOM     47  N   UNL     1       6.341  -0.022  26.997  0.00  0.00    -0.216 NA
ATOM     48  C   UNL     1       7.057   1.120  27.013  0.00  0.00    +0.225 A 
ATOM     49  N   UNL     1       6.916   2.174  27.834  0.00  0.00    -0.219 NA
ATOM     50  C   UNL     1       5.957   2.133  28.795  0.00  0.00    +0.147 A 
ATOM     51  N   UNL     1       5.778   3.236  29.617  0.00  0.00    -0.341 N 
ATOM     52  H   UNL     1       5.303   3.022  30.484  0.00  0.00    +0.144 HD
ATOM     53  H   UNL     1       6.596   3.829  29.658  0.00  0.00    +0.144 HD
ATOM     54  C   UNL     1       5.188   0.967  28.914  0.00  0.00    +0.147 A 
ATOM     55  N   UNL     1       4.198   0.605  29.788  0.00  0.00    -0.231 NA
ATOM     56  C   UNL     1       3.825  -0.603  29.390  0.00  0.00    +0.203 A 
ENDBRANCH  43  45
BRANCH  42  57
ATOM     57  O   UNL     1       6.254  -3.231  26.485  0.00  0.00    -0.385 OA
ATOM     58  H   UNL     1       6.895  -3.960  26.614  0.00  0.00    +0.210 HD
ENDBRANCH  42  57
BRANCH  41  59
ATOM     59  O   UNL     1       4.751  -5.375  28.718  0.00  0.00    -0.278 OA
BRANCH  59  60
ATOM     60  P   UNL     1       5.185  -6.910  28.572  0.00  0.00    +0.473 P 
ATOM     61  O   UNL     1       6.514  -7.285  29.133  0.00  0.00    -0.228 OA
BRANCH  60  62
ATOM     62  O   UNL     1       3.912  -7.630  29.213  0.00  0.00    -0.303 OA
ATOM     63  H   UNL     1       3.935  -7.669  30.182  0.00  0.00    +0.222 HD
ENDBRANCH  60  62
BRANCH  60  64
ATOM     64  O   UNL     1       4.976  -7.146  27.009  0.00  0.00    -0.303 OA
ATOM     65  H   UNL     1       4.081  -7.458  26.791  0.00  0.00    +0.222 HD
ENDBRANCH  60  64
ENDBRANCH  59  60
ENDBRANCH  41  59
ENDBRANCH  39  40
ENDBRANCH  38  39
ENDBRANCH  34  38
ENDBRANCH   1  34
TORSDOF 29
ENDMDL
MODEL 2
REMARK VINA RESULT:      -6.3      2.191      3.115
REMARK  Name = 
REMARK  32 active torsions:
REMARK  status: ('A' for Active; 'I' for Inactive)
REMARK    1  A    between atoms: C_1  and  C_2
REMARK    2  A    between atoms: C_2  and  C_4
REMARK    3  A    between atoms: C_2  and  C_58
REMARK    4  A    between atoms: C_4  and  S_5
REMARK    5  A    between atoms: S_5  and  C_6
REMARK    6  A    between atoms: C_6  and  C_7
REMARK    7  A    between atoms: C_7  and  N_8
REMARK    8  A    between atoms: C_9  and  C_11
REMARK    9  A    between atoms: C_11  and  C_12
REMARK   10  A    between atoms: C_12  and  N_13
REMARK   11  A    between atoms: C_14  and  C_16
REMARK   12  A    between atoms: C_16  and  O_18
REMARK   13  A    between atoms: C_16  and  C_19
REMARK   14  A    between atoms: C_19  and  C_20
REMARK   15  A    between atoms: C_19  and  C_21
REMARK   16  A    between atoms: C_19  and  C_22
REMARK   17  A    between atoms: C_22  and  O_23
REMARK   18  A    between atoms: O_23  and  P_24
REMARK   19  A    between atoms: P_24  and  O_25
REMARK   20  A    between atoms: P_24  and  O_27
REMARK   21  A    between atoms: O_27  and  P_28
REMARK   22  A    between atoms: P_28  and  O_29
REMARK   23  A    between atoms: P_28  and  O_31
REMARK   24  A    between atoms: O_31  and  C_32
REMARK   25  A    between atoms: C_32  and  C_33
REMARK   26  A    between atoms: C_36  and  N_48
REMARK   27  A    between atoms: C_38  and  O_40
REMARK   28  A    between atoms: C_41  and  O_43
REMARK   29  A    between atoms: O_43  and  P_44
REMARK   30  A    between atoms: P_44  and  O_45
REMARK   31  A    between atoms: P_44  and  O_46
REMARK   32  A    between atoms: C_58  and  O_59
REMARK                            x       y       z     vdW  Elec       q    Type
REMARK                         _______ _______ _______ _____ _____    ______ ____
ROOT
ATOM      1  O   UNL     1       4.231  -5.202  22.521  0.00  0.00    -0.186 OA
ENDROOT
BRANCH   1   2
ATOM      2  P   UNL     1       5.906  -5.606  22.361  0.00  0.00    +0.483 P 
ATOM      3  O   UNL     1       5.772  -5.792  20.851  0.00  0.00    -0.227 OA
BRANCH   2   4
ATOM      4  O   UNL     1       7.580  -6.010  22.201  0.00  0.00    -0.302 OA
ATOM      5  H   UNL     1       7.915  -5.269  21.649  0.00  0.00    +0.222 HD
ENDBRANCH   2   4
BRANCH   2   6
ATOM      6  O   UNL     1       6.332  -4.018  22.608  0.00  0.00    -0.286 OA
BRANCH   6   7
ATOM      7  C   UNL     1       7.691  -3.789  22.967  0.00  0.00    +0.181 C 
BRANCH   7   8
ATOM      8  C   UNL     1       8.086  -2.290  23.011  0.00  0.00    +0.024 C 
ATOM      9  C   UNL     1       8.705  -1.919  21.644  0.00  0.00    +0.016 C 
ATOM     10  C   UNL     1       6.813  -1.430  23.182  0.00  0.00    +0.016 C 
BRANCH   8  11
ATOM     11  C   UNL     1       9.051  -1.976  24.190  0.00  0.00    +0.208 C 
BRANCH  11  14
ATOM     12  N   UNL     1       9.307   0.441  24.575  0.00  0.00    -0.313 N 
ATOM     13  H   UNL     1       8.414   0.278  25.037  0.00  0.00    +0.149 HD
ATOM     14  C   UNL     1       9.888  -0.685  24.030  0.00  0.00    +0.242 C 
ATOM     15  O   UNL     1      10.972  -0.694  23.476  0.00  0.00    -0.273 OA
BRANCH  12  16
ATOM     16  C   UNL     1       9.796   1.814  24.568  0.00  0.00    +0.113 C 
BRANCH  16  17
ATOM     17  C   UNL     1       9.766   2.622  23.284  0.00  0.00    +0.114 C 
BRANCH  17  20
ATOM     18  N   UNL     1       7.881   3.805  22.265  0.00  0.00    -0.314 N 
ATOM     19  H   UNL     1       8.232   4.626  22.777  0.00  0.00    +0.149 HD
ATOM     20  C   UNL     1       8.549   2.616  22.435  0.00  0.00    +0.215 C 
ATOM     21  O   UNL     1       8.171   1.614  21.858  0.00  0.00    -0.276 OA
BRANCH  18  22
ATOM     22  C   UNL     1       6.445   3.725  22.241  0.00  0.00    +0.115 C 
BRANCH  22  23
ATOM     23  C   UNL     1       5.499   4.295  23.507  0.00  0.00    +0.088 C 
BRANCH  23  24
ATOM     24  S   UNL     1       5.723   4.590  25.615  0.00  0.00    -0.158 S 
BRANCH  24  25
ATOM     25  C   UNL     1       7.053   3.489  26.606  0.00  0.00    +0.083 C 
BRANCH  25  27
ATOM     26  C   UNL     1       7.046   2.315  29.102  0.00  0.00    +0.020 C 
ATOM     27  C   UNL     1       6.777   2.243  27.595  0.00  0.00    +0.104 C 
BRANCH  27  28
ATOM     28  C   UNL     1       7.163   0.848  27.046  0.00  0.00    +0.308 C 
ATOM     29  O   UNL     1       6.544   0.266  26.168  0.00  0.00    -0.251 OA
BRANCH  28  30
ATOM     30  O   UNL     1       8.219   0.234  27.648  0.00  0.00    -0.480 OA
ATOM     31  H   UNL     1       9.029   0.731  27.454  0.00  0.00    +0.295 HD
ENDBRANCH  28  30
ENDBRANCH  27  28
ENDBRANCH  25  27
ENDBRANCH  24  25
ENDBRANCH  23  24
ENDBRANCH  22  23
ENDBRANCH  18  22
ENDBRANCH  17  20
ENDBRANCH  16  17
ENDBRANCH  12  16
ENDBRANCH  11  14
BRANCH  11  32
ATOM     32  O   UNL     1       8.308  -1.858  25.417  0.00  0.00    -0.382 OA
ATOM     33  H   UNL     1       8.384  -0.922  25.688  0.00  0.00    +0.210 HD
ENDBRANCH  11  32
ENDBRANCH   8  11
ENDBRANCH   7   8
ENDBRANCH   6   7
ENDBRANCH   2   6
ENDBRANCH   1   2
BRANCH   1  34
ATOM     34  P   UNL     1       3.723  -5.486  24.149  0.00  0.00    +0.483 P 
ATOM     35  O   UNL     1       3.833  -3.985  24.477  0.00  0.00    -0.227 OA
BRANCH  34  36
ATOM     36  O   UNL     1       5.211  -5.819  24.720  0.00  0.00    -0.302 OA
ATOM     37  H   UNL     1       5.753  -5.102  24.297  0.00  0.00    +0.222 HD
ENDBRANCH  34  36
BRANCH  34  38
ATOM     38  O   UNL     1       3.213  -5.770  25.779  0.00  0.00    -0.284 OA
BRANCH  38  39
ATOM     39  C   UNL     1       2.642  -4.711  26.588  0.00  0.00    +0.206 C 
BRANCH  39  40
ATOM     40  C   UNL     1       3.343  -4.346  27.888  0.00  0.00    +0.179 C 
ATOM     41  C   UNL     1       4.843  -4.371  27.703  0.00  0.00    +0.194 C 
ATOM     42  C   UNL     1       5.216  -2.902  27.629  0.00  0.00    +0.196 C 
ATOM     43  C   UNL     1       3.877  -2.150  27.696  0.00  0.00    +0.253 C 
ATOM     44  O   UNL     1       2.948  -3.042  28.308  0.00  0.00    -0.346 OA
BRANCH  43  45
ATOM     45  N   UNL     1       3.888  -0.913  28.438  0.00  0.00    -0.286 N 
ATOM     46  C   UNL     1       3.555   0.310  27.933  0.00  0.00    +0.167 A 
ATOM     47  N   UNL     1       3.311   0.632  26.653  0.00  0.00    -0.216 NA
ATOM     48  C   UNL     1       3.033   1.946  26.538  0.00  0.00    +0.225 A 
ATOM     49  N   UNL     1       2.939   2.862  27.516  0.00  0.00    -0.219 NA
ATOM     50  C   UNL     1       3.154   2.473  28.800  0.00  0.00    +0.147 A 
ATOM     51  N   UNL     1       3.015   3.405  29.819  0.00  0.00    -0.341 N 
ATOM     52  H   UNL     1       3.494   3.146  30.672  0.00  0.00    +0.144 HD
ATOM     53  H   UNL     1       3.107   4.357  29.492  0.00  0.00    +0.144 HD
ATOM     54  C   UNL     1       3.510   1.139  29.039  0.00  0.00    +0.147 A 
ATOM     55  N   UNL     1       3.828   0.464  30.186  0.00  0.00    -0.231 NA
ATOM     56  C   UNL     1       4.048  -0.783  29.793  0.00  0.00    +0.203 A 
ENDBRANCH  43  45
BRANCH  42  57
ATOM     57  O   UNL     1       5.885  -2.635  26.398  0.00  0.00    -0.385 OA
ATOM     58  H   UNL     1       6.393  -3.446  26.190  0.00  0.00    +0.210 HD
ENDBRANCH  42  57
BRANCH  41  59
ATOM     59  O   UNL     1       5.401  -5.006  28.844  0.00  0.00    -0.278 OA
BRANCH  59  60
ATOM     60  P   UNL     1       6.161  -6.404  28.656  0.00  0.00    +0.473 P 
ATOM     61  O   UNL     1       6.387  -7.213  29.888  0.00  0.00    -0.228 OA
BRANCH  60  62
ATOM     62  O   UNL     1       5.258  -7.071  27.521  0.00  0.00    -0.303 OA
ATOM     63  H   UNL     1       5.046  -8.002  27.691  0.00  0.00    +0.222 HD
ENDBRANCH  60  62
BRANCH  60  64
ATOM     64  O   UNL     1       7.460  -5.947  27.854  0.00  0.00    -0.303 OA
ATOM     65  H   UNL     1       7.622  -6.486  27.060  0.00  0.00    +0.222 HD
ENDBRANCH  60  64
ENDBRANCH  59  60
ENDBRANCH  41  59
ENDBRANCH  39  40
ENDBRANCH  38  39
ENDBRANCH  34  38
ENDBRANCH   1  34
TORSDOF 29
ENDMDL
MODEL 3
REMARK VINA RESULT:      -6.3      4.479      8.992
REMARK  Name = 
REMARK  32 active torsions:
REMARK  status: ('A' for Active; 'I' for Inactive)
REMARK    1  A    between atoms: C_1  and  C_2
REMARK    2  A    between atoms: C_2  and  C_4
REMARK    3  A    between atoms: C_2  and  C_58
REMARK    4  A    between atoms: C_4  and  S_5
REMARK    5  A    between atoms: S_5  and  C_6
REMARK    6  A    between atoms: C_6  and  C_7
REMARK    7  A    between atoms: C_7  and  N_8
REMARK    8  A    between atoms: C_9  and  C_11
REMARK    9  A    between atoms: C_11  and  C_12
REMARK   10  A    between atoms: C_12  and  N_13
REMARK   11  A    between atoms: C_14  and  C_16
REMARK   12  A    between atoms: C_16  and  O_18
REMARK   13  A    between atoms: C_16  and  C_19
REMARK   14  A    between atoms: C_19  and  C_20
REMARK   15  A    between atoms: C_19  and  C_21
REMARK   16  A    between atoms: C_19  and  C_22
REMARK   17  A    between atoms: C_22  and  O_23
REMARK   18  A    between atoms: O_23  and  P_24
REMARK   19  A    between atoms: P_24  and  O_25
REMARK   20  A    between atoms: P_24  and  O_27
REMARK   21  A    between atoms: O_27  and  P_28
REMARK   22  A    between atoms: P_28  and  O_29
REMARK   23  A    between atoms: P_28  and  O_31
REMARK   24  A    between atoms: O_31  and  C_32
REMARK   25  A    between atoms: C_32  and  C_33
REMARK   26  A    between atoms: C_36  and  N_48
REMARK   27  A    between atoms: C_38  and  O_40
REMARK   28  A    between atoms: C_41  and  O_43
REMARK   29  A    between atoms: O_43  and  P_44
REMARK   30  A    between atoms: P_44  and  O_45
REMARK   31  A    between atoms: P_44  and  O_46
REMARK   32  A    between atoms: C_58  and  O_59
REMARK                            x       y       z     vdW  Elec       q    Type
REMARK                         _______ _______ _______ _____ _____    ______ ____
ROOT
ATOM      1  O   UNL     1       8.308   3.529  24.109  0.00  0.00    -0.186 OA
ENDROOT
BRANCH   1   2
ATOM      2  P   UNL     1       6.976   3.632  23.008  0.00  0.00    +0.483 P 
ATOM      3  O   UNL     1       7.375   5.042  22.575  0.00  0.00    -0.227 OA
BRANCH   2   4
ATOM      4  O   UNL     1       5.646   3.736  21.908  0.00  0.00    -0.302 OA
ATOM      5  H   UNL     1       6.016   4.304  21.197  0.00  0.00    +0.222 HD
ENDBRANCH   2   4
BRANCH   2   6
ATOM      6  O   UNL     1       7.733   2.582  21.965  0.00  0.00    -0.286 OA
BRANCH   6   7
ATOM      7  C   UNL     1       7.709   1.209  22.342  0.00  0.00    +0.181 C 
BRANCH   7   8
ATOM      8  C   UNL     1       9.101   0.526  22.319  0.00  0.00    +0.024 C 
ATOM      9  C   UNL     1       9.142  -0.436  21.110  0.00  0.00    +0.016 C 
ATOM     10  C   UNL     1      10.193   1.595  22.085  0.00  0.00    +0.016 C 
BRANCH   8  11
ATOM     11  C   UNL     1       9.413  -0.207  23.655  0.00  0.00    +0.208 C 
BRANCH  11  14
ATOM     12  N   UNL     1       9.403  -2.571  24.339  0.00  0.00    -0.313 N 
ATOM     13  H   UNL     1       8.658  -2.210  24.931  0.00  0.00    +0.149 HD
ATOM     14  C   UNL     1       9.982  -1.637  23.504  0.00  0.00    +0.242 C 
ATOM     15  O   UNL     1      10.857  -1.892  22.697  0.00  0.00    -0.273 OA
BRANCH  12  16
ATOM     16  C   UNL     1       9.724  -3.986  24.485  0.00  0.00    +0.113 C 
BRANCH  16  17
ATOM     17  C   UNL     1       8.692  -4.941  25.055  0.00  0.00    +0.114 C 
BRANCH  17  20
ATOM     18  N   UNL     1       7.815  -5.940  27.110  0.00  0.00    -0.314 N 
ATOM     19  H   UNL     1       7.751  -6.806  26.558  0.00  0.00    +0.149 HD
ATOM     20  C   UNL     1       8.264  -4.811  26.470  0.00  0.00    +0.215 C 
ATOM     21  O   UNL     1       8.351  -3.758  27.075  0.00  0.00    -0.276 OA
BRANCH  18  22
ATOM     22  C   UNL     1       6.706  -5.759  28.008  0.00  0.00    +0.115 C 
BRANCH  22  23
ATOM     23  C   UNL     1       5.318  -6.701  27.911  0.00  0.00    +0.088 C 
BRANCH  23  24
ATOM     24  S   UNL     1       3.253  -6.498  28.432  0.00  0.00    -0.158 S 
BRANCH  24  25
ATOM     25  C   UNL     1       1.910  -6.275  26.980  0.00  0.00    +0.083 C 
BRANCH  25  27
ATOM     26  C   UNL     1       1.092  -8.647  25.834  0.00  0.00    +0.020 C 
ATOM     27  C   UNL     1       1.655  -7.228  25.702  0.00  0.00    +0.104 C 
BRANCH  27  28
ATOM     28  C   UNL     1       2.743  -7.182  24.600  0.00  0.00    +0.308 C 
ATOM     29  O   UNL     1       3.737  -7.892  24.595  0.00  0.00    -0.251 OA
BRANCH  28  30
ATOM     30  O   UNL     1       2.583  -6.236  23.634  0.00  0.00    -0.480 OA
ATOM     31  H   UNL     1       2.229  -6.654  22.834  0.00  0.00    +0.295 HD
ENDBRANCH  28  30
ENDBRANCH  27  28
ENDBRANCH  25  27
ENDBRANCH  24  25
ENDBRANCH  23  24
ENDBRANCH  22  23
ENDBRANCH  18  22
ENDBRANCH  17  20
ENDBRANCH  16  17
ENDBRANCH  12  16
ENDBRANCH  11  14
BRANCH  11  32
ATOM     32  O   UNL     1      10.361   0.553  24.426  0.00  0.00    -0.382 OA
ATOM     33  H   UNL     1      11.077  -0.068  24.660  0.00  0.00    +0.210 HD
ENDBRANCH  11  32
ENDBRANCH   8  11
ENDBRANCH   7   8
ENDBRANCH   6   7
ENDBRANCH   2   6
ENDBRANCH   1   2
BRANCH   1  34
ATOM     34  P   UNL     1       7.750   2.931  25.633  0.00  0.00    +0.483 P 
ATOM     35  O   UNL     1       6.292   3.262  25.263  0.00  0.00    -0.227 OA
BRANCH  34  36
ATOM     36  O   UNL     1       7.968   4.332  26.436  0.00  0.00    -0.302 OA
ATOM     37  H   UNL     1       7.923   4.029  27.382  0.00  0.00    +0.222 HD
ENDBRANCH  34  36
BRANCH  34  38
ATOM     38  O   UNL     1       7.193   2.333  27.158  0.00  0.00    -0.284 OA
BRANCH  38  39
ATOM     39  C   UNL     1       7.265   0.924  27.490  0.00  0.00    +0.206 C 
BRANCH  39  40
ATOM     40  C   UNL     1       5.964   0.143  27.585  0.00  0.00    +0.179 C 
ATOM     41  C   UNL     1       4.868   0.851  26.821  0.00  0.00    +0.194 C 
ATOM     42  C   UNL     1       4.730   0.028  25.554  0.00  0.00    +0.196 C 
ATOM     43  C   UNL     1       5.825  -1.045  25.657  0.00  0.00    +0.253 C 
ATOM     44  O   UNL     1       6.136  -1.165  27.043  0.00  0.00    -0.346 OA
BRANCH  43  45
ATOM     45  N   UNL     1       5.476  -2.349  25.147  0.00  0.00    -0.286 N 
ATOM     46  C   UNL     1       5.859  -2.847  23.936  0.00  0.00    +0.167 A 
ATOM     47  N   UNL     1       6.480  -2.198  22.939  0.00  0.00    -0.216 NA
ATOM     48  C   UNL     1       6.677  -3.018  21.887  0.00  0.00    +0.225 A 
ATOM     49  N   UNL     1       6.376  -4.323  21.787  0.00  0.00    -0.219 NA
ATOM     50  C   UNL     1       5.786  -4.943  22.842  0.00  0.00    +0.147 A 
ATOM     51  N   UNL     1       5.513  -6.301  22.760  0.00  0.00    -0.341 N 
ATOM     52  H   UNL     1       4.804  -6.611  23.413  0.00  0.00    +0.144 HD
ATOM     53  H   UNL     1       5.457  -6.630  21.807  0.00  0.00    +0.144 HD
ATOM     54  C   UNL     1       5.477  -4.175  23.974  0.00  0.00    +0.147 A 
ATOM     55  N   UNL     1       4.856  -4.487  25.153  0.00  0.00    -0.231 NA
ATOM     56  C   UNL     1       4.875  -3.359  25.850  0.00  0.00    +0.203 A 
ENDBRANCH  43  45
BRANCH  42  57
ATOM     57  O   UNL     1       4.943   0.860  24.414  0.00  0.00    -0.385 OA
ATOM     58  H   UNL     1       4.380   0.488  23.704  0.00  0.00    +0.210 HD
ENDBRANCH  42  57
BRANCH  41  59
ATOM     59  O   UNL     1       3.694   0.800  27.620  0.00  0.00    -0.278 OA
BRANCH  59  60
ATOM     60  P   UNL     1       2.546   1.891  27.377  0.00  0.00    +0.473 P 
ATOM     61  O   UNL     1       1.917   2.482  28.593  0.00  0.00    -0.228 OA
BRANCH  60  62
ATOM     62  O   UNL     1       3.313   2.903  26.408  0.00  0.00    -0.303 OA
ATOM     63  H   UNL     1       3.656   2.484  25.604  0.00  0.00    +0.222 HD
ENDBRANCH  60  62
BRANCH  60  64
ATOM     64  O   UNL     1       1.579   1.109  26.380  0.00  0.00    -0.303 OA
ATOM     65  H   UNL     1       1.302   1.651  25.621  0.00  0.00    +0.222 HD
ENDBRANCH  60  64
ENDBRANCH  59  60
ENDBRANCH  41  59
ENDBRANCH  39  40
ENDBRANCH  38  39
ENDBRANCH  34  38
ENDBRANCH   1  34
TORSDOF 29
ENDMDL
MODEL 4
REMARK VINA RESULT:      -6.2      4.153      9.608
REMARK  Name = 
REMARK  32 active torsions:
REMARK  status: ('A' for Active; 'I' for Inactive)
REMARK    1  A    between atoms: C_1  and  C_2
REMARK    2  A    between atoms: C_2  and  C_4
REMARK    3  A    between atoms: C_2  and  C_58
REMARK    4  A    between atoms: C_4  and  S_5
REMARK    5  A    between atoms: S_5  and  C_6
REMARK    6  A    between atoms: C_6  and  C_7
REMARK    7  A    between atoms: C_7  and  N_8
REMARK    8  A    between atoms: C_9  and  C_11
REMARK    9  A    between atoms: C_11  and  C_12
REMARK   10  A    between atoms: C_12  and  N_13
REMARK   11  A    between atoms: C_14  and  C_16
REMARK   12  A    between atoms: C_16  and  O_18
REMARK   13  A    between atoms: C_16  and  C_19
REMARK   14  A    between atoms: C_19  and  C_20
REMARK   15  A    between atoms: C_19  and  C_21
REMARK   16  A    between atoms: C_19  and  C_22
REMARK   17  A    between atoms: C_22  and  O_23
REMARK   18  A    between atoms: O_23  and  P_24
REMARK   19  A    between atoms: P_24  and  O_25
REMARK   20  A    between atoms: P_24  and  O_27
REMARK   21  A    between atoms: O_27  and  P_28
REMARK   22  A    between atoms: P_28  and  O_29
REMARK   23  A    between atoms: P_28  and  O_31
REMARK   24  A    between atoms: O_31  and  C_32
REMARK   25  A    between atoms: C_32  and  C_33
REMARK   26  A    between atoms: C_36  and  N_48
REMARK   27  A    between atoms: C_38  and  O_40
REMARK   28  A    between atoms: C_41  and  O_43
REMARK   29  A    between atoms: O_43  and  P_44
REMARK   30  A    between atoms: P_44  and  O_45
REMARK   31  A    between atoms: P_44  and  O_46
REMARK   32  A    between atoms: C_58  and  O_59
REMARK                            x       y       z     vdW  Elec       q    Type
REMARK                         _______ _______ _______ _____ _____    ______ ____
ROOT
ATOM      1  O   UNL     1       2.969   2.774  24.066  0.00  0.00    -0.186 OA
ENDROOT
BRANCH   1   2
ATOM      2  P   UNL     1       3.023   3.290  25.717  0.00  0.00    +0.483 P 
ATOM      3  O   UNL     1       1.630   3.911  25.624  0.00  0.00    -0.227 OA
BRANCH   2   4
ATOM      4  O   UNL     1       3.077   3.807  27.367  0.00  0.00    -0.302 OA
ATOM      5  H   UNL     1       3.839   4.427  27.359  0.00  0.00    +0.222 HD
ENDBRANCH   2   4
BRANCH   2   6
ATOM      6  O   UNL     1       2.812   1.724  26.233  0.00  0.00    -0.286 OA
BRANCH   6   7
ATOM      7  C   UNL     1       3.647   1.308  27.309  0.00  0.00    +0.181 C 
BRANCH   7   8
ATOM      8  C   UNL     1       3.450  -0.174  27.721  0.00  0.00    +0.024 C 
ATOM      9  C   UNL     1       3.705  -0.285  29.242  0.00  0.00    +0.016 C 
ATOM     10  C   UNL     1       1.980  -0.583  27.475  0.00  0.00    +0.016 C 
BRANCH   8  11
ATOM     11  C   UNL     1       4.368  -1.132  26.907  0.00  0.00    +0.208 C 
BRANCH  11  14
ATOM     12  N   UNL     1       4.055  -3.517  27.427  0.00  0.00    -0.313 N 
ATOM     13  H   UNL     1       4.640  -3.237  28.212  0.00  0.00    +0.149 HD
ATOM     14  C   UNL     1       3.739  -2.499  26.551  0.00  0.00    +0.242 C 
ATOM     15  O   UNL     1       3.019  -2.634  25.579  0.00  0.00    -0.273 OA
BRANCH  12  16
ATOM     16  C   UNL     1       3.671  -4.922  27.369  0.00  0.00    +0.113 C 
BRANCH  16  17
ATOM     17  C   UNL     1       2.230  -5.324  27.621  0.00  0.00    +0.114 C 
BRANCH  17  20
ATOM     18  N   UNL     1       2.365  -7.540  26.589  0.00  0.00    -0.314 N 
ATOM     19  H   UNL     1       3.331  -7.550  26.942  0.00  0.00    +0.149 HD
ATOM     20  C   UNL     1       1.615  -6.411  26.820  0.00  0.00    +0.215 C 
ATOM     21  O   UNL     1       0.469  -6.346  26.417  0.00  0.00    -0.276 OA
BRANCH  18  22
ATOM     22  C   UNL     1       2.233  -8.130  25.284  0.00  0.00    +0.115 C 
BRANCH  22  23
ATOM     23  C   UNL     1       2.422  -7.233  23.877  0.00  0.00    +0.088 C 
BRANCH  23  24
ATOM     24  S   UNL     1       3.268  -5.346  23.329  0.00  0.00    -0.158 S 
BRANCH  24  25
ATOM     25  C   UNL     1       5.121  -4.914  23.916  0.00  0.00    +0.083 C 
BRANCH  25  27
ATOM     26  C   UNL     1       6.281  -3.146  22.144  0.00  0.00    +0.020 C 
ATOM     27  C   UNL     1       6.360  -4.405  23.014  0.00  0.00    +0.104 C 
BRANCH  27  28
ATOM     28  C   UNL     1       7.162  -5.512  22.286  0.00  0.00    +0.308 C 
ATOM     29  O   UNL     1       8.196  -5.998  22.717  0.00  0.00    -0.251 OA
BRANCH  28  30
ATOM     30  O   UNL     1       6.694  -5.891  21.064  0.00  0.00    -0.480 OA
ATOM     31  H   UNL     1       7.338  -5.636  20.384  0.00  0.00    +0.295 HD
ENDBRANCH  28  30
ENDBRANCH  27  28
ENDBRANCH  25  27
ENDBRANCH  24  25
ENDBRANCH  23  24
ENDBRANCH  22  23
ENDBRANCH  18  22
ENDBRANCH  17  20
ENDBRANCH  16  17
ENDBRANCH  12  16
ENDBRANCH  11  14
BRANCH  11  32
ATOM     32  O   UNL     1       4.765  -0.506  25.674  0.00  0.00    -0.382 OA
ATOM     33  H   UNL     1       5.395  -1.121  25.251  0.00  0.00    +0.210 HD
ENDBRANCH  11  32
ENDBRANCH   8  11
ENDBRANCH   7   8
ENDBRANCH   6   7
ENDBRANCH   2   6
ENDBRANCH   1   2
BRANCH   1  34
ATOM     34  P   UNL     1       4.526   2.985  23.345  0.00  0.00    +0.483 P 
ATOM     35  O   UNL     1       5.049   1.709  24.031  0.00  0.00    -0.227 OA
BRANCH  34  36
ATOM     36  O   UNL     1       5.104   3.965  24.510  0.00  0.00    -0.302 OA
ATOM     37  H   UNL     1       5.916   3.472  24.802  0.00  0.00    +0.222 HD
ENDBRANCH  34  36
BRANCH  34  38
ATOM     38  O   UNL     1       6.085   3.195  22.623  0.00  0.00    -0.284 OA
BRANCH  38  39
ATOM     39  C   UNL     1       6.818   2.075  22.066  0.00  0.00    +0.206 C 
BRANCH  39  40
ATOM     40  C   UNL     1       8.241   1.840  22.549  0.00  0.00    +0.179 C 
ATOM     41  C   UNL     1       8.412   2.361  23.957  0.00  0.00    +0.194 C 
ATOM     42  C   UNL     1       8.409   1.102  24.805  0.00  0.00    +0.196 C 
ATOM     43  C   UNL     1       8.151  -0.042  23.812  0.00  0.00    +0.253 C 
ATOM     44  O   UNL     1       8.540   0.445  22.530  0.00  0.00    -0.346 OA
BRANCH  43  45
ATOM     45  N   UNL     1       8.859  -1.272  24.074  0.00  0.00    -0.286 N 
ATOM     46  C   UNL     1       8.504  -2.200  25.009  0.00  0.00    +0.167 A 
ATOM     47  N   UNL     1       7.555  -2.095  25.953  0.00  0.00    -0.216 NA
ATOM     48  C   UNL     1       7.510  -3.211  26.707  0.00  0.00    +0.225 A 
ATOM     49  N   UNL     1       8.234  -4.334  26.571  0.00  0.00    -0.219 NA
ATOM     50  C   UNL     1       9.152  -4.403  25.572  0.00  0.00    +0.147 A 
ATOM     51  N   UNL     1       9.872  -5.577  25.399  0.00  0.00    -0.341 N 
ATOM     52  H   UNL     1      10.732  -5.451  24.879  0.00  0.00    +0.144 HD
ATOM     53  H   UNL     1       9.900  -6.144  26.235  0.00  0.00    +0.144 HD
ATOM     54  C   UNL     1       9.332  -3.278  24.756  0.00  0.00    +0.147 A 
ATOM     55  N   UNL     1      10.188  -3.022  23.719  0.00  0.00    -0.231 NA
ATOM     56  C   UNL     1       9.874  -1.798  23.319  0.00  0.00    +0.203 A 
ENDBRANCH  43  45
BRANCH  42  57
ATOM     57  O   UNL     1       7.365   1.176  25.774  0.00  0.00    -0.385 OA
ATOM     58  H   UNL     1       7.069   0.253  25.918  0.00  0.00    +0.210 HD
ENDBRANCH  42  57
BRANCH  41  59
ATOM     59  O   UNL     1       9.661   3.037  24.010  0.00  0.00    -0.278 OA
BRANCH  59  60
ATOM     60  P   UNL     1       9.675   4.638  23.969  0.00  0.00    +0.473 P 
ATOM     61  O   UNL     1       9.439   5.342  25.262  0.00  0.00    -0.228 OA
BRANCH  60  62
ATOM     62  O   UNL     1      11.085   4.894  23.265  0.00  0.00    -0.303 OA
ATOM     63  H   UNL     1      11.796   5.112  23.888  0.00  0.00    +0.222 HD
ENDBRANCH  60  62
BRANCH  60  64
ATOM     64  O   UNL     1       8.635   4.929  22.797  0.00  0.00    -0.303 OA
ATOM     65  H   UNL     1       8.020   4.190  22.647  0.00  0.00    +0.222 HD
ENDBRANCH  60  64
ENDBRANCH  59  60
ENDBRANCH  41  59
ENDBRANCH  39  40
ENDBRANCH  38  39
ENDBRANCH  34  38
ENDBRANCH   1  34
TORSDOF 29
ENDMDL
MODEL 5
REMARK VINA RESULT:      -6.2      3.788      8.543
REMARK  Name = 
REMARK  32 active torsions:
REMARK  status: ('A' for Active; 'I' for Inactive)
REMARK    1  A    between atoms: C_1  and  C_2
REMARK    2  A    between atoms: C_2  and  C_4
REMARK    3  A    between atoms: C_2  and  C_58
REMARK    4  A    between atoms: C_4  and  S_5
REMARK    5  A    between atoms: S_5  and  C_6
REMARK    6  A    between atoms: C_6  and  C_7
REMARK    7  A    between atoms: C_7  and  N_8
REMARK    8  A    between atoms: C_9  and  C_11
REMARK    9  A    between atoms: C_11  and  C_12
REMARK   10  A    between atoms: C_12  and  N_13
REMARK   11  A    between atoms: C_14  and  C_16
REMARK   12  A    between atoms: C_16  and  O_18
REMARK   13  A    between atoms: C_16  and  C_19
REMARK   14  A    between atoms: C_19  and  C_20
REMARK   15  A    between atoms: C_19  and  C_21
REMARK   16  A    between atoms: C_19  and  C_22
REMARK   17  A    between atoms: C_22  and  O_23
REMARK   18  A    between atoms: O_23  and  P_24
REMARK   19  A    between atoms: P_24  and  O_25
REMARK   20  A    between atoms: P_24  and  O_27
REMARK   21  A    between atoms: O_27  and  P_28
REMARK   22  A    between atoms: P_28  and  O_29
REMARK   23  A    between atoms: P_28  and  O_31
REMARK   24  A    between atoms: O_31  and  C_32
REMARK   25  A    between atoms: C_32  and  C_33
REMARK   26  A    between atoms: C_36  and  N_48
REMARK   27  A    between atoms: C_38  and  O_40
REMARK   28  A    between atoms: C_41  and  O_43
REMARK   29  A    between atoms: O_43  and  P_44
REMARK   30  A    between atoms: P_44  and  O_45
REMARK   31  A    between atoms: P_44  and  O_46
REMARK   32  A    between atoms: C_58  and  O_59
REMARK                            x       y       z     vdW  Elec       q    Type
REMARK                         _______ _______ _______ _____ _____    ______ ____
ROOT
ATOM      1  O   UNL     1       8.940   2.769  23.536  0.00  0.00    -0.186 OA
ENDROOT
BRANCH   1   2
ATOM      2  P   UNL     1       7.595   3.471  22.702  0.00  0.00    +0.483 P 
ATOM      3  O   UNL     1       7.092   2.100  22.251  0.00  0.00    -0.227 OA
BRANCH   2   4
ATOM      4  O   UNL     1       6.251   4.171  21.869  0.00  0.00    -0.302 OA
ATOM      5  H   UNL     1       5.617   4.327  22.604  0.00  0.00    +0.222 HD
ENDBRANCH   2   4
BRANCH   2   6
ATOM      6  O   UNL     1       6.846   3.799  24.149  0.00  0.00    -0.286 OA
BRANCH   6   7
ATOM      7  C   UNL     1       6.727   5.177  24.487  0.00  0.00    +0.181 C 
BRANCH   7   8
ATOM      8  C   UNL     1       7.496   5.579  25.772  0.00  0.00    +0.024 C 
ATOM      9  C   UNL     1       8.995   5.701  25.414  0.00  0.00    +0.016 C 
ATOM     10  C   UNL     1       7.024   6.975  26.237  0.00  0.00    +0.016 C 
BRANCH   8  11
ATOM     11  C   UNL     1       7.257   4.571  26.933  0.00  0.00    +0.208 C 
BRANCH  11  14
ATOM     12  N   UNL     1       5.315   3.065  26.828  0.00  0.00    -0.313 N 
ATOM     13  H   UNL     1       6.014   2.489  26.363  0.00  0.00    +0.149 HD
ATOM     14  C   UNL     1       5.774   4.289  27.267  0.00  0.00    +0.242 C 
ATOM     15  O   UNL     1       5.095   5.094  27.879  0.00  0.00    -0.273 OA
BRANCH  12  16
ATOM     16  C   UNL     1       3.974   2.502  26.935  0.00  0.00    +0.113 C 
BRANCH  16  17
ATOM     17  C   UNL     1       3.604   1.649  28.135  0.00  0.00    +0.114 C 
BRANCH  17  20
ATOM     18  N   UNL     1       2.243  -0.180  29.024  0.00  0.00    -0.314 N 
ATOM     19  H   UNL     1       2.343   0.301  29.928  0.00  0.00    +0.149 HD
ATOM     20  C   UNL     1       2.881   0.369  27.938  0.00  0.00    +0.215 C 
ATOM     21  O   UNL     1       2.801  -0.165  26.848  0.00  0.00    -0.276 OA
BRANCH  18  22
ATOM     22  C   UNL     1       2.305  -1.613  29.137  0.00  0.00    +0.115 C 
BRANCH  22  23
ATOM     23  C   UNL     1       3.737  -2.418  29.487  0.00  0.00    +0.088 C 
BRANCH  23  24
ATOM     24  S   UNL     1       4.319  -4.402  30.036  0.00  0.00    -0.158 S 
BRANCH  24  25
ATOM     25  C   UNL     1       5.632  -5.371  28.896  0.00  0.00    +0.083 C 
BRANCH  25  27
ATOM     26  C   UNL     1       5.034  -6.660  26.532  0.00  0.00    +0.020 C 
ATOM     27  C   UNL     1       5.663  -5.484  27.286  0.00  0.00    +0.104 C 
BRANCH  27  28
ATOM     28  C   UNL     1       6.988  -5.056  26.606  0.00  0.00    +0.308 C 
ATOM     29  O   UNL     1       7.931  -5.809  26.421  0.00  0.00    -0.251 OA
BRANCH  28  30
ATOM     30  O   UNL     1       7.097  -3.740  26.273  0.00  0.00    -0.480 OA
ATOM     31  H   UNL     1       7.886  -3.369  26.699  0.00  0.00    +0.295 HD
ENDBRANCH  28  30
ENDBRANCH  27  28
ENDBRANCH  25  27
ENDBRANCH  24  25
ENDBRANCH  23  24
ENDBRANCH  22  23
ENDBRANCH  18  22
ENDBRANCH  17  20
ENDBRANCH  16  17
ENDBRANCH  12  16
ENDBRANCH  11  14
BRANCH  11  32
ATOM     32  O   UNL     1       7.876   3.309  26.626  0.00  0.00    -0.382 OA
ATOM     33  H   UNL     1       8.014   3.306  25.659  0.00  0.00    +0.210 HD
ENDBRANCH  11  32
ENDBRANCH   8  11
ENDBRANCH   7   8
ENDBRANCH   6   7
ENDBRANCH   2   6
ENDBRANCH   1   2
BRANCH   1  34
ATOM     34  P   UNL     1       9.322   1.238  22.828  0.00  0.00    +0.483 P 
ATOM     35  O   UNL     1      10.684   1.213  23.546  0.00  0.00    -0.227 OA
BRANCH  34  36
ATOM     36  O   UNL     1       9.946   1.854  21.456  0.00  0.00    -0.302 OA
ATOM     37  H   UNL     1      10.004   2.821  21.678  0.00  0.00    +0.222 HD
ENDBRANCH  34  36
BRANCH  34  38
ATOM     38  O   UNL     1       9.704  -0.294  22.121  0.00  0.00    -0.284 OA
BRANCH  38  39
ATOM     39  C   UNL     1      10.206  -1.393  22.922  0.00  0.00    +0.206 C 
BRANCH  39  40
ATOM     40  C   UNL     1       9.281  -1.999  23.965  0.00  0.00    +0.179 C 
ATOM     41  C   UNL     1       8.132  -1.062  24.260  0.00  0.00    +0.194 C 
ATOM     42  C   UNL     1       6.962  -1.694  23.528  0.00  0.00    +0.196 C 
ATOM     43  C   UNL     1       7.560  -2.907  22.799  0.00  0.00    +0.253 C 
ATOM     44  O   UNL     1       8.759  -3.241  23.495  0.00  0.00    -0.346 OA
BRANCH  43  45
ATOM     45  N   UNL     1       6.720  -4.079  22.737  0.00  0.00    -0.286 N 
ATOM     46  C   UNL     1       5.485  -4.191  23.307  0.00  0.00    +0.167 A 
ATOM     47  N   UNL     1       4.884  -3.332  24.143  0.00  0.00    -0.216 NA
ATOM     48  C   UNL     1       3.674  -3.795  24.513  0.00  0.00    +0.225 A 
ATOM     49  N   UNL     1       3.057  -4.918  24.108  0.00  0.00    -0.219 NA
ATOM     50  C   UNL     1       3.693  -5.733  23.226  0.00  0.00    +0.147 A 
ATOM     51  N   UNL     1       3.044  -6.871  22.771  0.00  0.00    -0.341 N 
ATOM     52  H   UNL     1       3.671  -7.573  22.398  0.00  0.00    +0.144 HD
ATOM     53  H   UNL     1       2.306  -7.174  23.392  0.00  0.00    +0.144 HD
ATOM     54  C   UNL     1       4.987  -5.384  22.815  0.00  0.00    +0.147 A 
ATOM     55  N   UNL     1       5.887  -6.003  21.990  0.00  0.00    -0.231 NA
ATOM     56  C   UNL     1       6.929  -5.185  21.956  0.00  0.00    +0.203 A 
ENDBRANCH  43  45
BRANCH  42  57
ATOM     57  O   UNL     1       6.418  -0.762  22.595  0.00  0.00    -0.385 OA
ATOM     58  H   UNL     1       6.113  -1.295  21.832  0.00  0.00    +0.210 HD
ENDBRANCH  42  57
BRANCH  41  59
ATOM     59  O   UNL     1       7.940  -1.056  25.667  0.00  0.00    -0.278 OA
BRANCH  59  60
ATOM     60  P   UNL     1       6.850  -0.064  26.294  0.00  0.00    +0.473 P 
ATOM     61  O   UNL     1       7.171   0.529  27.624  0.00  0.00    -0.228 OA
BRANCH  60  62
ATOM     62  O   UNL     1       6.665   0.960  25.083  0.00  0.00    -0.303 OA
ATOM     63  H   UNL     1       6.300   1.818  25.353  0.00  0.00    +0.222 HD
ENDBRANCH  60  62
BRANCH  60  64
ATOM     64  O   UNL     1       5.532  -0.956  26.210  0.00  0.00    -0.303 OA
ATOM     65  H   UNL     1       5.551  -1.716  26.817  0.00  0.00    +0.222 HD
ENDBRANCH  60  64
ENDBRANCH  59  60
ENDBRANCH  41  59
ENDBRANCH  39  40
ENDBRANCH  38  39
ENDBRANCH  34  38
ENDBRANCH   1  34
TORSDOF 29
ENDMDL
MODEL 6
REMARK VINA RESULT:      -6.1      3.346      6.965
REMARK  Name = 
REMARK  32 active torsions:
REMARK  status: ('A' for Active; 'I' for Inactive)
REMARK    1  A    between atoms: C_1  and  C_2
REMARK    2  A    between atoms: C_2  and  C_4
REMARK    3  A    between atoms: C_2  and  C_58
REMARK    4  A    between atoms: C_4  and  S_5
REMARK    5  A    between atoms: S_5  and  C_6
REMARK    6  A    between atoms: C_6  and  C_7
REMARK    7  A    between atoms: C_7  and  N_8
REMARK    8  A    between atoms: C_9  and  C_11
REMARK    9  A    between atoms: C_11  and  C_12
REMARK   10  A    between atoms: C_12  and  N_13
REMARK   11  A    between atoms: C_14  and  C_16
REMARK   12  A    between atoms: C_16  and  O_18
REMARK   13  A    between atoms: C_16  and  C_19
REMARK   14  A    between atoms: C_19  and  C_20
REMARK   15  A    between atoms: C_19  and  C_21
REMARK   16  A    between atoms: C_19  and  C_22
REMARK   17  A    between atoms: C_22  and  O_23
REMARK   18  A    between atoms: O_23  and  P_24
REMARK   19  A    between atoms: P_24  and  O_25
REMARK   20  A    between atoms: P_24  and  O_27
REMARK   21  A    between atoms: O_27  and  P_28
REMARK   22  A    between atoms: P_28  and  O_29
REMARK   23  A    between atoms: P_28  and  O_31
REMARK   24  A    between atoms: O_31  and  C_32
REMARK   25  A    between atoms: C_32  and  C_33
REMARK   26  A    between atoms: C_36  and  N_48
REMARK   27  A    between atoms: C_38  and  O_40
REMARK   28  A    between atoms: C_41  and  O_43
REMARK   29  A    between atoms: O_43  and  P_44
REMARK   30  A    between atoms: P_44  and  O_45
REMARK   31  A    between atoms: P_44  and  O_46
REMARK   32  A    between atoms: C_58  and  O_59
REMARK                            x       y       z     vdW  Elec       q    Type
REMARK                         _______ _______ _______ _____ _____    ______ ____
ROOT
ATOM      1  O   UNL     1       6.282   1.738  26.263  0.00  0.00    -0.186 OA
ENDROOT
BRANCH   1   2
ATOM      2  P   UNL     1       6.212   1.064  24.671  0.00  0.00    +0.483 P 
ATOM      3  O   UNL     1       5.488  -0.184  25.174  0.00  0.00    -0.227 OA
BRANCH   2   4
ATOM      4  O   UNL     1       6.143   0.389  23.080  0.00  0.00    -0.302 OA
ATOM      5  H   UNL     1       5.952   1.183  22.532  0.00  0.00    +0.222 HD
ENDBRANCH   2   4
BRANCH   2   6
ATOM      6  O   UNL     1       5.034   2.155  24.240  0.00  0.00    -0.286 OA
BRANCH   6   7
ATOM      7  C   UNL     1       5.404   3.528  24.315  0.00  0.00    +0.181 C 
BRANCH   7   8
ATOM      8  C   UNL     1       4.531   4.463  23.439  0.00  0.00    +0.024 C 
ATOM      9  C   UNL     1       4.021   3.647  22.230  0.00  0.00    +0.016 C 
ATOM     10  C   UNL     1       3.289   4.908  24.245  0.00  0.00    +0.016 C 
BRANCH   8  11
ATOM     11  C   UNL     1       5.307   5.737  22.994  0.00  0.00    +0.208 C 
BRANCH  11  14
ATOM     12  N   UNL     1       7.655   6.333  23.425  0.00  0.00    -0.313 N 
ATOM     13  H   UNL     1       7.188   6.952  24.085  0.00  0.00    +0.149 HD
ATOM     14  C   UNL     1       6.809   5.522  22.696  0.00  0.00    +0.242 C 
ATOM     15  O   UNL     1       7.185   4.691  21.891  0.00  0.00    -0.273 OA
BRANCH  12  16
ATOM     16  C   UNL     1       9.109   6.420  23.365  0.00  0.00    +0.113 C 
BRANCH  16  17
ATOM     17  C   UNL     1       9.960   5.469  24.186  0.00  0.00    +0.114 C 
BRANCH  17  20
ATOM     18  N   UNL     1       9.713   3.329  23.025  0.00  0.00    -0.314 N 
ATOM     19  H   UNL     1       8.703   3.475  23.153  0.00  0.00    +0.149 HD
ATOM     20  C   UNL     1      10.563   4.275  23.545  0.00  0.00    +0.215 C 
ATOM     21  O   UNL     1      11.768   4.146  23.427  0.00  0.00    -0.276 OA
BRANCH  18  22
ATOM     22  C   UNL     1      10.112   1.958  23.197  0.00  0.00    +0.115 C 
BRANCH  22  23
ATOM     23  C   UNL     1       9.880   0.804  21.998  0.00  0.00    +0.088 C 
BRANCH  23  24
ATOM     24  S   UNL     1       9.238  -1.234  21.895  0.00  0.00    -0.158 S 
BRANCH  24  25
ATOM     25  C   UNL     1       9.617  -2.443  23.431  0.00  0.00    +0.083 C 
BRANCH  25  27
ATOM     26  C   UNL     1       8.573  -2.171  25.969  0.00  0.00    +0.020 C 
ATOM     27  C   UNL     1       8.618  -2.891  24.617  0.00  0.00    +0.104 C 
BRANCH  27  28
ATOM     28  C   UNL     1       8.451  -4.418  24.816  0.00  0.00    +0.308 C 
ATOM     29  O   UNL     1       8.795  -5.253  23.993  0.00  0.00    -0.251 OA
BRANCH  28  30
ATOM     30  O   UNL     1       7.816  -4.812  25.954  0.00  0.00    -0.480 OA
ATOM     31  H   UNL     1       7.717  -4.048  26.544  0.00  0.00    +0.295 HD
ENDBRANCH  28  30
ENDBRANCH  27  28
ENDBRANCH  25  27
ENDBRANCH  24  25
ENDBRANCH  23  24
ENDBRANCH  22  23
ENDBRANCH  18  22
ENDBRANCH  17  20
ENDBRANCH  16  17
ENDBRANCH  12  16
ENDBRANCH  11  14
BRANCH  11  32
ATOM     32  O   UNL     1       4.707   6.290  21.809  0.00  0.00    -0.382 OA
ATOM     33  H   UNL     1       4.421   5.526  21.271  0.00  0.00    +0.210 HD
ENDBRANCH  11  32
ENDBRANCH   8  11
ENDBRANCH   7   8
ENDBRANCH   6   7
ENDBRANCH   2   6
ENDBRANCH   1   2
BRANCH   1  34
ATOM     34  P   UNL     1       5.609   0.616  27.394  0.00  0.00    +0.483 P 
ATOM     35  O   UNL     1       5.471   1.724  28.455  0.00  0.00    -0.227 OA
BRANCH  34  36
ATOM     36  O   UNL     1       7.042   0.105  27.974  0.00  0.00    -0.302 OA
ATOM     37  H   UNL     1       6.757  -0.485  28.722  0.00  0.00    +0.222 HD
ENDBRANCH  34  36
BRANCH  34  38
ATOM     38  O   UNL     1       4.936  -0.506  28.526  0.00  0.00    -0.284 OA
BRANCH  38  39
ATOM     39  C   UNL     1       4.318  -1.743  28.089  0.00  0.00    +0.206 C 
BRANCH  39  40
ATOM     40  C   UNL     1       5.206  -2.967  27.923  0.00  0.00    +0.179 C 
ATOM     41  C   UNL     1       4.632  -4.141  28.683  0.00  0.00    +0.194 C 
ATOM     42  C   UNL     1       4.026  -5.006  27.594  0.00  0.00    +0.196 C 
ATOM     43  C   UNL     1       4.231  -4.210  26.296  0.00  0.00    +0.253 C 
ATOM     44  O   UNL     1       5.311  -3.313  26.544  0.00  0.00    -0.346 OA
BRANCH  43  45
ATOM     45  N   UNL     1       4.539  -4.991  25.122  0.00  0.00    -0.286 N 
ATOM     46  C   UNL     1       4.970  -4.484  23.931  0.00  0.00    +0.167 A 
ATOM     47  N   UNL     1       5.044  -3.195  23.564  0.00  0.00    -0.216 NA
ATOM     48  C   UNL     1       5.501  -3.086  22.301  0.00  0.00    +0.225 A 
ATOM     49  N   UNL     1       5.900  -4.067  21.476  0.00  0.00    -0.219 NA
ATOM     50  C   UNL     1       5.846  -5.353  21.913  0.00  0.00    +0.147 A 
ATOM     51  N   UNL     1       6.298  -6.367  21.082  0.00  0.00    -0.341 N 
ATOM     52  H   UNL     1       5.935  -7.280  21.323  0.00  0.00    +0.144 HD
ATOM     53  H   UNL     1       6.303  -6.100  20.107  0.00  0.00    +0.144 HD
ATOM     54  C   UNL     1       5.330  -5.597  23.193  0.00  0.00    +0.147 A 
ATOM     55  N   UNL     1       5.106  -6.755  23.888  0.00  0.00    -0.231 NA
ATOM     56  C   UNL     1       4.631  -6.357  25.060  0.00  0.00    +0.203 A 
ENDBRANCH  43  45
BRANCH  42  57
ATOM     57  O   UNL     1       2.637  -5.203  27.852  0.00  0.00    -0.385 OA
ATOM     58  H   UNL     1       2.163  -4.703  27.155  0.00  0.00    +0.210 HD
ENDBRANCH  42  57
BRANCH  41  59
ATOM     59  O   UNL     1       5.711  -4.789  29.340  0.00  0.00    -0.278 OA
BRANCH  59  60
ATOM     60  P   UNL     1       5.940  -6.355  29.091  0.00  0.00    +0.473 P 
ATOM     61  O   UNL     1       4.763  -7.134  28.611  0.00  0.00    -0.228 OA
BRANCH  60  62
ATOM     62  O   UNL     1       7.208  -6.309  28.122  0.00  0.00    -0.303 OA
ATOM     63  H   UNL     1       7.301  -7.099  27.567  0.00  0.00    +0.222 HD
ENDBRANCH  60  62
BRANCH  60  64
ATOM     64  O   UNL     1       6.573  -6.803  30.484  0.00  0.00    -0.303 OA
ATOM     65  H   UNL     1       7.246  -6.180  30.810  0.00  0.00    +0.222 HD
ENDBRANCH  60  64
ENDBRANCH  59  60
ENDBRANCH  41  59
ENDBRANCH  39  40
ENDBRANCH  38  39
ENDBRANCH  34  38
ENDBRANCH   1  34
TORSDOF 29
ENDMDL
MODEL 7
REMARK VINA RESULT:      -6.1      3.199      8.346
REMARK  Name = 
REMARK  32 active torsions:
REMARK  status: ('A' for Active; 'I' for Inactive)
REMARK    1  A    between atoms: C_1  and  C_2
REMARK    2  A    between atoms: C_2  and  C_4
REMARK    3  A    between atoms: C_2  and  C_58
REMARK    4  A    between atoms: C_4  and  S_5
REMARK    5  A    between atoms: S_5  and  C_6
REMARK    6  A    between atoms: C_6  and  C_7
REMARK    7  A    between atoms: C_7  and  N_8
REMARK    8  A    between atoms: C_9  and  C_11
REMARK    9  A    between atoms: C_11  and  C_12
REMARK   10  A    between atoms: C_12  and  N_13
REMARK   11  A    between atoms: C_14  and  C_16
REMARK   12  A    between atoms: C_16  and  O_18
REMARK   13  A    between atoms: C_16  and  C_19
REMARK   14  A    between atoms: C_19  and  C_20
REMARK   15  A    between atoms: C_19  and  C_21
REMARK   16  A    between atoms: C_19  and  C_22
REMARK   17  A    between atoms: C_22  and  O_23
REMARK   18  A    between atoms: O_23  and  P_24
REMARK   19  A    between atoms: P_24  and  O_25
REMARK   20  A    between atoms: P_24  and  O_27
REMARK   21  A    between atoms: O_27  and  P_28
REMARK   22  A    between atoms: P_28  and  O_29
REMARK   23  A    between atoms: P_28  and  O_31
REMARK   24  A    between atoms: O_31  and  C_32
REMARK   25  A    between atoms: C_32  and  C_33
REMARK   26  A    between atoms: C_36  and  N_48
REMARK   27  A    between atoms: C_38  and  O_40
REMARK   28  A    between atoms: C_41  and  O_43
REMARK   29  A    between atoms: O_43  and  P_44
REMARK   30  A    between atoms: P_44  and  O_45
REMARK   31  A    between atoms: P_44  and  O_46
REMARK   32  A    between atoms: C_58  and  O_59
REMARK                            x       y       z     vdW  Elec       q    Type
REMARK                         _______ _______ _______ _____ _____    ______ ____
ROOT
ATOM      1  O   UNL     1       7.825  -2.082  22.123  0.00  0.00    -0.186 OA
ENDROOT
BRANCH   1   2
ATOM      2  P   UNL     1       6.311  -2.757  22.619  0.00  0.00    +0.483 P 
ATOM      3  O   UNL     1       6.125  -3.461  21.276  0.00  0.00    -0.227 OA
BRANCH   2   4
ATOM      4  O   UNL     1       4.797  -3.431  23.114  0.00  0.00    -0.302 OA
ATOM      5  H   UNL     1       4.647  -4.116  22.426  0.00  0.00    +0.222 HD
ENDBRANCH   2   4
BRANCH   2   6
ATOM      6  O   UNL     1       7.095  -3.832  23.615  0.00  0.00    -0.286 OA
BRANCH   6   7
ATOM      7  C   UNL     1       6.923  -3.622  25.013  0.00  0.00    +0.181 C 
BRANCH   7   8
ATOM      8  C   UNL     1       8.230  -3.760  25.835  0.00  0.00    +0.024 C 
ATOM      9  C   UNL     1       9.405  -3.922  24.843  0.00  0.00    +0.016 C 
ATOM     10  C   UNL     1       8.479  -2.454  26.624  0.00  0.00    +0.016 C 
BRANCH   8  11
ATOM     11  C   UNL     1       8.160  -4.938  26.849  0.00  0.00    +0.208 C 
BRANCH  11  14
ATOM     12  N   UNL     1       6.117  -6.287  26.602  0.00  0.00    -0.313 N 
ATOM     13  H   UNL     1       6.678  -6.671  25.845  0.00  0.00    +0.149 HD
ATOM     14  C   UNL     1       6.739  -5.300  27.340  0.00  0.00    +0.242 C 
ATOM     15  O   UNL     1       6.241  -4.755  28.307  0.00  0.00    -0.273 OA
BRANCH  12  16
ATOM     16  C   UNL     1       4.775  -6.835  26.762  0.00  0.00    +0.113 C 
BRANCH  16  17
ATOM     17  C   UNL     1       3.613  -6.229  25.998  0.00  0.00    +0.114 C 
BRANCH  17  20
ATOM     18  N   UNL     1       3.220  -4.336  27.499  0.00  0.00    -0.314 N 
ATOM     19  H   UNL     1       3.399  -5.011  28.255  0.00  0.00    +0.149 HD
ATOM     20  C   UNL     1       3.252  -4.805  26.208  0.00  0.00    +0.215 C 
ATOM     21  O   UNL     1       3.038  -4.050  25.277  0.00  0.00    -0.276 OA
BRANCH  18  22
ATOM     22  C   UNL     1       2.165  -3.408  27.809  0.00  0.00    +0.115 C 
BRANCH  22  23
ATOM     23  C   UNL     1       2.293  -2.302  29.067  0.00  0.00    +0.088 C 
BRANCH  23  24
ATOM     24  S   UNL     1       3.823  -1.072  29.917  0.00  0.00    -0.158 S 
BRANCH  24  25
ATOM     25  C   UNL     1       4.643   0.356  28.799  0.00  0.00    +0.083 C 
BRANCH  25  27
ATOM     26  C   UNL     1       4.803  -0.914  26.355  0.00  0.00    +0.020 C 
ATOM     27  C   UNL     1       5.180   0.249  27.280  0.00  0.00    +0.104 C 
BRANCH  27  28
ATOM     28  C   UNL     1       6.657   0.656  27.058  0.00  0.00    +0.308 C 
ATOM     29  O   UNL     1       7.488   0.719  27.951  0.00  0.00    -0.251 OA
BRANCH  28  30
ATOM     30  O   UNL     1       6.997   1.026  25.792  0.00  0.00    -0.480 OA
ATOM     31  H   UNL     1       7.153   0.231  25.259  0.00  0.00    +0.295 HD
ENDBRANCH  28  30
ENDBRANCH  27  28
ENDBRANCH  25  27
ENDBRANCH  24  25
ENDBRANCH  23  24
ENDBRANCH  22  23
ENDBRANCH  18  22
ENDBRANCH  17  20
ENDBRANCH  16  17
ENDBRANCH  12  16
ENDBRANCH  11  14
BRANCH  11  32
ATOM     32  O   UNL     1       8.729  -6.124  26.266  0.00  0.00    -0.382 OA
ATOM     33  H   UNL     1       9.204  -6.577  26.990  0.00  0.00    +0.210 HD
ENDBRANCH  11  32
ENDBRANCH   8  11
ENDBRANCH   7   8
ENDBRANCH   6   7
ENDBRANCH   2   6
ENDBRANCH   1   2
BRANCH   1  34
ATOM     34  P   UNL     1       7.875  -0.405  22.544  0.00  0.00    +0.483 P 
ATOM     35  O   UNL     1       8.629  -0.725  23.849  0.00  0.00    -0.227 OA
BRANCH  34  36
ATOM     36  O   UNL     1       6.420  -0.387  23.275  0.00  0.00    -0.302 OA
ATOM     37  H   UNL     1       5.951  -1.128  22.807  0.00  0.00    +0.222 HD
ENDBRANCH  34  36
BRANCH  34  38
ATOM     38  O   UNL     1       7.925   1.272  22.966  0.00  0.00    -0.284 OA
BRANCH  38  39
ATOM     39  C   UNL     1       9.042   2.115  22.587  0.00  0.00    +0.206 C 
BRANCH  39  40
ATOM     40  C   UNL     1       9.815   2.819  23.691  0.00  0.00    +0.179 C 
ATOM     41  C   UNL     1      10.461   4.079  23.162  0.00  0.00    +0.194 C 
ATOM     42  C   UNL     1       9.579   5.186  23.708  0.00  0.00    +0.196 C 
ATOM     43  C   UNL     1       8.442   4.460  24.443  0.00  0.00    +0.253 C 
ATOM     44  O   UNL     1       8.937   3.162  24.762  0.00  0.00    -0.346 OA
BRANCH  43  45
ATOM     45  N   UNL     1       7.977   5.088  25.657  0.00  0.00    -0.286 N 
ATOM     46  C   UNL     1       6.829   4.765  26.319  0.00  0.00    +0.167 A 
ATOM     47  N   UNL     1       5.850   3.941  25.915  0.00  0.00    -0.216 NA
ATOM     48  C   UNL     1       4.864   3.889  26.832  0.00  0.00    +0.225 A 
ATOM     49  N   UNL     1       4.811   4.497  28.028  0.00  0.00    -0.219 NA
ATOM     50  C   UNL     1       5.849   5.286  28.408  0.00  0.00    +0.147 A 
ATOM     51  N   UNL     1       5.820   5.882  29.661  0.00  0.00    -0.341 N 
ATOM     52  H   UNL     1       6.431   6.685  29.741  0.00  0.00    +0.144 HD
ATOM     53  H   UNL     1       4.885   5.957  30.035  0.00  0.00    +0.144 HD
ATOM     54  C   UNL     1       6.909   5.466  27.509  0.00  0.00    +0.147 A 
ATOM     55  N   UNL     1       8.052   6.217  27.574  0.00  0.00    -0.231 NA
ATOM     56  C   UNL     1       8.685   5.964  26.437  0.00  0.00    +0.203 A 
ENDBRANCH  43  45
BRANCH  42  57
ATOM     57  O   UNL     1       9.066   5.969  22.632  0.00  0.00    -0.385 OA
ATOM     58  H   UNL     1       8.743   6.801  23.037  0.00  0.00    +0.210 HD
ENDBRANCH  42  57
BRANCH  41  59
ATOM     59  O   UNL     1      11.778   4.135  23.693  0.00  0.00    -0.278 OA
BRANCH  59  60
ATOM     60  P   UNL     1      12.686   5.415  23.372  0.00  0.00    +0.473 P 
ATOM     61  O   UNL     1      12.505   6.602  24.255  0.00  0.00    -0.228 OA
BRANCH  60  62
ATOM     62  O   UNL     1      14.135   4.744  23.368  0.00  0.00    -0.303 OA
ATOM     63  H   UNL     1      14.820   5.303  22.970  0.00  0.00    +0.222 HD
ENDBRANCH  60  62
BRANCH  60  64
ATOM     64  O   UNL     1      12.389   5.627  21.820  0.00  0.00    -0.303 OA
ATOM     65  H   UNL     1      11.759   4.976  21.465  0.00  0.00    +0.222 HD
ENDBRANCH  60  64
ENDBRANCH  59  60
ENDBRANCH  41  59
ENDBRANCH  39  40
ENDBRANCH  38  39
ENDBRANCH  34  38
ENDBRANCH   1  34
TORSDOF 29
ENDMDL
MODEL 8
REMARK VINA RESULT:      -6.0      3.452      6.766
REMARK  Name = 
REMARK  32 active torsions:
REMARK  status: ('A' for Active; 'I' for Inactive)
REMARK    1  A    between atoms: C_1  and  C_2
REMARK    2  A    between atoms: C_2  and  C_4
REMARK    3  A    between atoms: C_2  and  C_58
REMARK    4  A    between atoms: C_4  and  S_5
REMARK    5  A    between atoms: S_5  and  C_6
REMARK    6  A    between atoms: C_6  and  C_7
REMARK    7  A    between atoms: C_7  and  N_8
REMARK    8  A    between atoms: C_9  and  C_11
REMARK    9  A    between atoms: C_11  and  C_12
REMARK   10  A    between atoms: C_12  and  N_13
REMARK   11  A    between atoms: C_14  and  C_16
REMARK   12  A    between atoms: C_16  and  O_18
REMARK   13  A    between atoms: C_16  and  C_19
REMARK   14  A    between atoms: C_19  and  C_20
REMARK   15  A    between atoms: C_19  and  C_21
REMARK   16  A    between atoms: C_19  and  C_22
REMARK   17  A    between atoms: C_22  and  O_23
REMARK   18  A    between atoms: O_23  and  P_24
REMARK   19  A    between atoms: P_24  and  O_25
REMARK   20  A    between atoms: P_24  and  O_27
REMARK   21  A    between atoms: O_27  and  P_28
REMARK   22  A    between atoms: P_28  and  O_29
REMARK   23  A    between atoms: P_28  and  O_31
REMARK   24  A    between atoms: O_31  and  C_32
REMARK   25  A    between atoms: C_32  and  C_33
REMARK   26  A    between atoms: C_36  and  N_48
REMARK   27  A    between atoms: C_38  and  O_40
REMARK   28  A    between atoms: C_41  and  O_43
REMARK   29  A    between atoms: O_43  and  P_44
REMARK   30  A    between atoms: P_44  and  O_45
REMARK   31  A    between atoms: P_44  and  O_46
REMARK   32  A    between atoms: C_58  and  O_59
REMARK                            x       y       z     vdW  Elec       q    Type
REMARK                         _______ _______ _______ _____ _____    ______ ____
ROOT
ATOM      1  O   UNL     1       4.656   2.273  26.869  0.00  0.00    -0.186 OA
ENDROOT
BRANCH   1   2
ATOM      2  P   UNL     1       5.889   2.224  25.655  0.00  0.00    +0.483 P 
ATOM      3  O   UNL     1       4.979   1.470  24.687  0.00  0.00    -0.227 OA
BRANCH   2   4
ATOM      4  O   UNL     1       7.121   2.175  24.442  0.00  0.00    -0.302 OA
ATOM      5  H   UNL     1       7.751   1.522  24.820  0.00  0.00    +0.222 HD
ENDBRANCH   2   4
BRANCH   2   6
ATOM      6  O   UNL     1       5.674   3.843  25.345  0.00  0.00    -0.286 OA
BRANCH   6   7
ATOM      7  C   UNL     1       4.657   4.164  24.401  0.00  0.00    +0.181 C 
BRANCH   7   8
ATOM      8  C   UNL     1       4.974   5.408  23.533  0.00  0.00    +0.024 C 
ATOM      9  C   UNL     1       3.645   5.929  22.939  0.00  0.00    +0.016 C 
ATOM     10  C   UNL     1       5.541   6.530  24.432  0.00  0.00    +0.016 C 
BRANCH   8  11
ATOM     11  C   UNL     1       6.021   5.094  22.425  0.00  0.00    +0.208 C 
BRANCH  11  14
ATOM     12  N   UNL     1       8.174   4.760  23.567  0.00  0.00    -0.313 N 
ATOM     13  H   UNL     1       7.678   3.924  23.871  0.00  0.00    +0.149 HD
ATOM     14  C   UNL     1       7.458   5.581  22.720  0.00  0.00    +0.242 C 
ATOM     15  O   UNL     1       7.900   6.600  22.222  0.00  0.00    -0.273 OA
BRANCH  12  16
ATOM     16  C   UNL     1       9.527   4.937  24.080  0.00  0.00    +0.113 C 
BRANCH  16  17
ATOM     17  C   UNL     1      10.638   4.007  23.627  0.00  0.00    +0.114 C 
BRANCH  17  20
ATOM     18  N   UNL     1      10.114   2.448  21.815  0.00  0.00    -0.314 N 
ATOM     19  H   UNL     1      10.152   3.278  21.207  0.00  0.00    +0.149 HD
ATOM     20  C   UNL     1      10.311   2.637  23.161  0.00  0.00    +0.215 C 
ATOM     21  O   UNL     1      10.268   1.690  23.925  0.00  0.00    -0.276 OA
BRANCH  18  22
ATOM     22  C   UNL     1       9.067   1.531  21.452  0.00  0.00    +0.115 C 
BRANCH  22  23
ATOM     23  C   UNL     1       9.341  -0.120  21.300  0.00  0.00    +0.088 C 
BRANCH  23  24
ATOM     24  S   UNL     1      10.375  -1.639  22.396  0.00  0.00    -0.158 S 
BRANCH  24  25
ATOM     25  C   UNL     1       9.750  -2.097  24.230  0.00  0.00    +0.083 C 
BRANCH  25  27
ATOM     26  C   UNL     1       7.145  -1.192  24.190  0.00  0.00    +0.020 C 
ATOM     27  C   UNL     1       8.391  -1.632  24.966  0.00  0.00    +0.104 C 
BRANCH  27  28
ATOM     28  C   UNL     1       8.575  -0.756  26.229  0.00  0.00    +0.308 C 
ATOM     29  O   UNL     1       8.261  -1.110  27.355  0.00  0.00    -0.251 OA
BRANCH  28  30
ATOM     30  O   UNL     1       9.052   0.503  26.025  0.00  0.00    -0.480 OA
ATOM     31  H   UNL     1      10.020   0.490  26.087  0.00  0.00    +0.295 HD
ENDBRANCH  28  30
ENDBRANCH  27  28
ENDBRANCH  25  27
ENDBRANCH  24  25
ENDBRANCH  23  24
ENDBRANCH  22  23
ENDBRANCH  18  22
ENDBRANCH  17  20
ENDBRANCH  16  17
ENDBRANCH  12  16
ENDBRANCH  11  14
BRANCH  11  32
ATOM     32  O   UNL     1       6.085   3.675  22.195  0.00  0.00    -0.382 OA
ATOM     33  H   UNL     1       6.885   3.526  21.655  0.00  0.00    +0.210 HD
ENDBRANCH  11  32
ENDBRANCH   8  11
ENDBRANCH   7   8
ENDBRANCH   6   7
ENDBRANCH   2   6
ENDBRANCH   1   2
BRANCH   1  34
ATOM     34  P   UNL     1       4.077   0.672  27.167  0.00  0.00    +0.483 P 
ATOM     35  O   UNL     1       4.152   0.896  28.689  0.00  0.00    -0.227 OA
BRANCH  34  36
ATOM     36  O   UNL     1       5.541  -0.037  27.100  0.00  0.00    -0.302 OA
ATOM     37  H   UNL     1       5.495  -0.665  27.869  0.00  0.00    +0.222 HD
ENDBRANCH  34  36
BRANCH  34  38
ATOM     38  O   UNL     1       3.496  -0.931  27.465  0.00  0.00    -0.284 OA
BRANCH  38  39
ATOM     39  C   UNL     1       4.162  -1.814  28.402  0.00  0.00    +0.206 C 
BRANCH  39  40
ATOM     40  C   UNL     1       5.112  -2.863  27.846  0.00  0.00    +0.179 C 
ATOM     41  C   UNL     1       4.760  -4.232  28.384  0.00  0.00    +0.194 C 
ATOM     42  C   UNL     1       4.069  -4.906  27.214  0.00  0.00    +0.196 C 
ATOM     43  C   UNL     1       4.005  -3.831  26.118  0.00  0.00    +0.253 C 
ATOM     44  O   UNL     1       5.033  -2.890  26.422  0.00  0.00    -0.346 OA
BRANCH  43  45
ATOM     45  N   UNL     1       4.194  -4.300  24.767  0.00  0.00    -0.286 N 
ATOM     46  C   UNL     1       5.380  -4.714  24.236  0.00  0.00    +0.167 A 
ATOM     47  N   UNL     1       6.602  -4.625  24.785  0.00  0.00    -0.216 NA
ATOM     48  C   UNL     1       7.535  -5.122  23.950  0.00  0.00    +0.225 A 
ATOM     49  N   UNL     1       7.353  -5.694  22.748  0.00  0.00    -0.219 NA
ATOM     50  C   UNL     1       6.090  -5.798  22.258  0.00  0.00    +0.147 A 
ATOM     51  N   UNL     1       5.891  -6.426  21.037  0.00  0.00    -0.341 N 
ATOM     52  H   UNL     1       5.014  -6.182  20.594  0.00  0.00    +0.144 HD
ATOM     53  H   UNL     1       6.724  -6.440  20.465  0.00  0.00    +0.144 HD
ATOM     54  C   UNL     1       5.039  -5.260  23.012  0.00  0.00    +0.147 A 
ATOM     55  N   UNL     1       3.694  -5.167  22.778  0.00  0.00    -0.231 NA
ATOM     56  C   UNL     1       3.203  -4.584  23.863  0.00  0.00    +0.203 A 
ENDBRANCH  43  45
BRANCH  42  57
ATOM     57  O   UNL     1       2.756  -5.313  27.599  0.00  0.00    -0.385 OA
ATOM     58  H   UNL     1       2.697  -5.144  28.562  0.00  0.00    +0.210 HD
ENDBRANCH  42  57
BRANCH  41  59
ATOM     59  O   UNL     1       5.978  -4.877  28.728  0.00  0.00    -0.278 OA
BRANCH  59  60
ATOM     60  P   UNL     1       6.286  -6.324  28.114  0.00  0.00    +0.473 P 
ATOM     61  O   UNL     1       5.213  -6.939  27.282  0.00  0.00    -0.228 OA
BRANCH  60  62
ATOM     62  O   UNL     1       7.677  -6.036  27.385  0.00  0.00    -0.303 OA
ATOM     63  H   UNL     1       8.097  -6.832  27.023  0.00  0.00    +0.222 HD
ENDBRANCH  60  62
BRANCH  60  64
ATOM     64  O   UNL     1       6.728  -7.128  29.418  0.00  0.00    -0.303 OA
ATOM     65  H   UNL     1       6.206  -7.937  29.557  0.00  0.00    +0.222 HD
ENDBRANCH  60  64
ENDBRANCH  59  60
ENDBRANCH  41  59
ENDBRANCH  39  40
ENDBRANCH  38  39
ENDBRANCH  34  38
ENDBRANCH   1  34
TORSDOF 29
ENDMDL
MODEL 9
REMARK VINA RESULT:      -6.0      3.436      8.665
REMARK  Name = 
REMARK  32 active torsions:
REMARK  status: ('A' for Active; 'I' for Inactive)
REMARK    1  A    between atoms: C_1  and  C_2
REMARK    2  A    between atoms: C_2  and  C_4
REMARK    3  A    between atoms: C_2  and  C_58
REMARK    4  A    between atoms: C_4  and  S_5
REMARK    5  A    between atoms: S_5  and  C_6
REMARK    6  A    between atoms: C_6  and  C_7
REMARK    7  A    between atoms: C_7  and  N_8
REMARK    8  A    between atoms: C_9  and  C_11
REMARK    9  A    between atoms: C_11  and  C_12
REMARK   10  A    between atoms: C_12  and  N_13
REMARK   11  A    between atoms: C_14  and  C_16
REMARK   12  A    between atoms: C_16  and  O_18
REMARK   13  A    between atoms: C_16  and  C_19
REMARK   14  A    between atoms: C_19  and  C_20
REMARK   15  A    between atoms: C_19  and  C_21
REMARK   16  A    between atoms: C_19  and  C_22
REMARK   17  A    between atoms: C_22  and  O_23
REMARK   18  A    between atoms: O_23  and  P_24
REMARK   19  A    between atoms: P_24  and  O_25
REMARK   20  A    between atoms: P_24  and  O_27
REMARK   21  A    between atoms: O_27  and  P_28
REMARK   22  A    between atoms: P_28  and  O_29
REMARK   23  A    between atoms: P_28  and  O_31
REMARK   24  A    between atoms: O_31  and  C_32
REMARK   25  A    between atoms: C_32  and  C_33
REMARK   26  A    between atoms: C_36  and  N_48
REMARK   27  A    between atoms: C_38  and  O_40
REMARK   28  A    between atoms: C_41  and  O_43
REMARK   29  A    between atoms: O_43  and  P_44
REMARK   30  A    between atoms: P_44  and  O_45
REMARK   31  A    between atoms: P_44  and  O_46
REMARK   32  A    between atoms: C_58  and  O_59
REMARK                            x       y       z     vdW  Elec       q    Type
REMARK                         _______ _______ _______ _____ _____    ______ ____
ROOT
ATOM      1  O   UNL     1       8.370  -2.838  21.873  0.00  0.00    -0.186 OA
ENDROOT
BRANCH   1   2
ATOM      2  P   UNL     1       6.742  -3.091  22.403  0.00  0.00    +0.483 P 
ATOM      3  O   UNL     1       6.910  -4.609  22.364  0.00  0.00    -0.227 OA
BRANCH   2   4
ATOM      4  O   UNL     1       5.115  -3.345  22.931  0.00  0.00    -0.302 OA
ATOM      5  H   UNL     1       5.249  -3.873  23.750  0.00  0.00    +0.222 HD
ENDBRANCH   2   4
BRANCH   2   6
ATOM      6  O   UNL     1       7.147  -2.607  23.940  0.00  0.00    -0.286 OA
BRANCH   6   7
ATOM      7  C   UNL     1       6.192  -2.901  24.955  0.00  0.00    +0.181 C 
BRANCH   7   8
ATOM      8  C   UNL     1       6.811  -3.486  26.250  0.00  0.00    +0.024 C 
ATOM      9  C   UNL     1       8.026  -2.612  26.637  0.00  0.00    +0.016 C 
ATOM     10  C   UNL     1       5.787  -3.376  27.403  0.00  0.00    +0.016 C 
BRANCH   8  11
ATOM     11  C   UNL     1       7.202  -4.983  26.085  0.00  0.00    +0.208 C 
BRANCH  11  14
ATOM     12  N   UNL     1       5.525  -5.960  24.573  0.00  0.00    -0.313 N 
ATOM     13  H   UNL     1       6.017  -5.349  23.924  0.00  0.00    +0.149 HD
ATOM     14  C   UNL     1       6.017  -5.952  25.861  0.00  0.00    +0.242 C 
ATOM     15  O   UNL     1       5.585  -6.648  26.762  0.00  0.00    -0.273 OA
BRANCH  12  16
ATOM     16  C   UNL     1       4.401  -6.715  24.031  0.00  0.00    +0.113 C 
BRANCH  16  17
ATOM     17  C   UNL     1       3.042  -6.054  23.890  0.00  0.00    +0.114 C 
BRANCH  17  20
ATOM     18  N   UNL     1       2.471  -6.000  26.269  0.00  0.00    -0.314 N 
ATOM     19  H   UNL     1       2.878  -6.945  26.299  0.00  0.00    +0.149 HD
ATOM     20  C   UNL     1       2.431  -5.364  25.051  0.00  0.00    +0.215 C 
ATOM     21  O   UNL     1       1.952  -4.249  24.960  0.00  0.00    -0.276 OA
BRANCH  18  22
ATOM     22  C   UNL     1       1.299  -5.864  27.092  0.00  0.00    +0.115 C 
BRANCH  22  23
ATOM     23  C   UNL     1       1.274  -4.873  28.449  0.00  0.00    +0.088 C 
BRANCH  23  24
ATOM     24  S   UNL     1       2.698  -3.782  29.613  0.00  0.00    -0.158 S 
BRANCH  24  25
ATOM     25  C   UNL     1       2.641  -1.792  29.590  0.00  0.00    +0.083 C 
BRANCH  25  27
ATOM     26  C   UNL     1       4.050   0.551  29.225  0.00  0.00    +0.020 C 
ATOM     27  C   UNL     1       3.514  -0.780  28.685  0.00  0.00    +0.104 C 
BRANCH  27  28
ATOM     28  C   UNL     1       3.050  -0.616  27.217  0.00  0.00    +0.308 C 
ATOM     29  O   UNL     1       2.997  -1.534  26.414  0.00  0.00    -0.251 OA
BRANCH  28  30
ATOM     30  O   UNL     1       2.758   0.652  26.815  0.00  0.00    -0.480 OA
ATOM     31  H   UNL     1       2.357   1.136  27.554  0.00  0.00    +0.295 HD
ENDBRANCH  28  30
ENDBRANCH  27  28
ENDBRANCH  25  27
ENDBRANCH  24  25
ENDBRANCH  23  24
ENDBRANCH  22  23
ENDBRANCH  18  22
ENDBRANCH  17  20
ENDBRANCH  16  17
ENDBRANCH  12  16
ENDBRANCH  11  14
BRANCH  11  32
ATOM     32  O   UNL     1       8.101  -5.138  24.972  0.00  0.00    -0.382 OA
ATOM     33  H   UNL     1       8.856  -5.659  25.308  0.00  0.00    +0.210 HD
ENDBRANCH  11  32
ENDBRANCH   8  11
ENDBRANCH   7   8
ENDBRANCH   6   7
ENDBRANCH   2   6
ENDBRANCH   1   2
BRANCH   1  34
ATOM     34  P   UNL     1       9.187  -1.805  22.994  0.00  0.00    +0.483 P 
ATOM     35  O   UNL     1      10.324  -1.560  21.985  0.00  0.00    -0.227 OA
BRANCH  34  36
ATOM     36  O   UNL     1       9.987  -3.004  23.752  0.00  0.00    -0.302 OA
ATOM     37  H   UNL     1      10.802  -3.089  23.190  0.00  0.00    +0.222 HD
ENDBRANCH  34  36
BRANCH  34  38
ATOM     38  O   UNL     1      10.004  -0.772  24.116  0.00  0.00    -0.284 OA
BRANCH  38  39
ATOM     39  C   UNL     1      10.567   0.499  23.702  0.00  0.00    +0.206 C 
BRANCH  39  40
ATOM     40  C   UNL     1      10.158   1.746  24.470  0.00  0.00    +0.179 C 
ATOM     41  C   UNL     1      10.189   2.957  23.565  0.00  0.00    +0.194 C 
ATOM     42  C   UNL     1       8.723   3.218  23.273  0.00  0.00    +0.196 C 
ATOM     43  C   UNL     1       7.970   2.077  23.973  0.00  0.00    +0.253 C 
ATOM     44  O   UNL     1       8.840   1.590  24.992  0.00  0.00    -0.346 OA
BRANCH  43  45
ATOM     45  N   UNL     1       6.708   2.434  24.575  0.00  0.00    -0.286 N 
ATOM     46  C   UNL     1       5.585   2.795  23.890  0.00  0.00    +0.167 A 
ATOM     47  N   UNL     1       5.465   3.038  22.575  0.00  0.00    -0.216 NA
ATOM     48  C   UNL     1       4.201   3.389  22.269  0.00  0.00    +0.225 A 
ATOM     49  N   UNL     1       3.138   3.458  23.088  0.00  0.00    -0.219 NA
ATOM     50  C   UNL     1       3.305   3.160  24.403  0.00  0.00    +0.147 A 
ATOM     51  N   UNL     1       2.202   3.187  25.245  0.00  0.00    -0.341 N 
ATOM     52  H   UNL     1       2.443   3.281  26.224  0.00  0.00    +0.144 HD
ATOM     53  H   UNL     1       1.450   3.757  24.885  0.00  0.00    +0.144 HD
ATOM     54  C   UNL     1       4.593   2.838  24.852  0.00  0.00    +0.147 A 
ATOM     55  N   UNL     1       5.085   2.540  26.095  0.00  0.00    -0.231 NA
ATOM     56  C   UNL     1       6.372   2.293  25.896  0.00  0.00    +0.203 A 
ENDBRANCH  43  45
BRANCH  42  57
ATOM     57  O   UNL     1       8.499   3.183  21.865  0.00  0.00    -0.385 OA
ATOM     58  H   UNL     1       7.954   2.385  21.702  0.00  0.00    +0.210 HD
ENDBRANCH  42  57
BRANCH  41  59
ATOM     59  O   UNL     1      10.785   4.018  24.297  0.00  0.00    -0.278 OA
BRANCH  59  60
ATOM     60  P   UNL     1      11.168   5.369  23.526  0.00  0.00    +0.473 P 
ATOM     61  O   UNL     1      10.041   6.278  23.170  0.00  0.00    -0.228 OA
BRANCH  60  62
ATOM     62  O   UNL     1      12.275   5.959  24.514  0.00  0.00    -0.303 OA
ATOM     63  H   UNL     1      12.444   6.905  24.386  0.00  0.00    +0.222 HD
ENDBRANCH  60  62
BRANCH  60  64
ATOM     64  O   UNL     1      12.038   4.802  22.317  0.00  0.00    -0.303 OA
ATOM     65  H   UNL     1      12.650   5.463  21.950  0.00  0.00    +0.222 HD
ENDBRANCH  60  64
ENDBRANCH  59  60
ENDBRANCH  41  59
ENDBRANCH  39  40
ENDBRANCH  38  39
ENDBRANCH  34  38
ENDBRANCH   1  34
TORSDOF 29
ENDMDL
