MODEL 1
REMARK VINA RESULT:      -5.1      0.000      0.000
REMARK  Name = 
REMARK  6 active torsions:
REMARK  status: ('A' for Active; 'I' for Inactive)
REMARK    1  A    between atoms: C_1  and  O_2
REMARK    2  A    between atoms: O_2  and  C_3
REMARK    3  A    between atoms: C_3  and  C_5
REMARK    4  A    between atoms: C_7  and  O_8
REMARK    5  A    between atoms: O_8  and  C_9
REMARK    6  A    between atoms: C_10  and  O_11
REMARK                            x       y       z     vdW  Elec       q    Type
REMARK                         _______ _______ _______ _____ _____    ______ ____
ROOT
ATOM      1  C   UNL     1       9.590  -1.382  23.654  0.00  0.00    +0.063 A 
ATOM      2  C   UNL     1       9.587  -1.402  22.250  0.00  0.00    +0.019 A 
ATOM      3  C   UNL     1       9.724  -0.215  21.532  0.00  0.00    +0.050 A 
ATOM      4  C   UNL     1       9.860   0.983  22.223  0.00  0.00    +0.158 A 
ATOM      5  C   UNL     1       9.876   1.028  23.622  0.00  0.00    +0.162 A 
ATOM      6  C   UNL     1       9.747  -0.163  24.337  0.00  0.00    +0.064 A 
ENDROOT
BRANCH   1   7
ATOM      7  C   UNL     1       9.404  -2.674  24.372  0.00  0.00    +0.339 C 
ATOM      8  O   UNL     1      10.105  -3.656  24.193  0.00  0.00    -0.245 OA
BRANCH   7  10
ATOM      9  C   UNL     1       8.438  -3.450  26.354  0.00  0.00    +0.280 C 
ATOM     10  O   UNL     1       8.340  -2.600  25.212  0.00  0.00    -0.464 OA
ENDBRANCH   7  10
ENDBRANCH   1   7
BRANCH   4  11
ATOM     11  O   UNL     1       9.973   2.137  21.496  0.00  0.00    -0.503 OA
ATOM     12  H   UNL     1      10.706   1.975  20.872  0.00  0.00    +0.292 HD
ENDBRANCH   4  11
BRANCH   5  13
ATOM     13  O   UNL     1      10.016   2.282  24.160  0.00  0.00    -0.491 OA
ATOM     14  C   UNL     1       8.846   2.873  24.714  0.00  0.00    +0.277 C 
ENDBRANCH   5  13
TORSDOF 4
ENDMDL
MODEL 2
REMARK VINA RESULT:      -4.6      1.662      4.864
REMARK  Name = 
REMARK  6 active torsions:
REMARK  status: ('A' for Active; 'I' for Inactive)
REMARK    1  A    between atoms: C_1  and  O_2
REMARK    2  A    between atoms: O_2  and  C_3
REMARK    3  A    between atoms: C_3  and  C_5
REMARK    4  A    between atoms: C_7  and  O_8
REMARK    5  A    between atoms: O_8  and  C_9
REMARK    6  A    between atoms: C_10  and  O_11
REMARK                            x       y       z     vdW  Elec       q    Type
REMARK                         _______ _______ _______ _____ _____    ______ ____
ROOT
ATOM      1  C   UNL     1       9.399   1.839  23.616  0.00  0.00    +0.063 A 
ATOM      2  C   UNL     1       9.368   1.852  22.213  0.00  0.00    +0.019 A 
ATOM      3  C   UNL     1       9.561   0.672  21.496  0.00  0.00    +0.050 A 
ATOM      4  C   UNL     1       9.785  -0.511  22.188  0.00  0.00    +0.158 A 
ATOM      5  C   UNL     1       9.810  -0.553  23.587  0.00  0.00    +0.162 A 
ATOM      6  C   UNL     1       9.610   0.629  24.301  0.00  0.00    +0.064 A 
ENDROOT
BRANCH   1   7
ATOM      7  C   UNL     1       9.224   3.134  24.333  0.00  0.00    +0.339 C 
ATOM      8  O   UNL     1       8.426   3.304  25.239  0.00  0.00    -0.245 OA
BRANCH   7  10
ATOM      9  C   UNL     1       9.515   5.402  23.852  0.00  0.00    +0.280 C 
ATOM     10  O   UNL     1      10.047   4.078  23.811  0.00  0.00    -0.464 OA
ENDBRANCH   7  10
ENDBRANCH   1   7
BRANCH   4  11
ATOM     11  O   UNL     1       9.990  -1.653  21.463  0.00  0.00    -0.503 OA
ATOM     12  H   UNL     1       9.112  -2.075  21.396  0.00  0.00    +0.292 HD
ENDBRANCH   4  11
BRANCH   5  13
ATOM     13  O   UNL     1      10.044  -1.792  24.127  0.00  0.00    -0.491 OA
ATOM     14  C   UNL     1       8.950  -2.419  24.787  0.00  0.00    +0.277 C 
ENDBRANCH   5  13
TORSDOF 4
ENDMDL
MODEL 3
REMARK VINA RESULT:      -4.6      3.030      6.628
REMARK  Name = 
REMARK  6 active torsions:
REMARK  status: ('A' for Active; 'I' for Inactive)
REMARK    1  A    between atoms: C_1  and  O_2
REMARK    2  A    between atoms: O_2  and  C_3
REMARK    3  A    between atoms: C_3  and  C_5
REMARK    4  A    between atoms: C_7  and  O_8
REMARK    5  A    between atoms: O_8  and  C_9
REMARK    6  A    between atoms: C_10  and  O_11
REMARK                            x       y       z     vdW  Elec       q    Type
REMARK                         _______ _______ _______ _____ _____    ______ ____
ROOT
ATOM      1  C   UNL     1       7.913  -3.949  24.181  0.00  0.00    +0.063 A 
ATOM      2  C   UNL     1       9.065  -4.145  24.960  0.00  0.00    +0.019 A 
ATOM      3  C   UNL     1       8.986  -4.846  26.162  0.00  0.00    +0.050 A 
ATOM      4  C   UNL     1       7.757  -5.343  26.578  0.00  0.00    +0.158 A 
ATOM      5  C   UNL     1       6.597  -5.170  25.814  0.00  0.00    +0.162 A 
ATOM      6  C   UNL     1       6.681  -4.474  24.607  0.00  0.00    +0.064 A 
ENDROOT
BRANCH   1   7
ATOM      7  C   UNL     1       8.045  -3.161  22.923  0.00  0.00    +0.339 C 
ATOM      8  O   UNL     1       7.248  -3.217  22.002  0.00  0.00    -0.245 OA
BRANCH   7  10
ATOM      9  C   UNL     1       9.286  -1.482  21.874  0.00  0.00    +0.280 C 
ATOM     10  O   UNL     1       9.179  -2.416  22.948  0.00  0.00    -0.464 OA
ENDBRANCH   7  10
ENDBRANCH   1   7
BRANCH   4  11
ATOM     11  O   UNL     1       7.702  -6.011  27.771  0.00  0.00    -0.503 OA
ATOM     12  H   UNL     1       6.775  -6.306  27.855  0.00  0.00    +0.292 HD
ENDBRANCH   4  11
BRANCH   5  13
ATOM     13  O   UNL     1       5.460  -5.715  26.355  0.00  0.00    -0.491 OA
ATOM     14  C   UNL     1       4.803  -6.715  25.585  0.00  0.00    +0.277 C 
ENDBRANCH   5  13
TORSDOF 4
ENDMDL
MODEL 4
REMARK VINA RESULT:      -4.6      1.810      3.103
REMARK  Name = 
REMARK  6 active torsions:
REMARK  status: ('A' for Active; 'I' for Inactive)
REMARK    1  A    between atoms: C_1  and  O_2
REMARK    2  A    between atoms: O_2  and  C_3
REMARK    3  A    between atoms: C_3  and  C_5
REMARK    4  A    between atoms: C_7  and  O_8
REMARK    5  A    between atoms: O_8  and  C_9
REMARK    6  A    between atoms: C_10  and  O_11
REMARK                            x       y       z     vdW  Elec       q    Type
REMARK                         _______ _______ _______ _____ _____    ______ ____
ROOT
ATOM      1  C   UNL     1       9.077  -2.991  24.797  0.00  0.00    +0.063 A 
ATOM      2  C   UNL     1       8.580  -2.328  25.930  0.00  0.00    +0.019 A 
ATOM      3  C   UNL     1       8.747  -0.951  26.066  0.00  0.00    +0.050 A 
ATOM      4  C   UNL     1       9.412  -0.247  25.070  0.00  0.00    +0.158 A 
ATOM      5  C   UNL     1       9.908  -0.883  23.925  0.00  0.00    +0.162 A 
ATOM      6  C   UNL     1       9.733  -2.261  23.789  0.00  0.00    +0.064 A 
ENDROOT
BRANCH   1   7
ATOM      7  C   UNL     1       8.904  -4.469  24.718  0.00  0.00    +0.339 C 
ATOM      8  O   UNL     1       9.816  -5.266  24.860  0.00  0.00    -0.245 OA
BRANCH   7  10
ATOM      9  C   UNL     1       7.375  -5.106  23.071  0.00  0.00    +0.280 C 
ATOM     10  O   UNL     1       7.613  -4.780  24.439  0.00  0.00    -0.464 OA
ENDBRANCH   7  10
ENDBRANCH   1   7
BRANCH   4  11
ATOM     11  O   UNL     1       9.581   1.101  25.235  0.00  0.00    -0.503 OA
ATOM     12  H   UNL     1      10.546   1.243  25.200  0.00  0.00    +0.292 HD
ENDBRANCH   4  11
BRANCH   5  13
ATOM     13  O   UNL     1      10.542  -0.058  23.032  0.00  0.00    -0.491 OA
ATOM     14  C   UNL     1       9.818   0.288  21.857  0.00  0.00    +0.277 C 
ENDBRANCH   5  13
TORSDOF 4
ENDMDL
MODEL 5
REMARK VINA RESULT:      -4.6      4.891      6.963
REMARK  Name = 
REMARK  6 active torsions:
REMARK  status: ('A' for Active; 'I' for Inactive)
REMARK    1  A    between atoms: C_1  and  O_2
REMARK    2  A    between atoms: O_2  and  C_3
REMARK    3  A    between atoms: C_3  and  C_5
REMARK    4  A    between atoms: C_7  and  O_8
REMARK    5  A    between atoms: O_8  and  C_9
REMARK    6  A    between atoms: C_10  and  O_11
REMARK                            x       y       z     vdW  Elec       q    Type
REMARK                         _______ _______ _______ _____ _____    ______ ____
ROOT
ATOM      1  C   UNL     1       6.898  -4.461  23.713  0.00  0.00    +0.063 A 
ATOM      2  C   UNL     1       8.255  -4.601  24.045  0.00  0.00    +0.019 A 
ATOM      3  C   UNL     1       8.623  -5.084  25.300  0.00  0.00    +0.050 A 
ATOM      4  C   UNL     1       7.632  -5.421  26.213  0.00  0.00    +0.158 A 
ATOM      5  C   UNL     1       6.273  -5.302  25.902  0.00  0.00    +0.162 A 
ATOM      6  C   UNL     1       5.908  -4.824  24.642  0.00  0.00    +0.064 A 
ENDROOT
BRANCH   1   7
ATOM      7  C   UNL     1       6.559  -3.906  22.372  0.00  0.00    +0.339 C 
ATOM      8  O   UNL     1       7.026  -2.869  21.931  0.00  0.00    -0.245 OA
BRANCH   7  10
ATOM      9  C   UNL     1       6.225  -5.755  20.983  0.00  0.00    +0.280 C 
ATOM     10  O   UNL     1       5.649  -4.697  21.748  0.00  0.00    -0.464 OA
ENDBRANCH   7  10
ENDBRANCH   1   7
BRANCH   4  11
ATOM     11  O   UNL     1       8.019  -5.875  27.445  0.00  0.00    -0.503 OA
ATOM     12  H   UNL     1       7.911  -5.111  28.044  0.00  0.00    +0.292 HD
ENDBRANCH   4  11
BRANCH   5  13
ATOM     13  O   UNL     1       5.413  -5.672  26.905  0.00  0.00    -0.491 OA
ATOM     14  C   UNL     1       4.597  -6.812  26.660  0.00  0.00    +0.277 C 
ENDBRANCH   5  13
TORSDOF 4
ENDMDL
MODEL 6
REMARK VINA RESULT:      -4.5      2.025      2.112
REMARK  Name = 
REMARK  6 active torsions:
REMARK  status: ('A' for Active; 'I' for Inactive)
REMARK    1  A    between atoms: C_1  and  O_2
REMARK    2  A    between atoms: O_2  and  C_3
REMARK    3  A    between atoms: C_3  and  C_5
REMARK    4  A    between atoms: C_7  and  O_8
REMARK    5  A    between atoms: O_8  and  C_9
REMARK    6  A    between atoms: C_10  and  O_11
REMARK                            x       y       z     vdW  Elec       q    Type
REMARK                         _______ _______ _______ _____ _____    ______ ____
ROOT
ATOM      1  C   UNL     1       8.870  -1.477  22.946  0.00  0.00    +0.063 A 
ATOM      2  C   UNL     1       9.952  -0.934  22.234  0.00  0.00    +0.019 A 
ATOM      3  C   UNL     1       9.878   0.363  21.728  0.00  0.00    +0.050 A 
ATOM      4  C   UNL     1       8.722   1.105  21.935  0.00  0.00    +0.158 A 
ATOM      5  C   UNL     1       7.634   0.591  22.650  0.00  0.00    +0.162 A 
ATOM      6  C   UNL     1       7.715  -0.705  23.161  0.00  0.00    +0.064 A 
ENDROOT
BRANCH   1   7
ATOM      7  C   UNL     1       8.987  -2.880  23.433  0.00  0.00    +0.339 C 
ATOM      8  O   UNL     1       9.934  -3.296  24.080  0.00  0.00    -0.245 OA
BRANCH   7  10
ATOM      9  C   UNL     1       7.734  -4.826  23.755  0.00  0.00    +0.280 C 
ATOM     10  O   UNL     1       7.919  -3.613  23.027  0.00  0.00    -0.464 OA
ENDBRANCH   7  10
ENDBRANCH   1   7
BRANCH   4  11
ATOM     11  O   UNL     1       8.665   2.369  21.412  0.00  0.00    -0.503 OA
ATOM     12  H   UNL     1       7.728   2.634  21.486  0.00  0.00    +0.292 HD
ENDBRANCH   4  11
BRANCH   5  13
ATOM     13  O   UNL     1       6.564   1.441  22.770  0.00  0.00    -0.491 OA
ATOM     14  C   UNL     1       6.008   1.587  24.072  0.00  0.00    +0.277 C 
ENDBRANCH   5  13
TORSDOF 4
ENDMDL
MODEL 7
REMARK VINA RESULT:      -4.5      1.989      5.223
REMARK  Name = 
REMARK  6 active torsions:
REMARK  status: ('A' for Active; 'I' for Inactive)
REMARK    1  A    between atoms: C_1  and  O_2
REMARK    2  A    between atoms: O_2  and  C_3
REMARK    3  A    between atoms: C_3  and  C_5
REMARK    4  A    between atoms: C_7  and  O_8
REMARK    5  A    between atoms: O_8  and  C_9
REMARK    6  A    between atoms: C_10  and  O_11
REMARK                            x       y       z     vdW  Elec       q    Type
REMARK                         _______ _______ _______ _____ _____    ______ ____
ROOT
ATOM      1  C   UNL     1       9.251  -1.902  23.245  0.00  0.00    +0.063 A 
ATOM      2  C   UNL     1       8.245  -2.143  22.297  0.00  0.00    +0.019 A 
ATOM      3  C   UNL     1       7.503  -3.323  22.347  0.00  0.00    +0.050 A 
ATOM      4  C   UNL     1       7.775  -4.252  23.343  0.00  0.00    +0.158 A 
ATOM      5  C   UNL     1       8.766  -4.030  24.306  0.00  0.00    +0.162 A 
ATOM      6  C   UNL     1       9.502  -2.845  24.257  0.00  0.00    +0.064 A 
ENDROOT
BRANCH   1   7
ATOM      7  C   UNL     1      10.039  -0.643  23.125  0.00  0.00    +0.339 C 
ATOM      8  O   UNL     1      10.684  -0.156  24.039  0.00  0.00    -0.245 OA
BRANCH   7  10
ATOM      9  C   UNL     1       9.788   1.305  21.859  0.00  0.00    +0.280 C 
ATOM     10  O   UNL     1       9.903  -0.117  21.881  0.00  0.00    -0.464 OA
ENDBRANCH   7  10
ENDBRANCH   1   7
BRANCH   4  11
ATOM     11  O   UNL     1       7.047  -5.411  23.360  0.00  0.00    -0.503 OA
ATOM     12  H   UNL     1       6.519  -5.392  22.538  0.00  0.00    +0.292 HD
ENDBRANCH   4  11
BRANCH   5  13
ATOM     13  O   UNL     1       8.920  -5.038  25.223  0.00  0.00    -0.491 OA
ATOM     14  C   UNL     1       8.661  -4.710  26.584  0.00  0.00    +0.277 C 
ENDBRANCH   5  13
TORSDOF 4
ENDMDL
MODEL 8
REMARK VINA RESULT:      -4.4      2.109      2.362
REMARK  Name = 
REMARK  6 active torsions:
REMARK  status: ('A' for Active; 'I' for Inactive)
REMARK    1  A    between atoms: C_1  and  O_2
REMARK    2  A    between atoms: O_2  and  C_3
REMARK    3  A    between atoms: C_3  and  C_5
REMARK    4  A    between atoms: C_7  and  O_8
REMARK    5  A    between atoms: O_8  and  C_9
REMARK    6  A    between atoms: C_10  and  O_11
REMARK                            x       y       z     vdW  Elec       q    Type
REMARK                         _______ _______ _______ _____ _____    ______ ____
ROOT
ATOM      1  C   UNL     1       7.792  -1.259  22.589  0.00  0.00    +0.063 A 
ATOM      2  C   UNL     1       9.022  -1.375  21.921  0.00  0.00    +0.019 A 
ATOM      3  C   UNL     1       9.736  -0.233  21.563  0.00  0.00    +0.050 A 
ATOM      4  C   UNL     1       9.213   1.017  21.873  0.00  0.00    +0.158 A 
ATOM      5  C   UNL     1       7.995   1.159  22.547  0.00  0.00    +0.162 A 
ATOM      6  C   UNL     1       7.287   0.013  22.911  0.00  0.00    +0.064 A 
ENDROOT
BRANCH   1   7
ATOM      7  C   UNL     1       7.053  -2.510  22.916  0.00  0.00    +0.339 C 
ATOM      8  O   UNL     1       5.864  -2.673  22.696  0.00  0.00    -0.245 OA
BRANCH   7  10
ATOM      9  C   UNL     1       7.553  -4.770  23.244  0.00  0.00    +0.280 C 
ATOM     10  O   UNL     1       7.880  -3.407  23.512  0.00  0.00    -0.464 OA
ENDBRANCH   7  10
ENDBRANCH   1   7
BRANCH   4  11
ATOM     11  O   UNL     1       9.923   2.124  21.494  0.00  0.00    -0.503 OA
ATOM     12  H   UNL     1      10.116   2.600  22.325  0.00  0.00    +0.292 HD
ENDBRANCH   4  11
BRANCH   5  13
ATOM     13  O   UNL     1       7.609   2.454  22.781  0.00  0.00    -0.491 OA
ATOM     14  C   UNL     1       7.630   2.893  24.135  0.00  0.00    +0.277 C 
ENDBRANCH   5  13
TORSDOF 4
ENDMDL
MODEL 9
REMARK VINA RESULT:      -4.4      1.284      4.572
REMARK  Name = 
REMARK  6 active torsions:
REMARK  status: ('A' for Active; 'I' for Inactive)
REMARK    1  A    between atoms: C_1  and  O_2
REMARK    2  A    between atoms: O_2  and  C_3
REMARK    3  A    between atoms: C_3  and  C_5
REMARK    4  A    between atoms: C_7  and  O_8
REMARK    5  A    between atoms: O_8  and  C_9
REMARK    6  A    between atoms: C_10  and  O_11
REMARK                            x       y       z     vdW  Elec       q    Type
REMARK                         _______ _______ _______ _____ _____    ______ ____
ROOT
ATOM      1  C   UNL     1       9.330   0.703  22.937  0.00  0.00    +0.063 A 
ATOM      2  C   UNL     1       9.945  -0.160  22.016  0.00  0.00    +0.019 A 
ATOM      3  C   UNL     1      10.204  -1.485  22.364  0.00  0.00    +0.050 A 
ATOM      4  C   UNL     1       9.849  -1.936  23.629  0.00  0.00    +0.158 A 
ATOM      5  C   UNL     1       9.226  -1.098  24.561  0.00  0.00    +0.162 A 
ATOM      6  C   UNL     1       8.961   0.226  24.207  0.00  0.00    +0.064 A 
ENDROOT
BRANCH   1   7
ATOM      7  C   UNL     1       9.108   2.118  22.529  0.00  0.00    +0.339 C 
ATOM      8  O   UNL     1       8.253   2.468  21.733  0.00  0.00    -0.245 OA
BRANCH   7  10
ATOM      9  C   UNL     1       9.412   3.961  23.934  0.00  0.00    +0.280 C 
ATOM     10  O   UNL     1      10.005   2.933  23.141  0.00  0.00    -0.464 OA
ENDBRANCH   7  10
ENDBRANCH   1   7
BRANCH   4  11
ATOM     11  O   UNL     1      10.132  -3.235  23.953  0.00  0.00    -0.503 OA
ATOM     12  H   UNL     1       9.726  -3.770  23.243  0.00  0.00    +0.292 HD
ENDBRANCH   4  11
BRANCH   5  13
ATOM     13  O   UNL     1       8.937  -1.685  25.767  0.00  0.00    -0.491 OA
ATOM     14  C   UNL     1       8.677  -0.809  26.858  0.00  0.00    +0.277 C 
ENDBRANCH   5  13
TORSDOF 4
ENDMDL
