MODEL 1
REMARK VINA RESULT:      -6.6      0.000      0.000
REMARK  Name = 
REMARK  13 active torsions:
REMARK  status: ('A' for Active; 'I' for Inactive)
REMARK    1  A    between atoms: C_1  and  C_2
REMARK    2  A    between atoms: C_2  and  O_3
REMARK    3  A    between atoms: O_3  and  C_4
REMARK    4  A    between atoms: C_4  and  C_6
REMARK    5  A    between atoms: C_6  and  C_8
REMARK    6  A    between atoms: C_6  and  N_16
REMARK    7  A    between atoms: C_8  and  C_9
REMARK    8  A    between atoms: C_9  and  C_10
REMARK    9  A    between atoms: N_16  and  CA_17
REMARK   10  A    between atoms: CA_17  and  CB_19
REMARK   11  A    between atoms: CA_17  and  C_20
REMARK   12  A    between atoms: CA_26  and  C_28
REMARK   13  A    between atoms: C_28  and  O_29
REMARK                            x       y       z     vdW  Elec       q    Type
REMARK                         _______ _______ _______ _____ _____    ______ ____
ROOT
ATOM      1  N   ALA A   1       9.179  -2.969  25.177  0.00  0.00    -0.294 NA
ATOM      2  H   ALA A   1       8.849  -2.762  26.126  0.00  0.00    +0.123 HD
ENDROOT
BRANCH   1   3
ATOM      3  CA  ALA A   1       8.937  -4.396  24.874  0.00  0.00    +0.138 C 
ATOM      4  CB  ALA A   1       9.945  -5.316  25.551  0.00  0.00    +0.034 C 
BRANCH   3   5
ATOM      5  C   ALA A   1       7.494  -4.820  25.250  0.00  0.00    +0.233 C 
ATOM      6  N   PRO A   2       6.638  -5.168  24.222  0.00  0.00    -0.287 N 
ATOM      7  CA  PRO A   2       5.186  -5.240  24.415  0.00  0.00    +0.184 C 
ATOM      8  CB  PRO A   2       4.600  -4.900  23.034  0.00  0.00    +0.035 C 
ATOM      9  CG  PRO A   2       5.807  -4.649  22.126  0.00  0.00    +0.021 C 
ATOM     10  CD  PRO A   2       6.944  -5.372  22.817  0.00  0.00    +0.109 C 
ATOM     11  O   ALA A   1       7.078  -4.872  26.413  0.00  0.00    -0.274 OA
BRANCH   7  12
ATOM     12  C   PRO A   2       4.756  -6.632  24.925  0.00  0.00    +0.325 C 
ATOM     13  OXT PRO A   2       4.678  -6.956  26.101  0.00  0.00    -0.249 OA
BRANCH  12  14
ATOM     14  O   PRO A   2       4.544  -7.520  23.921  0.00  0.00    -0.479 OA
ATOM     15  H   PRO A   2       3.604  -7.529  23.618  0.00  0.00    +0.295 HD
ENDBRANCH  12  14
ENDBRANCH   7  12
ENDBRANCH   3   5
ENDBRANCH   1   3
BRANCH   1  16
ATOM     16  C   UNK A   0       8.530  -2.013  24.233  0.00  0.00    +0.164 C 
BRANCH  16  17
ATOM     17  C   UNK A   0       9.401  -1.948  22.964  0.00  0.00    +0.324 C 
ATOM     18  O   UNK A   0      10.551  -2.371  22.898  0.00  0.00    -0.249 OA
BRANCH  17  19
ATOM     19  O   UNK A   0       8.722  -1.347  21.946  0.00  0.00    -0.464 OA
BRANCH  19  21
ATOM     20  C   UNK A   0       8.537   0.993  21.362  0.00  0.00    +0.048 C 
ATOM     21  C   UNK A   0       9.398  -0.256  21.300  0.00  0.00    +0.229 C 
ENDBRANCH  19  21
ENDBRANCH  17  19
ENDBRANCH  16  17
BRANCH  16  22
ATOM     22  C   UNK A   0       8.383  -0.595  24.828  0.00  0.00    +0.035 C 
BRANCH  22  23
ATOM     23  C   UNK A   0       9.694   0.076  25.257  0.00  0.00    +0.037 C 
BRANCH  23  24
ATOM     24  C   UNK A   0       9.727   1.496  24.723  0.00  0.00    -0.047 A 
ATOM     25  C   UNK A   0      10.813   1.952  23.961  0.00  0.00    +0.003 A 
ATOM     26  C   UNK A   0      10.799   3.232  23.401  0.00  0.00    +0.000 A 
ATOM     27  C   UNK A   0       9.700   4.068  23.593  0.00  0.00    +0.000 A 
ATOM     28  C   UNK A   0       8.616   3.625  24.349  0.00  0.00    +0.000 A 
ATOM     29  C   UNK A   0       8.629   2.346  24.911  0.00  0.00    +0.003 A 
ENDBRANCH  23  24
ENDBRANCH  22  23
ENDBRANCH  16  22
ENDBRANCH   1  16
TORSDOF 11
ENDMDL
MODEL 2
REMARK VINA RESULT:      -6.6      1.535      2.414
REMARK  Name = 
REMARK  13 active torsions:
REMARK  status: ('A' for Active; 'I' for Inactive)
REMARK    1  A    between atoms: C_1  and  C_2
REMARK    2  A    between atoms: C_2  and  O_3
REMARK    3  A    between atoms: O_3  and  C_4
REMARK    4  A    between atoms: C_4  and  C_6
REMARK    5  A    between atoms: C_6  and  C_8
REMARK    6  A    between atoms: C_6  and  N_16
REMARK    7  A    between atoms: C_8  and  C_9
REMARK    8  A    between atoms: C_9  and  C_10
REMARK    9  A    between atoms: N_16  and  CA_17
REMARK   10  A    between atoms: CA_17  and  CB_19
REMARK   11  A    between atoms: CA_17  and  C_20
REMARK   12  A    between atoms: CA_26  and  C_28
REMARK   13  A    between atoms: C_28  and  O_29
REMARK                            x       y       z     vdW  Elec       q    Type
REMARK                         _______ _______ _______ _____ _____    ______ ____
ROOT
ATOM      1  N   ALA A   1       8.724  -3.036  26.000  0.00  0.00    -0.294 NA
ATOM      2  H   ALA A   1       8.045  -2.935  26.762  0.00  0.00    +0.123 HD
ENDROOT
BRANCH   1   3
ATOM      3  CA  ALA A   1       8.567  -4.367  25.376  0.00  0.00    +0.138 C 
ATOM      4  CB  ALA A   1       9.774  -5.267  25.608  0.00  0.00    +0.034 C 
BRANCH   3   5
ATOM      5  C   ALA A   1       7.277  -5.075  25.863  0.00  0.00    +0.233 C 
ATOM      6  N   PRO A   2       6.186  -5.077  25.014  0.00  0.00    -0.287 N 
ATOM      7  CA  PRO A   2       4.835  -5.392  25.491  0.00  0.00    +0.184 C 
ATOM      8  CB  PRO A   2       3.906  -4.596  24.559  0.00  0.00    +0.035 C 
ATOM      9  CG  PRO A   2       4.831  -3.859  23.587  0.00  0.00    +0.021 C 
ATOM     10  CD  PRO A   2       6.116  -4.659  23.625  0.00  0.00    +0.109 C 
ATOM     11  O   ALA A   1       7.178  -5.639  26.958  0.00  0.00    -0.274 OA
BRANCH   7  12
ATOM     12  C   PRO A   2       4.566  -6.912  25.453  0.00  0.00    +0.325 C 
ATOM     13  OXT PRO A   2       4.137  -7.524  24.486  0.00  0.00    -0.249 OA
BRANCH  12  14
ATOM     14  O   PRO A   2       4.776  -7.516  26.649  0.00  0.00    -0.479 OA
ATOM     15  H   PRO A   2       4.668  -8.496  26.600  0.00  0.00    +0.295 HD
ENDBRANCH  12  14
ENDBRANCH   7  12
ENDBRANCH   3   5
ENDBRANCH   1   3
BRANCH   1  16
ATOM     16  C   UNK A   0       8.556  -1.886  25.064  0.00  0.00    +0.164 C 
BRANCH  16  17
ATOM     17  C   UNK A   0       7.099  -1.399  25.180  0.00  0.00    +0.324 C 
ATOM     18  O   UNK A   0       6.344  -1.704  26.097  0.00  0.00    -0.249 OA
BRANCH  17  19
ATOM     19  O   UNK A   0       6.773  -0.605  24.121  0.00  0.00    -0.464 OA
BRANCH  19  21
ATOM     20  C   UNK A   0       6.982   1.801  24.252  0.00  0.00    +0.048 C 
ATOM     21  C   UNK A   0       6.067   0.605  24.439  0.00  0.00    +0.229 C 
ENDBRANCH  19  21
ENDBRANCH  17  19
ENDBRANCH  16  17
BRANCH  16  22
ATOM     22  C   UNK A   0       8.856  -2.263  23.597  0.00  0.00    +0.035 C 
BRANCH  22  23
ATOM     23  C   UNK A   0      10.196  -1.754  23.049  0.00  0.00    +0.037 C 
BRANCH  23  24
ATOM     24  C   UNK A   0      10.190  -0.237  23.041  0.00  0.00    -0.047 A 
ATOM     25  C   UNK A   0      10.708   0.489  24.122  0.00  0.00    +0.003 A 
ATOM     26  C   UNK A   0      10.779   1.885  24.072  0.00  0.00    +0.000 A 
ATOM     27  C   UNK A   0      10.336   2.567  22.940  0.00  0.00    +0.000 A 
ATOM     28  C   UNK A   0       9.818   1.854  21.860  0.00  0.00    +0.000 A 
ATOM     29  C   UNK A   0       9.746   0.460  21.909  0.00  0.00    +0.003 A 
ENDBRANCH  23  24
ENDBRANCH  22  23
ENDBRANCH  16  22
ENDBRANCH   1  16
TORSDOF 11
ENDMDL
MODEL 3
REMARK VINA RESULT:      -6.6      2.181      3.060
REMARK  Name = 
REMARK  13 active torsions:
REMARK  status: ('A' for Active; 'I' for Inactive)
REMARK    1  A    between atoms: C_1  and  C_2
REMARK    2  A    between atoms: C_2  and  O_3
REMARK    3  A    between atoms: O_3  and  C_4
REMARK    4  A    between atoms: C_4  and  C_6
REMARK    5  A    between atoms: C_6  and  C_8
REMARK    6  A    between atoms: C_6  and  N_16
REMARK    7  A    between atoms: C_8  and  C_9
REMARK    8  A    between atoms: C_9  and  C_10
REMARK    9  A    between atoms: N_16  and  CA_17
REMARK   10  A    between atoms: CA_17  and  CB_19
REMARK   11  A    between atoms: CA_17  and  C_20
REMARK   12  A    between atoms: CA_26  and  C_28
REMARK   13  A    between atoms: C_28  and  O_29
REMARK                            x       y       z     vdW  Elec       q    Type
REMARK                         _______ _______ _______ _____ _____    ______ ____
ROOT
ATOM      1  N   ALA A   1       7.393  -3.934  24.453  0.00  0.00    -0.294 NA
ATOM      2  H   ALA A   1       7.131  -4.090  23.474  0.00  0.00    +0.123 HD
ENDROOT
BRANCH   1   3
ATOM      3  CA  ALA A   1       7.756  -5.224  25.077  0.00  0.00    +0.138 C 
ATOM      4  CB  ALA A   1       9.261  -5.400  25.224  0.00  0.00    +0.034 C 
BRANCH   3   5
ATOM      5  C   ALA A   1       7.063  -5.405  26.452  0.00  0.00    +0.233 C 
ATOM      6  N   PRO A   2       5.781  -5.923  26.463  0.00  0.00    -0.287 N 
ATOM      7  CA  PRO A   2       4.911  -5.810  27.638  0.00  0.00    +0.184 C 
ATOM      8  CB  PRO A   2       3.487  -5.781  27.057  0.00  0.00    +0.035 C 
ATOM      9  CG  PRO A   2       3.660  -5.880  25.539  0.00  0.00    +0.021 C 
ATOM     10  CD  PRO A   2       5.028  -6.505  25.365  0.00  0.00    +0.109 C 
ATOM     11  O   ALA A   1       7.597  -5.121  27.529  0.00  0.00    -0.274 OA
BRANCH   7  12
ATOM     12  C   PRO A   2       5.136  -6.982  28.618  0.00  0.00    +0.325 C 
ATOM     13  OXT PRO A   2       6.228  -7.412  28.959  0.00  0.00    -0.249 OA
BRANCH  12  14
ATOM     14  O   PRO A   2       3.979  -7.567  29.017  0.00  0.00    -0.479 OA
ATOM     15  H   PRO A   2       3.185  -7.161  28.593  0.00  0.00    +0.295 HD
ENDBRANCH  12  14
ENDBRANCH   7  12
ENDBRANCH   3   5
ENDBRANCH   1   3
BRANCH   1  16
ATOM     16  C   UNK A   0       8.466  -2.898  24.495  0.00  0.00    +0.164 C 
BRANCH  16  17
ATOM     17  C   UNK A   0       7.986  -1.767  25.424  0.00  0.00    +0.324 C 
ATOM     18  O   UNK A   0       8.276  -1.684  26.613  0.00  0.00    -0.249 OA
BRANCH  17  19
ATOM     19  O   UNK A   0       7.191  -0.893  24.744  0.00  0.00    -0.464 OA
BRANCH  19  21
ATOM     20  C   UNK A   0       6.734   1.387  24.081  0.00  0.00    +0.048 C 
ATOM     21  C   UNK A   0       7.244   0.474  25.181  0.00  0.00    +0.229 C 
ENDBRANCH  19  21
ENDBRANCH  17  19
ENDBRANCH  16  17
BRANCH  16  22
ATOM     22  C   UNK A   0       8.787  -2.316  23.102  0.00  0.00    +0.035 C 
BRANCH  22  23
ATOM     23  C   UNK A   0      10.234  -1.845  22.904  0.00  0.00    +0.037 C 
BRANCH  23  24
ATOM     24  C   UNK A   0      10.270  -0.329  22.895  0.00  0.00    -0.047 A 
ATOM     25  C   UNK A   0       9.762   0.396  21.808  0.00  0.00    +0.003 A 
ATOM     26  C   UNK A   0       9.720   1.793  21.843  0.00  0.00    +0.000 A 
ATOM     27  C   UNK A   0      10.182   2.478  22.965  0.00  0.00    +0.000 A 
ATOM     28  C   UNK A   0      10.689   1.767  24.051  0.00  0.00    +0.000 A 
ATOM     29  C   UNK A   0      10.733   0.372  24.017  0.00  0.00    +0.003 A 
ENDBRANCH  23  24
ENDBRANCH  22  23
ENDBRANCH  16  22
ENDBRANCH   1  16
TORSDOF 11
ENDMDL
MODEL 4
REMARK VINA RESULT:      -6.6      2.188      5.139
REMARK  Name = 
REMARK  13 active torsions:
REMARK  status: ('A' for Active; 'I' for Inactive)
REMARK    1  A    between atoms: C_1  and  C_2
REMARK    2  A    between atoms: C_2  and  O_3
REMARK    3  A    between atoms: O_3  and  C_4
REMARK    4  A    between atoms: C_4  and  C_6
REMARK    5  A    between atoms: C_6  and  C_8
REMARK    6  A    between atoms: C_6  and  N_16
REMARK    7  A    between atoms: C_8  and  C_9
REMARK    8  A    between atoms: C_9  and  C_10
REMARK    9  A    between atoms: N_16  and  CA_17
REMARK   10  A    between atoms: CA_17  and  CB_19
REMARK   11  A    between atoms: CA_17  and  C_20
REMARK   12  A    between atoms: CA_26  and  C_28
REMARK   13  A    between atoms: C_28  and  O_29
REMARK                            x       y       z     vdW  Elec       q    Type
REMARK                         _______ _______ _______ _____ _____    ______ ____
ROOT
ATOM      1  N   ALA A   1       8.186  -0.570  24.869  0.00  0.00    -0.294 NA
ATOM      2  H   ALA A   1       7.268  -0.727  24.440  0.00  0.00    +0.123 HD
ENDROOT
BRANCH   1   3
ATOM      3  CA  ALA A   1       8.154  -1.023  26.276  0.00  0.00    +0.138 C 
ATOM      4  CB  ALA A   1       7.773   0.092  27.241  0.00  0.00    +0.034 C 
BRANCH   3   5
ATOM      5  C   ALA A   1       7.203  -2.233  26.462  0.00  0.00    +0.233 C 
ATOM      6  N   PRO A   2       7.757  -3.499  26.413  0.00  0.00    -0.287 N 
ATOM      7  CA  PRO A   2       6.933  -4.697  26.222  0.00  0.00    +0.184 C 
ATOM      8  CB  PRO A   2       7.862  -5.688  25.500  0.00  0.00    +0.035 C 
ATOM      9  CG  PRO A   2       9.193  -4.952  25.325  0.00  0.00    +0.021 C 
ATOM     10  CD  PRO A   2       9.160  -3.875  26.390  0.00  0.00    +0.109 C 
ATOM     11  O   ALA A   1       5.988  -2.124  26.659  0.00  0.00    -0.274 OA
BRANCH   7  12
ATOM     12  C   PRO A   2       6.409  -5.238  27.570  0.00  0.00    +0.325 C 
ATOM     13  OXT PRO A   2       7.019  -6.002  28.304  0.00  0.00    -0.249 OA
BRANCH  12  14
ATOM     14  O   PRO A   2       5.139  -4.846  27.840  0.00  0.00    -0.479 OA
ATOM     15  H   PRO A   2       4.830  -4.128  27.237  0.00  0.00    +0.295 HD
ENDBRANCH  12  14
ENDBRANCH   7  12
ENDBRANCH   3   5
ENDBRANCH   1   3
BRANCH   1  16
ATOM     16  C   UNK A   0       9.222  -1.233  24.024  0.00  0.00    +0.164 C 
BRANCH  16  17
ATOM     17  C   UNK A   0      10.209  -0.146  23.559  0.00  0.00    +0.324 C 
ATOM     18  O   UNK A   0      11.009   0.418  24.299  0.00  0.00    -0.249 OA
BRANCH  17  19
ATOM     19  O   UNK A   0      10.055   0.105  22.228  0.00  0.00    -0.464 OA
BRANCH  19  21
ATOM     20  C   UNK A   0       8.368   1.772  21.759  0.00  0.00    +0.048 C 
ATOM     21  C   UNK A   0       9.853   1.481  21.868  0.00  0.00    +0.229 C 
ENDBRANCH  19  21
ENDBRANCH  17  19
ENDBRANCH  16  17
BRANCH  16  22
ATOM     22  C   UNK A   0       8.620  -1.941  22.790  0.00  0.00    +0.035 C 
BRANCH  22  23
ATOM     23  C   UNK A   0       7.090  -1.908  22.696  0.00  0.00    +0.037 C 
BRANCH  23  24
ATOM     24  C   UNK A   0       6.559  -3.328  22.675  0.00  0.00    -0.047 A 
ATOM     25  C   UNK A   0       5.271  -3.621  23.148  0.00  0.00    +0.003 A 
ATOM     26  C   UNK A   0       4.755  -4.916  23.048  0.00  0.00    +0.000 A 
ATOM     27  C   UNK A   0       5.518  -5.931  22.472  0.00  0.00    +0.000 A 
ATOM     28  C   UNK A   0       6.799  -5.650  22.000  0.00  0.00    +0.000 A 
ATOM     29  C   UNK A   0       7.316  -4.357  22.100  0.00  0.00    +0.003 A 
ENDBRANCH  23  24
ENDBRANCH  22  23
ENDBRANCH  16  22
ENDBRANCH   1  16
TORSDOF 11
ENDMDL
MODEL 5
REMARK VINA RESULT:      -6.5      2.288      4.057
REMARK  Name = 
REMARK  13 active torsions:
REMARK  status: ('A' for Active; 'I' for Inactive)
REMARK    1  A    between atoms: C_1  and  C_2
REMARK    2  A    between atoms: C_2  and  O_3
REMARK    3  A    between atoms: O_3  and  C_4
REMARK    4  A    between atoms: C_4  and  C_6
REMARK    5  A    between atoms: C_6  and  C_8
REMARK    6  A    between atoms: C_6  and  N_16
REMARK    7  A    between atoms: C_8  and  C_9
REMARK    8  A    between atoms: C_9  and  C_10
REMARK    9  A    between atoms: N_16  and  CA_17
REMARK   10  A    between atoms: CA_17  and  CB_19
REMARK   11  A    between atoms: CA_17  and  C_20
REMARK   12  A    between atoms: CA_26  and  C_28
REMARK   13  A    between atoms: C_28  and  O_29
REMARK                            x       y       z     vdW  Elec       q    Type
REMARK                         _______ _______ _______ _____ _____    ______ ____
ROOT
ATOM      1  N   ALA A   1       6.378  -1.071  23.421  0.00  0.00    -0.294 NA
ATOM      2  H   ALA A   1       5.383  -1.316  23.372  0.00  0.00    +0.123 HD
ENDROOT
BRANCH   1   3
ATOM      3  CA  ALA A   1       6.849  -1.209  24.815  0.00  0.00    +0.138 C 
ATOM      4  CB  ALA A   1       6.800   0.106  25.582  0.00  0.00    +0.034 C 
BRANCH   3   5
ATOM      5  C   ALA A   1       6.054  -2.299  25.578  0.00  0.00    +0.233 C 
ATOM      6  N   PRO A   2       6.775  -3.300  26.204  0.00  0.00    -0.287 N 
ATOM      7  CA  PRO A   2       6.143  -4.549  26.642  0.00  0.00    +0.184 C 
ATOM      8  CB  PRO A   2       7.268  -5.595  26.557  0.00  0.00    +0.035 C 
ATOM      9  CG  PRO A   2       8.499  -4.836  26.057  0.00  0.00    +0.021 C 
ATOM     10  CD  PRO A   2       8.209  -3.392  26.411  0.00  0.00    +0.109 C 
ATOM     11  O   ALA A   1       4.822  -2.313  25.663  0.00  0.00    -0.274 OA
BRANCH   7  12
ATOM     12  C   PRO A   2       5.555  -4.413  28.063  0.00  0.00    +0.325 C 
ATOM     13  OXT PRO A   2       6.020  -4.932  29.068  0.00  0.00    -0.249 OA
BRANCH  12  14
ATOM     14  O   PRO A   2       4.393  -3.712  28.090  0.00  0.00    -0.479 OA
ATOM     15  H   PRO A   2       3.626  -4.241  27.763  0.00  0.00    +0.295 HD
ENDBRANCH  12  14
ENDBRANCH   7  12
ENDBRANCH   3   5
ENDBRANCH   1   3
BRANCH   1  16
ATOM     16  C   UNK A   0       7.119  -1.901  22.427  0.00  0.00    +0.164 C 
BRANCH  16  17
ATOM     17  C   UNK A   0       6.346  -3.223  22.256  0.00  0.00    +0.324 C 
ATOM     18  O   UNK A   0       5.286  -3.326  21.647  0.00  0.00    -0.249 OA
BRANCH  17  19
ATOM     19  O   UNK A   0       6.996  -4.243  22.885  0.00  0.00    -0.464 OA
BRANCH  19  21
ATOM     20  C   UNK A   0       6.735  -6.419  21.863  0.00  0.00    +0.048 C 
ATOM     21  C   UNK A   0       6.280  -5.485  22.970  0.00  0.00    +0.229 C 
ENDBRANCH  19  21
ENDBRANCH  17  19
ENDBRANCH  16  17
BRANCH  16  22
ATOM     22  C   UNK A   0       8.567  -2.206  22.867  0.00  0.00    +0.035 C 
BRANCH  22  23
ATOM     23  C   UNK A   0       9.663  -1.566  22.006  0.00  0.00    +0.037 C 
BRANCH  23  24
ATOM     24  C   UNK A   0      10.019  -0.207  22.577  0.00  0.00    -0.047 A 
ATOM     25  C   UNK A   0       9.828   0.961  21.825  0.00  0.00    +0.003 A 
ATOM     26  C   UNK A   0      10.077   2.216  22.388  0.00  0.00    +0.000 A 
ATOM     27  C   UNK A   0      10.516   2.317  23.706  0.00  0.00    +0.000 A 
ATOM     28  C   UNK A   0      10.710   1.162  24.462  0.00  0.00    +0.000 A 
ATOM     29  C   UNK A   0      10.463  -0.093  23.901  0.00  0.00    +0.003 A 
ENDBRANCH  23  24
ENDBRANCH  22  23
ENDBRANCH  16  22
ENDBRANCH   1  16
TORSDOF 11
ENDMDL
MODEL 6
REMARK VINA RESULT:      -6.4      1.977      3.393
REMARK  Name = 
REMARK  13 active torsions:
REMARK  status: ('A' for Active; 'I' for Inactive)
REMARK    1  A    between atoms: C_1  and  C_2
REMARK    2  A    between atoms: C_2  and  O_3
REMARK    3  A    between atoms: O_3  and  C_4
REMARK    4  A    between atoms: C_4  and  C_6
REMARK    5  A    between atoms: C_6  and  C_8
REMARK    6  A    between atoms: C_6  and  N_16
REMARK    7  A    between atoms: C_8  and  C_9
REMARK    8  A    between atoms: C_9  and  C_10
REMARK    9  A    between atoms: N_16  and  CA_17
REMARK   10  A    between atoms: CA_17  and  CB_19
REMARK   11  A    between atoms: CA_17  and  C_20
REMARK   12  A    between atoms: CA_26  and  C_28
REMARK   13  A    between atoms: C_28  and  O_29
REMARK                            x       y       z     vdW  Elec       q    Type
REMARK                         _______ _______ _______ _____ _____    ______ ____
ROOT
ATOM      1  N   ALA A   1       8.236  -2.849  24.876  0.00  0.00    -0.294 NA
ATOM      2  H   ALA A   1       7.858  -2.313  25.664  0.00  0.00    +0.123 HD
ENDROOT
BRANCH   1   3
ATOM      3  CA  ALA A   1       7.868  -4.273  25.028  0.00  0.00    +0.138 C 
ATOM      4  CB  ALA A   1       9.042  -5.210  24.774  0.00  0.00    +0.034 C 
BRANCH   3   5
ATOM      5  C   ALA A   1       7.256  -4.555  26.424  0.00  0.00    +0.233 C 
ATOM      6  N   PRO A   2       6.097  -5.308  26.477  0.00  0.00    -0.287 N 
ATOM      7  CA  PRO A   2       5.250  -5.340  27.674  0.00  0.00    +0.184 C 
ATOM      8  CB  PRO A   2       3.833  -5.594  27.131  0.00  0.00    +0.035 C 
ATOM      9  CG  PRO A   2       3.986  -5.689  25.611  0.00  0.00    +0.021 C 
ATOM     10  CD  PRO A   2       5.444  -6.044  25.409  0.00  0.00    +0.109 C 
ATOM     11  O   ALA A   1       7.752  -4.154  27.482  0.00  0.00    -0.274 OA
BRANCH   7  12
ATOM     12  C   PRO A   2       5.718  -6.428  28.664  0.00  0.00    +0.325 C 
ATOM     13  OXT PRO A   2       6.463  -6.238  29.615  0.00  0.00    -0.249 OA
BRANCH  12  14
ATOM     14  O   PRO A   2       5.283  -7.669  28.331  0.00  0.00    -0.479 OA
ATOM     15  H   PRO A   2       6.022  -8.318  28.249  0.00  0.00    +0.295 HD
ENDBRANCH  12  14
ENDBRANCH   7  12
ENDBRANCH   3   5
ENDBRANCH   1   3
BRANCH   1  16
ATOM     16  C   UNK A   0       7.768  -2.216  23.608  0.00  0.00    +0.164 C 
BRANCH  16  17
ATOM     17  C   UNK A   0       6.439  -2.889  23.215  0.00  0.00    +0.324 C 
ATOM     18  O   UNK A   0       5.415  -2.832  23.887  0.00  0.00    -0.249 OA
BRANCH  17  19
ATOM     19  O   UNK A   0       6.571  -3.558  22.035  0.00  0.00    -0.464 OA
BRANCH  19  21
ATOM     20  C   UNK A   0       6.901  -5.940  21.771  0.00  0.00    +0.048 C 
ATOM     21  C   UNK A   0       5.891  -4.821  21.951  0.00  0.00    +0.229 C 
ENDBRANCH  19  21
ENDBRANCH  17  19
ENDBRANCH  16  17
BRANCH  16  22
ATOM     22  C   UNK A   0       8.783  -2.372  22.455  0.00  0.00    +0.035 C 
BRANCH  22  23
ATOM     23  C   UNK A   0      10.200  -1.866  22.754  0.00  0.00    +0.037 C 
BRANCH  23  24
ATOM     24  C   UNK A   0      10.171  -0.358  22.906  0.00  0.00    -0.047 A 
ATOM     25  C   UNK A   0      10.601   0.253  24.094  0.00  0.00    +0.003 A 
ATOM     26  C   UNK A   0      10.654   1.646  24.197  0.00  0.00    +0.000 A 
ATOM     27  C   UNK A   0      10.281   2.442  23.116  0.00  0.00    +0.000 A 
ATOM     28  C   UNK A   0       9.852   1.846  21.931  0.00  0.00    +0.000 A 
ATOM     29  C   UNK A   0       9.798   0.454  21.827  0.00  0.00    +0.003 A 
ENDBRANCH  23  24
ENDBRANCH  22  23
ENDBRANCH  16  22
ENDBRANCH   1  16
TORSDOF 11
ENDMDL
MODEL 7
REMARK VINA RESULT:      -6.4      2.004      3.505
REMARK  Name = 
REMARK  13 active torsions:
REMARK  status: ('A' for Active; 'I' for Inactive)
REMARK    1  A    between atoms: C_1  and  C_2
REMARK    2  A    between atoms: C_2  and  O_3
REMARK    3  A    between atoms: O_3  and  C_4
REMARK    4  A    between atoms: C_4  and  C_6
REMARK    5  A    between atoms: C_6  and  C_8
REMARK    6  A    between atoms: C_6  and  N_16
REMARK    7  A    between atoms: C_8  and  C_9
REMARK    8  A    between atoms: C_9  and  C_10
REMARK    9  A    between atoms: N_16  and  CA_17
REMARK   10  A    between atoms: CA_17  and  CB_19
REMARK   11  A    between atoms: CA_17  and  C_20
REMARK   12  A    between atoms: CA_26  and  C_28
REMARK   13  A    between atoms: C_28  and  O_29
REMARK                            x       y       z     vdW  Elec       q    Type
REMARK                         _______ _______ _______ _____ _____    ______ ____
ROOT
ATOM      1  N   ALA A   1       8.004  -2.840  25.563  0.00  0.00    -0.294 NA
ATOM      2  H   ALA A   1       8.700  -2.237  26.014  0.00  0.00    +0.123 HD
ENDROOT
BRANCH   1   3
ATOM      3  CA  ALA A   1       6.710  -2.128  25.491  0.00  0.00    +0.138 C 
ATOM      4  CB  ALA A   1       6.859  -0.693  25.005  0.00  0.00    +0.034 C 
BRANCH   3   5
ATOM      5  C   ALA A   1       5.692  -2.888  24.602  0.00  0.00    +0.233 C 
ATOM      6  N   PRO A   2       5.134  -4.046  25.111  0.00  0.00    -0.287 N 
ATOM      7  CA  PRO A   2       4.451  -5.017  24.250  0.00  0.00    +0.184 C 
ATOM      8  CB  PRO A   2       4.663  -6.368  24.955  0.00  0.00    +0.035 C 
ATOM      9  CG  PRO A   2       5.482  -6.052  26.209  0.00  0.00    +0.021 C 
ATOM     10  CD  PRO A   2       5.223  -4.581  26.458  0.00  0.00    +0.109 C 
ATOM     11  O   ALA A   1       5.351  -2.508  23.477  0.00  0.00    -0.274 OA
BRANCH   7  12
ATOM     12  C   PRO A   2       2.959  -4.659  24.073  0.00  0.00    +0.325 C 
ATOM     13  OXT PRO A   2       2.297  -4.000  24.862  0.00  0.00    -0.249 OA
BRANCH  12  14
ATOM     14  O   PRO A   2       2.406  -5.226  22.972  0.00  0.00    -0.479 OA
ATOM     15  H   PRO A   2       1.617  -5.780  23.188  0.00  0.00    +0.295 HD
ENDBRANCH  12  14
ENDBRANCH   7  12
ENDBRANCH   3   5
ENDBRANCH   1   3
BRANCH   1  16
ATOM     16  C   UNK A   0       8.546  -3.282  24.244  0.00  0.00    +0.164 C 
BRANCH  16  17
ATOM     17  C   UNK A   0       8.772  -4.804  24.319  0.00  0.00    +0.324 C 
ATOM     18  O   UNK A   0       9.679  -5.333  24.951  0.00  0.00    -0.249 OA
BRANCH  17  19
ATOM     19  O   UNK A   0       7.837  -5.464  23.579  0.00  0.00    -0.464 OA
BRANCH  19  21
ATOM     20  C   UNK A   0       6.744  -5.897  21.465  0.00  0.00    +0.048 C 
ATOM     21  C   UNK A   0       7.558  -4.911  22.283  0.00  0.00    +0.229 C 
ENDBRANCH  19  21
ENDBRANCH  17  19
ENDBRANCH  16  17
BRANCH  16  22
ATOM     22  C   UNK A   0       9.874  -2.583  23.881  0.00  0.00    +0.035 C 
BRANCH  22  23
ATOM     23  C   UNK A   0       9.879  -1.835  22.543  0.00  0.00    +0.037 C 
BRANCH  23  24
ATOM     24  C   UNK A   0       9.998  -0.345  22.802  0.00  0.00    -0.047 A 
ATOM     25  C   UNK A   0      10.459   0.134  24.037  0.00  0.00    +0.003 A 
ATOM     26  C   UNK A   0      10.649   1.505  24.241  0.00  0.00    +0.000 A 
ATOM     27  C   UNK A   0      10.383   2.408  23.213  0.00  0.00    +0.000 A 
ATOM     28  C   UNK A   0       9.924   1.941  21.982  0.00  0.00    +0.000 A 
ATOM     29  C   UNK A   0       9.733   0.573  21.778  0.00  0.00    +0.003 A 
ENDBRANCH  23  24
ENDBRANCH  22  23
ENDBRANCH  16  22
ENDBRANCH   1  16
TORSDOF 11
ENDMDL
MODEL 8
REMARK VINA RESULT:      -6.3      2.333      7.485
REMARK  Name = 
REMARK  13 active torsions:
REMARK  status: ('A' for Active; 'I' for Inactive)
REMARK    1  A    between atoms: C_1  and  C_2
REMARK    2  A    between atoms: C_2  and  O_3
REMARK    3  A    between atoms: O_3  and  C_4
REMARK    4  A    between atoms: C_4  and  C_6
REMARK    5  A    between atoms: C_6  and  C_8
REMARK    6  A    between atoms: C_6  and  N_16
REMARK    7  A    between atoms: C_8  and  C_9
REMARK    8  A    between atoms: C_9  and  C_10
REMARK    9  A    between atoms: N_16  and  CA_17
REMARK   10  A    between atoms: CA_17  and  CB_19
REMARK   11  A    between atoms: CA_17  and  C_20
REMARK   12  A    between atoms: CA_26  and  C_28
REMARK   13  A    between atoms: C_28  and  O_29
REMARK                            x       y       z     vdW  Elec       q    Type
REMARK                         _______ _______ _______ _____ _____    ______ ____
ROOT
ATOM      1  N   ALA A   1       9.352  -2.170  25.331  0.00  0.00    -0.294 NA
ATOM      2  H   ALA A   1      10.258  -2.078  24.858  0.00  0.00    +0.123 HD
ENDROOT
BRANCH   1   3
ATOM      3  CA  ALA A   1       8.781  -0.827  25.565  0.00  0.00    +0.138 C 
ATOM      4  CB  ALA A   1       8.726  -0.464  27.043  0.00  0.00    +0.034 C 
BRANCH   3   5
ATOM      5  C   ALA A   1       9.553   0.263  24.778  0.00  0.00    +0.233 C 
ATOM      6  N   PRO A   2       8.823   1.094  23.947  0.00  0.00    -0.287 N 
ATOM      7  CA  PRO A   2       9.466   1.906  22.909  0.00  0.00    +0.184 C 
ATOM      8  CB  PRO A   2       8.395   2.042  21.813  0.00  0.00    +0.035 C 
ATOM      9  CG  PRO A   2       7.179   1.267  22.329  0.00  0.00    +0.021 C 
ATOM     10  CD  PRO A   2       7.382   1.220  23.829  0.00  0.00    +0.109 C 
ATOM     11  O   ALA A   1      10.774   0.432  24.863  0.00  0.00    -0.274 OA
BRANCH   7  12
ATOM     12  C   PRO A   2       9.929   3.269  23.468  0.00  0.00    +0.325 C 
ATOM     13  OXT PRO A   2       9.195   4.219  23.699  0.00  0.00    -0.249 OA
BRANCH  12  14
ATOM     14  O   PRO A   2      11.276   3.352  23.609  0.00  0.00    -0.479 OA
ATOM     15  H   PRO A   2      11.663   2.545  24.024  0.00  0.00    +0.295 HD
ENDBRANCH  12  14
ENDBRANCH   7  12
ENDBRANCH   3   5
ENDBRANCH   1   3
BRANCH   1  16
ATOM     16  C   UNK A   0       8.490  -3.083  24.524  0.00  0.00    +0.164 C 
BRANCH  16  17
ATOM     17  C   UNK A   0       8.929  -4.528  24.826  0.00  0.00    +0.324 C 
ATOM     18  O   UNK A   0      10.099  -4.894  24.876  0.00  0.00    -0.249 OA
BRANCH  17  19
ATOM     19  O   UNK A   0       7.843  -5.330  25.012  0.00  0.00    -0.464 OA
BRANCH  19  21
ATOM     20  C   UNK A   0       5.873  -5.916  26.287  0.00  0.00    +0.048 C 
ATOM     21  C   UNK A   0       7.260  -5.301  26.325  0.00  0.00    +0.229 C 
ENDBRANCH  19  21
ENDBRANCH  17  19
ENDBRANCH  16  17
BRANCH  16  22
ATOM     22  C   UNK A   0       8.601  -2.819  23.006  0.00  0.00    +0.035 C 
BRANCH  22  23
ATOM     23  C   UNK A   0       7.290  -2.435  22.309  0.00  0.00    +0.037 C 
BRANCH  23  24
ATOM     24  C   UNK A   0       6.315  -3.593  22.400  0.00  0.00    -0.047 A 
ATOM     25  C   UNK A   0       6.617  -4.834  21.820  0.00  0.00    +0.003 A 
ATOM     26  C   UNK A   0       5.754  -5.922  21.982  0.00  0.00    +0.000 A 
ATOM     27  C   UNK A   0       4.584  -5.782  22.726  0.00  0.00    +0.000 A 
ATOM     28  C   UNK A   0       4.275  -4.553  23.306  0.00  0.00    +0.000 A 
ATOM     29  C   UNK A   0       5.135  -3.465  23.145  0.00  0.00    +0.003 A 
ENDBRANCH  23  24
ENDBRANCH  22  23
ENDBRANCH  16  22
ENDBRANCH   1  16
TORSDOF 11
ENDMDL
MODEL 9
REMARK VINA RESULT:      -6.3      1.600      2.598
REMARK  Name = 
REMARK  13 active torsions:
REMARK  status: ('A' for Active; 'I' for Inactive)
REMARK    1  A    between atoms: C_1  and  C_2
REMARK    2  A    between atoms: C_2  and  O_3
REMARK    3  A    between atoms: O_3  and  C_4
REMARK    4  A    between atoms: C_4  and  C_6
REMARK    5  A    between atoms: C_6  and  C_8
REMARK    6  A    between atoms: C_6  and  N_16
REMARK    7  A    between atoms: C_8  and  C_9
REMARK    8  A    between atoms: C_9  and  C_10
REMARK    9  A    between atoms: N_16  and  CA_17
REMARK   10  A    between atoms: CA_17  and  CB_19
REMARK   11  A    between atoms: CA_17  and  C_20
REMARK   12  A    between atoms: CA_26  and  C_28
REMARK   13  A    between atoms: C_28  and  O_29
REMARK                            x       y       z     vdW  Elec       q    Type
REMARK                         _______ _______ _______ _____ _____    ______ ____
ROOT
ATOM      1  N   ALA A   1       7.846  -2.778  25.376  0.00  0.00    -0.294 NA
ATOM      2  H   ALA A   1       7.872  -2.460  26.351  0.00  0.00    +0.123 HD
ENDROOT
BRANCH   1   3
ATOM      3  CA  ALA A   1       6.440  -2.973  24.961  0.00  0.00    +0.138 C 
ATOM      4  CB  ALA A   1       6.108  -2.251  23.663  0.00  0.00    +0.034 C 
BRANCH   3   5
ATOM      5  C   ALA A   1       6.090  -4.478  24.836  0.00  0.00    +0.233 C 
ATOM      6  N   PRO A   2       5.318  -5.043  25.835  0.00  0.00    -0.287 N 
ATOM      7  CA  PRO A   2       5.222  -6.496  26.009  0.00  0.00    +0.184 C 
ATOM      8  CB  PRO A   2       4.970  -6.684  27.515  0.00  0.00    +0.035 C 
ATOM      9  CG  PRO A   2       4.942  -5.272  28.106  0.00  0.00    +0.021 C 
ATOM     10  CD  PRO A   2       4.617  -4.384  26.923  0.00  0.00    +0.109 C 
ATOM     11  O   ALA A   1       6.454  -5.189  23.894  0.00  0.00    -0.274 OA
BRANCH   7  12
ATOM     12  C   PRO A   2       4.101  -7.095  25.133  0.00  0.00    +0.325 C 
ATOM     13  OXT PRO A   2       2.955  -7.303  25.505  0.00  0.00    -0.249 OA
BRANCH  12  14
ATOM     14  O   PRO A   2       4.531  -7.458  23.899  0.00  0.00    -0.479 OA
ATOM     15  H   PRO A   2       4.118  -8.299  23.588  0.00  0.00    +0.295 HD
ENDBRANCH  12  14
ENDBRANCH   7  12
ENDBRANCH   3   5
ENDBRANCH   1   3
BRANCH   1  16
ATOM     16  C   UNK A   0       8.612  -1.806  24.542  0.00  0.00    +0.164 C 
BRANCH  16  17
ATOM     17  C   UNK A   0       9.748  -2.582  23.849  0.00  0.00    +0.324 C 
ATOM     18  O   UNK A   0      10.153  -3.680  24.215  0.00  0.00    -0.249 OA
BRANCH  17  19
ATOM     19  O   UNK A   0      10.240  -1.871  22.794  0.00  0.00    -0.464 OA
BRANCH  19  21
ATOM     20  C   UNK A   0       9.394  -0.071  21.419  0.00  0.00    +0.048 C 
ATOM     21  C   UNK A   0       9.295  -1.546  21.762  0.00  0.00    +0.229 C 
ENDBRANCH  19  21
ENDBRANCH  17  19
ENDBRANCH  16  17
BRANCH  16  22
ATOM     22  C   UNK A   0       9.212  -0.651  25.373  0.00  0.00    +0.035 C 
BRANCH  22  23
ATOM     23  C   UNK A   0       8.301   0.570  25.554  0.00  0.00    +0.037 C 
BRANCH  23  24
ATOM     24  C   UNK A   0       8.913   1.761  24.841  0.00  0.00    -0.047 A 
ATOM     25  C   UNK A   0       8.266   3.006  24.837  0.00  0.00    +0.003 A 
ATOM     26  C   UNK A   0       8.875   4.121  24.253  0.00  0.00    +0.000 A 
ATOM     27  C   UNK A   0      10.135   4.004  23.671  0.00  0.00    +0.000 A 
ATOM     28  C   UNK A   0      10.787   2.772  23.669  0.00  0.00    +0.000 A 
ATOM     29  C   UNK A   0      10.179   1.657  24.251  0.00  0.00    +0.003 A 
ENDBRANCH  23  24
ENDBRANCH  22  23
ENDBRANCH  16  22
ENDBRANCH   1  16
TORSDOF 11
ENDMDL
