MODEL 1
REMARK VINA RESULT:      -8.7      0.000      0.000
REMARK  Name = 
REMARK  7 active torsions:
REMARK  status: ('A' for Active; 'I' for Inactive)
REMARK    1  A    between atoms: C_2  and  C_35
REMARK    2  A    between atoms: C_6  and  C_11
REMARK    3  A    between atoms: C_14  and  O_15
REMARK    4  A    between atoms: O_15  and  C_16
REMARK    5  A    between atoms: C_16  and  C_17
REMARK    6  A    between atoms: C_19  and  C_27
REMARK    7  A    between atoms: C_35  and  O_36
REMARK                            x       y       z     vdW  Elec       q    Type
REMARK                         _______ _______ _______ _____ _____    ______ ____
ROOT
ATOM      1  C   UNL     1       4.980  -4.559  27.425  0.00  0.00    -0.027 A 
ATOM      2  C   UNL     1       5.777  -5.713  27.369  0.00  0.00    +0.009 A 
ATOM      3  C   UNL     1       7.145  -5.618  27.078  0.00  0.00    +0.046 A 
ATOM      4  C   UNL     1       7.731  -4.373  26.845  0.00  0.00    +0.121 A 
ATOM      5  C   UNL     1       6.941  -3.229  26.877  0.00  0.00    +0.046 A 
ATOM      6  C   UNL     1       5.590  -3.321  27.183  0.00  0.00    +0.009 A 
ENDROOT
BRANCH   1  13
ATOM      7  C   UNL     1       2.413  -6.267  24.547  0.00  0.00    +0.114 C 
ATOM      8  C   UNL     1       2.261  -5.486  25.850  0.00  0.00    +0.063 C 
ATOM      9  C   UNL     1       2.244  -3.993  25.853  0.00  0.00    +0.221 C 
ATOM     10  O   UNL     1       1.861  -3.300  24.928  0.00  0.00    -0.275 OA
ATOM     11  N   UNL     1       2.782  -3.578  27.042  0.00  0.00    -0.308 N 
ATOM     12  H   UNL     1       3.017  -2.601  27.160  0.00  0.00    +0.149 HD
ATOM     13  C   UNL     1       3.492  -4.644  27.721  0.00  0.00    +0.104 C 
ATOM     14  C   UNL     1       2.860  -5.945  27.169  0.00  0.00    +0.044 C 
ATOM     15  C   UNL     1       1.074  -6.203  25.247  0.00  0.00    +0.032 C 
BRANCH   7  16
ATOM     16  C   UNL     1       3.029  -7.610  24.409  0.00  0.00    +0.309 C 
ATOM     17  O   UNL     1       2.393  -8.650  24.398  0.00  0.00    -0.251 OA
BRANCH  16  18
ATOM     18  O   UNL     1       4.369  -7.568  24.221  0.00  0.00    -0.480 OA
ATOM     19  H   UNL     1       4.690  -6.720  23.864  0.00  0.00    +0.295 HD
ENDBRANCH  16  18
ENDBRANCH   7  16
ENDBRANCH   1  13
BRANCH   4  20
ATOM     20  O   UNL     1       9.077  -4.367  26.597  0.00  0.00    -0.487 OA
BRANCH  20  21
ATOM     21  C   UNL     1       9.437  -4.869  25.310  0.00  0.00    +0.265 C 
BRANCH  21  22
ATOM     22  C   UNL     1       8.894  -3.949  24.255  0.00  0.00    +0.001 A 
ATOM     23  C   UNL     1       7.919  -4.328  23.310  0.00  0.00    +0.007 A 
ATOM     24  C   UNL     1       7.373  -5.632  23.214  0.00  0.00    +0.010 A 
ATOM     25  C   UNL     1       6.407  -5.940  22.261  0.00  0.00    +0.001 A 
ATOM     26  C   UNL     1       5.971  -4.954  21.393  0.00  0.00    +0.002 A 
ATOM     27  C   UNL     1       6.510  -3.666  21.478  0.00  0.00    +0.028 A 
ATOM     28  C   UNL     1       7.482  -3.330  22.411  0.00  0.00    +0.072 A 
ATOM     29  N   UNL     1       7.976  -2.077  22.406  0.00  0.00    -0.247 NA
ATOM     30  C   UNL     1       8.953  -1.740  23.283  0.00  0.00    +0.072 A 
ATOM     31  C   UNL     1       9.422  -2.654  24.213  0.00  0.00    +0.036 A 
BRANCH  30  32
ATOM     32  C   UNL     1       9.541  -0.386  23.147  0.00  0.00    +0.000 A 
ATOM     33  C   UNL     1       9.425   0.373  21.964  0.00  0.00    +0.010 A 
ATOM     34  C   UNL     1       9.891   1.689  21.892  0.00  0.00    +0.001 A 
ATOM     35  C   UNL     1      10.503   2.273  22.995  0.00  0.00    +0.000 A 
ATOM     36  C   UNL     1      10.667   1.535  24.163  0.00  0.00    +0.001 A 
ATOM     37  C   UNL     1      10.196   0.220  24.232  0.00  0.00    +0.010 A 
ENDBRANCH  30  32
ENDBRANCH  21  22
ENDBRANCH  20  21
ENDBRANCH   4  20
TORSDOF 7
ENDMDL
MODEL 2
REMARK VINA RESULT:      -8.3      3.385      7.629
REMARK  Name = 
REMARK  7 active torsions:
REMARK  status: ('A' for Active; 'I' for Inactive)
REMARK    1  A    between atoms: C_2  and  C_35
REMARK    2  A    between atoms: C_6  and  C_11
REMARK    3  A    between atoms: C_14  and  O_15
REMARK    4  A    between atoms: O_15  and  C_16
REMARK    5  A    between atoms: C_16  and  C_17
REMARK    6  A    between atoms: C_19  and  C_27
REMARK    7  A    between atoms: C_35  and  O_36
REMARK                            x       y       z     vdW  Elec       q    Type
REMARK                         _______ _______ _______ _____ _____    ______ ____
ROOT
ATOM      1  C   UNL     1       9.900   0.813  22.857  0.00  0.00    -0.027 A 
ATOM      2  C   UNL     1       9.715  -0.166  21.869  0.00  0.00    +0.009 A 
ATOM      3  C   UNL     1       9.743  -1.527  22.202  0.00  0.00    +0.046 A 
ATOM      4  C   UNL     1       9.950  -1.924  23.524  0.00  0.00    +0.121 A 
ATOM      5  C   UNL     1      10.156  -0.959  24.504  0.00  0.00    +0.046 A 
ATOM      6  C   UNL     1      10.110   0.389  24.176  0.00  0.00    +0.009 A 
ENDROOT
BRANCH   1  13
ATOM      7  C   UNL     1       7.179   3.364  24.828  0.00  0.00    +0.114 C 
ATOM      8  C   UNL     1       8.135   3.460  23.642  0.00  0.00    +0.063 C 
ATOM      9  C   UNL     1       7.698   3.068  22.269  0.00  0.00    +0.221 C 
ATOM     10  O   UNL     1       6.553   3.126  21.861  0.00  0.00    -0.275 OA
ATOM     11  N   UNL     1       8.798   2.591  21.607  0.00  0.00    -0.308 N 
ATOM     12  H   UNL     1       8.671   2.115  20.724  0.00  0.00    +0.149 HD
ATOM     13  C   UNL     1       9.891   2.292  22.511  0.00  0.00    +0.104 C 
ATOM     14  C   UNL     1       9.625   3.181  23.750  0.00  0.00    +0.044 C 
ATOM     15  C   UNL     1       7.535   4.712  24.242  0.00  0.00    +0.032 C 
BRANCH   7  16
ATOM     16  C   UNL     1       7.571   3.126  26.240  0.00  0.00    +0.309 C 
ATOM     17  O   UNL     1       7.568   3.990  27.099  0.00  0.00    -0.251 OA
BRANCH  16  18
ATOM     18  O   UNL     1       7.864   1.831  26.503  0.00  0.00    -0.480 OA
ATOM     19  H   UNL     1       7.463   1.495  27.325  0.00  0.00    +0.295 HD
ENDBRANCH  16  18
ENDBRANCH   7  16
ENDBRANCH   1  13
BRANCH   4  20
ATOM     20  O   UNL     1       9.933  -3.271  23.770  0.00  0.00    -0.487 OA
BRANCH  20  21
ATOM     21  C   UNL     1       9.229  -3.640  24.955  0.00  0.00    +0.265 C 
BRANCH  21  22
ATOM     22  C   UNL     1       7.752  -3.583  24.686  0.00  0.00    +0.001 A 
ATOM     23  C   UNL     1       7.102  -4.369  23.713  0.00  0.00    +0.007 A 
ATOM     24  C   UNL     1       7.769  -5.265  22.843  0.00  0.00    +0.010 A 
ATOM     25  C   UNL     1       7.067  -6.017  21.906  0.00  0.00    +0.001 A 
ATOM     26  C   UNL     1       5.691  -5.888  21.824  0.00  0.00    +0.002 A 
ATOM     27  C   UNL     1       5.026  -5.000  22.677  0.00  0.00    +0.028 A 
ATOM     28  C   UNL     1       5.700  -4.228  23.615  0.00  0.00    +0.072 A 
ATOM     29  N   UNL     1       4.991  -3.371  24.374  0.00  0.00    -0.247 NA
ATOM     30  C   UNL     1       5.635  -2.581  25.269  0.00  0.00    +0.072 A 
ATOM     31  C   UNL     1       7.007  -2.672  25.442  0.00  0.00    +0.036 A 
BRANCH  30  32
ATOM     32  C   UNL     1       4.818  -1.573  25.986  0.00  0.00    +0.000 A 
ATOM     33  C   UNL     1       3.678  -1.921  26.739  0.00  0.00    +0.010 A 
ATOM     34  C   UNL     1       2.986  -0.972  27.496  0.00  0.00    +0.001 A 
ATOM     35  C   UNL     1       3.404   0.354  27.503  0.00  0.00    +0.000 A 
ATOM     36  C   UNL     1       4.501   0.735  26.738  0.00  0.00    +0.001 A 
ATOM     37  C   UNL     1       5.194  -0.219  25.985  0.00  0.00    +0.010 A 
ENDBRANCH  30  32
ENDBRANCH  21  22
ENDBRANCH  20  21
ENDBRANCH   4  20
TORSDOF 7
ENDMDL
MODEL 3
REMARK VINA RESULT:      -8.1      3.271      8.567
REMARK  Name = 
REMARK  7 active torsions:
REMARK  status: ('A' for Active; 'I' for Inactive)
REMARK    1  A    between atoms: C_2  and  C_35
REMARK    2  A    between atoms: C_6  and  C_11
REMARK    3  A    between atoms: C_14  and  O_15
REMARK    4  A    between atoms: O_15  and  C_16
REMARK    5  A    between atoms: C_16  and  C_17
REMARK    6  A    between atoms: C_19  and  C_27
REMARK    7  A    between atoms: C_35  and  O_36
REMARK                            x       y       z     vdW  Elec       q    Type
REMARK                         _______ _______ _______ _____ _____    ______ ____
ROOT
ATOM      1  C   UNL     1       9.788   0.591  23.494  0.00  0.00    -0.027 A 
ATOM      2  C   UNL     1       9.464   0.684  24.857  0.00  0.00    +0.009 A 
ATOM      3  C   UNL     1       9.210  -0.471  25.608  0.00  0.00    +0.046 A 
ATOM      4  C   UNL     1       9.281  -1.730  25.010  0.00  0.00    +0.121 A 
ATOM      5  C   UNL     1       9.580  -1.827  23.655  0.00  0.00    +0.046 A 
ATOM      6  C   UNL     1       9.849  -0.684  22.915  0.00  0.00    +0.009 A 
ENDROOT
BRANCH   1  13
ATOM      7  C   UNL     1       7.682   4.136  24.386  0.00  0.00    +0.114 C 
ATOM      8  C   UNL     1       8.592   3.633  23.268  0.00  0.00    +0.063 C 
ATOM      9  C   UNL     1       8.035   2.885  22.102  0.00  0.00    +0.221 C 
ATOM     10  O   UNL     1       6.907   3.018  21.664  0.00  0.00    -0.275 OA
ATOM     11  N   UNL     1       8.998   2.009  21.677  0.00  0.00    -0.308 N 
ATOM     12  H   UNL     1       8.749   1.292  21.008  0.00  0.00    +0.149 HD
ATOM     13  C   UNL     1      10.048   1.833  22.660  0.00  0.00    +0.104 C 
ATOM     14  C   UNL     1      10.005   3.128  23.510  0.00  0.00    +0.044 C 
ATOM     15  C   UNL     1       8.266   5.105  23.382  0.00  0.00    +0.032 C 
BRANCH   7  16
ATOM     16  C   UNL     1       8.077   4.326  25.804  0.00  0.00    +0.309 C 
ATOM     17  O   UNL     1       8.544   5.362  26.245  0.00  0.00    -0.251 OA
BRANCH  16  18
ATOM     18  O   UNL     1       7.797   3.257  26.585  0.00  0.00    -0.480 OA
ATOM     19  H   UNL     1       8.107   3.348  27.505  0.00  0.00    +0.295 HD
ENDBRANCH  16  18
ENDBRANCH   7  16
ENDBRANCH   1  13
BRANCH   4  20
ATOM     20  O   UNL     1       9.049  -2.808  25.821  0.00  0.00    -0.487 OA
BRANCH  20  21
ATOM     21  C   UNL     1       9.162  -4.069  25.163  0.00  0.00    +0.265 C 
BRANCH  21  22
ATOM     22  C   UNL     1       7.820  -4.743  25.159  0.00  0.00    +0.001 A 
ATOM     23  C   UNL     1       7.131  -5.110  23.985  0.00  0.00    +0.007 A 
ATOM     24  C   UNL     1       7.599  -4.842  22.675  0.00  0.00    +0.010 A 
ATOM     25  C   UNL     1       6.872  -5.236  21.556  0.00  0.00    +0.001 A 
ATOM     26  C   UNL     1       5.671  -5.903  21.726  0.00  0.00    +0.002 A 
ATOM     27  C   UNL     1       5.199  -6.166  23.017  0.00  0.00    +0.028 A 
ATOM     28  C   UNL     1       5.897  -5.776  24.154  0.00  0.00    +0.072 A 
ATOM     29  N   UNL     1       5.359  -6.035  25.361  0.00  0.00    -0.247 NA
ATOM     30  C   UNL     1       6.005  -5.628  26.482  0.00  0.00    +0.072 A 
ATOM     31  C   UNL     1       7.231  -4.987  26.404  0.00  0.00    +0.036 A 
BRANCH  30  32
ATOM     32  C   UNL     1       5.305  -5.831  27.773  0.00  0.00    +0.000 A 
ATOM     33  C   UNL     1       4.187  -6.680  27.900  0.00  0.00    +0.010 A 
ATOM     34  C   UNL     1       3.609  -6.944  29.145  0.00  0.00    +0.001 A 
ATOM     35  C   UNL     1       4.123  -6.349  30.293  0.00  0.00    +0.000 A 
ATOM     36  C   UNL     1       5.201  -5.476  30.192  0.00  0.00    +0.001 A 
ATOM     37  C   UNL     1       5.779  -5.218  28.945  0.00  0.00    +0.010 A 
ENDBRANCH  30  32
ENDBRANCH  21  22
ENDBRANCH  20  21
ENDBRANCH   4  20
TORSDOF 7
ENDMDL
MODEL 4
REMARK VINA RESULT:      -8.0      2.914      5.023
REMARK  Name = 
REMARK  7 active torsions:
REMARK  status: ('A' for Active; 'I' for Inactive)
REMARK    1  A    between atoms: C_2  and  C_35
REMARK    2  A    between atoms: C_6  and  C_11
REMARK    3  A    between atoms: C_14  and  O_15
REMARK    4  A    between atoms: O_15  and  C_16
REMARK    5  A    between atoms: C_16  and  C_17
REMARK    6  A    between atoms: C_19  and  C_27
REMARK    7  A    between atoms: C_35  and  O_36
REMARK                            x       y       z     vdW  Elec       q    Type
REMARK                         _______ _______ _______ _____ _____    ______ ____
ROOT
ATOM      1  C   UNL     1       8.441  -3.976  24.335  0.00  0.00    -0.027 A 
ATOM      2  C   UNL     1       9.574  -3.207  24.647  0.00  0.00    +0.009 A 
ATOM      3  C   UNL     1      10.023  -2.214  23.768  0.00  0.00    +0.046 A 
ATOM      4  C   UNL     1       9.345  -1.972  22.572  0.00  0.00    +0.121 A 
ATOM      5  C   UNL     1       8.236  -2.745  22.247  0.00  0.00    +0.046 A 
ATOM      6  C   UNL     1       7.780  -3.718  23.126  0.00  0.00    +0.009 A 
ENDROOT
BRANCH   1  13
ATOM      7  C   UNL     1       4.295  -4.416  24.976  0.00  0.00    +0.114 C 
ATOM      8  C   UNL     1       5.581  -4.972  25.584  0.00  0.00    +0.063 C 
ATOM      9  C   UNL     1       6.282  -4.253  26.688  0.00  0.00    +0.221 C 
ATOM     10  O   UNL     1       5.738  -3.531  27.504  0.00  0.00    -0.275 OA
ATOM     11  N   UNL     1       7.621  -4.515  26.565  0.00  0.00    -0.308 N 
ATOM     12  H   UNL     1       8.278  -3.979  27.115  0.00  0.00    +0.149 HD
ATOM     13  C   UNL     1       7.951  -5.070  25.267  0.00  0.00    +0.104 C 
ATOM     14  C   UNL     1       6.632  -5.712  24.772  0.00  0.00    +0.044 C 
ATOM     15  C   UNL     1       4.248  -5.616  25.895  0.00  0.00    +0.032 C 
BRANCH   7  16
ATOM     16  C   UNL     1       3.835  -4.628  23.581  0.00  0.00    +0.309 C 
ATOM     17  O   UNL     1       4.366  -4.120  22.607  0.00  0.00    -0.251 OA
BRANCH  16  18
ATOM     18  O   UNL     1       2.808  -5.504  23.482  0.00  0.00    -0.480 OA
ATOM     19  H   UNL     1       2.151  -5.267  22.804  0.00  0.00    +0.295 HD
ENDBRANCH  16  18
ENDBRANCH   7  16
ENDBRANCH   1  13
BRANCH   4  20
ATOM     20  O   UNL     1       9.832  -0.964  21.784  0.00  0.00    -0.487 OA
BRANCH  20  21
ATOM     21  C   UNL     1       8.873   0.044  21.466  0.00  0.00    +0.265 C 
BRANCH  21  22
ATOM     22  C   UNL     1       8.755   0.992  22.625  0.00  0.00    +0.001 A 
ATOM     23  C   UNL     1       7.775   0.881  23.632  0.00  0.00    +0.007 A 
ATOM     24  C   UNL     1       6.758  -0.106  23.644  0.00  0.00    +0.010 A 
ATOM     25  C   UNL     1       5.823  -0.165  24.672  0.00  0.00    +0.001 A 
ATOM     26  C   UNL     1       5.888   0.757  25.703  0.00  0.00    +0.002 A 
ATOM     27  C   UNL     1       6.885   1.738  25.695  0.00  0.00    +0.028 A 
ATOM     28  C   UNL     1       7.827   1.829  24.678  0.00  0.00    +0.072 A 
ATOM     29  N   UNL     1       8.733   2.824  24.725  0.00  0.00    -0.247 NA
ATOM     30  C   UNL     1       9.636   2.954  23.721  0.00  0.00    +0.072 A 
ATOM     31  C   UNL     1       9.667   2.052  22.669  0.00  0.00    +0.036 A 
BRANCH  30  32
ATOM     32  C   UNL     1      10.526   4.138  23.766  0.00  0.00    +0.000 A 
ATOM     33  C   UNL     1      10.122   5.366  24.331  0.00  0.00    +0.010 A 
ATOM     34  C   UNL     1      11.011   6.436  24.463  0.00  0.00    +0.001 A 
ATOM     35  C   UNL     1      12.322   6.313  24.016  0.00  0.00    +0.000 A 
ATOM     36  C   UNL     1      12.738   5.128  23.419  0.00  0.00    +0.001 A 
ATOM     37  C   UNL     1      11.846   4.058  23.292  0.00  0.00    +0.010 A 
ENDBRANCH  30  32
ENDBRANCH  21  22
ENDBRANCH  20  21
ENDBRANCH   4  20
TORSDOF 7
ENDMDL
MODEL 5
REMARK VINA RESULT:      -8.0      3.295      8.662
REMARK  Name = 
REMARK  7 active torsions:
REMARK  status: ('A' for Active; 'I' for Inactive)
REMARK    1  A    between atoms: C_2  and  C_35
REMARK    2  A    between atoms: C_6  and  C_11
REMARK    3  A    between atoms: C_14  and  O_15
REMARK    4  A    between atoms: O_15  and  C_16
REMARK    5  A    between atoms: C_16  and  C_17
REMARK    6  A    between atoms: C_19  and  C_27
REMARK    7  A    between atoms: C_35  and  O_36
REMARK                            x       y       z     vdW  Elec       q    Type
REMARK                         _______ _______ _______ _____ _____    ______ ____
ROOT
ATOM      1  C   UNL     1       8.345  -0.506  24.315  0.00  0.00    -0.027 A 
ATOM      2  C   UNL     1       6.964  -0.731  24.194  0.00  0.00    +0.009 A 
ATOM      3  C   UNL     1       6.476  -1.685  23.291  0.00  0.00    +0.046 A 
ATOM      4  C   UNL     1       7.358  -2.427  22.505  0.00  0.00    +0.121 A 
ATOM      5  C   UNL     1       8.725  -2.192  22.604  0.00  0.00    +0.046 A 
ATOM      6  C   UNL     1       9.210  -1.260  23.511  0.00  0.00    +0.009 A 
ENDROOT
BRANCH   1  13
ATOM      7  C   UNL     1       8.105   3.572  23.262  0.00  0.00    +0.114 C 
ATOM      8  C   UNL     1       8.788   2.740  24.346  0.00  0.00    +0.063 C 
ATOM      9  C   UNL     1      10.138   2.144  24.120  0.00  0.00    +0.221 C 
ATOM     10  O   UNL     1      10.988   2.606  23.381  0.00  0.00    -0.275 OA
ATOM     11  N   UNL     1      10.201   0.982  24.842  0.00  0.00    -0.308 N 
ATOM     12  H   UNL     1      10.970   0.346  24.682  0.00  0.00    +0.149 HD
ATOM     13  C   UNL     1       8.891   0.537  25.275  0.00  0.00    +0.104 C 
ATOM     14  C   UNL     1       8.029   1.824  25.292  0.00  0.00    +0.044 C 
ATOM     15  C   UNL     1       8.695   4.243  24.482  0.00  0.00    +0.032 C 
BRANCH   7  16
ATOM     16  C   UNL     1       6.640   3.708  23.070  0.00  0.00    +0.309 C 
ATOM     17  O   UNL     1       5.870   4.056  23.949  0.00  0.00    -0.251 OA
BRANCH  16  18
ATOM     18  O   UNL     1       6.244   3.480  21.796  0.00  0.00    -0.480 OA
ATOM     19  H   UNL     1       6.851   3.840  21.124  0.00  0.00    +0.295 HD
ENDBRANCH  16  18
ENDBRANCH   7  16
ENDBRANCH   1  13
BRANCH   4  20
ATOM     20  O   UNL     1       6.801  -3.358  21.671  0.00  0.00    -0.487 OA
BRANCH  20  21
ATOM     21  C   UNL     1       7.161  -4.705  21.976  0.00  0.00    +0.265 C 
BRANCH  21  22
ATOM     22  C   UNL     1       6.348  -5.178  23.147  0.00  0.00    +0.001 A 
ATOM     23  C   UNL     1       6.820  -5.188  24.475  0.00  0.00    +0.007 A 
ATOM     24  C   UNL     1       8.129  -4.802  24.855  0.00  0.00    +0.010 A 
ATOM     25  C   UNL     1       8.530  -4.830  26.187  0.00  0.00    +0.001 A 
ATOM     26  C   UNL     1       7.634  -5.241  27.158  0.00  0.00    +0.002 A 
ATOM     27  C   UNL     1       6.342  -5.630  26.790  0.00  0.00    +0.028 A 
ATOM     28  C   UNL     1       5.914  -5.623  25.468  0.00  0.00    +0.072 A 
ATOM     29  N   UNL     1       4.666  -6.046  25.191  0.00  0.00    -0.247 NA
ATOM     30  C   UNL     1       4.243  -6.083  23.904  0.00  0.00    +0.072 A 
ATOM     31  C   UNL     1       5.062  -5.654  22.872  0.00  0.00    +0.036 A 
BRANCH  30  32
ATOM     32  C   UNL     1       2.906  -6.673  23.652  0.00  0.00    +0.000 A 
ATOM     33  C   UNL     1       1.966  -6.075  22.788  0.00  0.00    +0.010 A 
ATOM     34  C   UNL     1       0.756  -6.702  22.479  0.00  0.00    +0.001 A 
ATOM     35  C   UNL     1       0.446  -7.935  23.041  0.00  0.00    +0.000 A 
ATOM     36  C   UNL     1       1.337  -8.532  23.928  0.00  0.00    +0.001 A 
ATOM     37  C   UNL     1       2.549  -7.903  24.232  0.00  0.00    +0.010 A 
ENDBRANCH  30  32
ENDBRANCH  21  22
ENDBRANCH  20  21
ENDBRANCH   4  20
TORSDOF 7
ENDMDL
MODEL 6
REMARK VINA RESULT:      -7.8      3.687      6.469
REMARK  Name = 
REMARK  7 active torsions:
REMARK  status: ('A' for Active; 'I' for Inactive)
REMARK    1  A    between atoms: C_2  and  C_35
REMARK    2  A    between atoms: C_6  and  C_11
REMARK    3  A    between atoms: C_14  and  O_15
REMARK    4  A    between atoms: O_15  and  C_16
REMARK    5  A    between atoms: C_16  and  C_17
REMARK    6  A    between atoms: C_19  and  C_27
REMARK    7  A    between atoms: C_35  and  O_36
REMARK                            x       y       z     vdW  Elec       q    Type
REMARK                         _______ _______ _______ _____ _____    ______ ____
ROOT
ATOM      1  C   UNL     1       8.566  -2.792  25.689  0.00  0.00    -0.027 A 
ATOM      2  C   UNL     1       8.657  -1.525  26.286  0.00  0.00    +0.009 A 
ATOM      3  C   UNL     1       9.353  -0.489  25.650  0.00  0.00    +0.046 A 
ATOM      4  C   UNL     1       9.960  -0.703  24.411  0.00  0.00    +0.121 A 
ATOM      5  C   UNL     1       9.891  -1.963  23.826  0.00  0.00    +0.046 A 
ATOM      6  C   UNL     1       9.186  -2.985  24.448  0.00  0.00    +0.009 A 
ENDROOT
BRANCH   1  13
ATOM      7  C   UNL     1       5.626  -4.919  23.538  0.00  0.00    +0.114 C 
ATOM      8  C   UNL     1       6.104  -4.836  24.986  0.00  0.00    +0.063 C 
ATOM      9  C   UNL     1       5.539  -3.822  25.924  0.00  0.00    +0.221 C 
ATOM     10  O   UNL     1       4.418  -3.353  25.850  0.00  0.00    -0.275 OA
ATOM     11  N   UNL     1       6.524  -3.495  26.818  0.00  0.00    -0.308 N 
ATOM     12  H   UNL     1       6.390  -2.697  27.425  0.00  0.00    +0.149 HD
ATOM     13  C   UNL     1       7.832  -3.933  26.373  0.00  0.00    +0.104 C 
ATOM     14  C   UNL     1       7.540  -5.105  25.404  0.00  0.00    +0.044 C 
ATOM     15  C   UNL     1       5.201  -5.967  24.543  0.00  0.00    +0.032 C 
BRANCH   7  16
ATOM     16  C   UNL     1       6.433  -5.390  22.385  0.00  0.00    +0.309 C 
ATOM     17  O   UNL     1       7.293  -4.719  21.840  0.00  0.00    -0.251 OA
BRANCH  16  18
ATOM     18  O   UNL     1       6.177  -6.673  22.040  0.00  0.00    -0.480 OA
ATOM     19  H   UNL     1       6.967  -7.244  22.027  0.00  0.00    +0.295 HD
ENDBRANCH  16  18
ENDBRANCH   7  16
ENDBRANCH   1  13
BRANCH   4  20
ATOM     20  O   UNL     1      10.593   0.369  23.844  0.00  0.00    -0.487 OA
BRANCH  20  21
ATOM     21  C   UNL     1       9.918   0.915  22.712  0.00  0.00    +0.265 C 
BRANCH  21  22
ATOM     22  C   UNL     1       9.227   2.185  23.117  0.00  0.00    +0.001 A 
ATOM     23  C   UNL     1       9.898   3.403  23.350  0.00  0.00    +0.007 A 
ATOM     24  C   UNL     1      11.304   3.559  23.277  0.00  0.00    +0.010 A 
ATOM     25  C   UNL     1      11.906   4.792  23.513  0.00  0.00    +0.001 A 
ATOM     26  C   UNL     1      11.115   5.885  23.823  0.00  0.00    +0.002 A 
ATOM     27  C   UNL     1       9.726   5.737  23.902  0.00  0.00    +0.028 A 
ATOM     28  C   UNL     1       9.097   4.518  23.682  0.00  0.00    +0.072 A 
ATOM     29  N   UNL     1       7.759   4.449  23.812  0.00  0.00    -0.247 NA
ATOM     30  C   UNL     1       7.130   3.260  23.640  0.00  0.00    +0.072 A 
ATOM     31  C   UNL     1       7.840   2.123  23.291  0.00  0.00    +0.036 A 
BRANCH  30  32
ATOM     32  C   UNL     1       5.674   3.223  23.917  0.00  0.00    +0.000 A 
ATOM     33  C   UNL     1       5.153   3.261  25.226  0.00  0.00    +0.010 A 
ATOM     34  C   UNL     1       3.778   3.335  25.463  0.00  0.00    +0.001 A 
ATOM     35  C   UNL     1       2.886   3.355  24.396  0.00  0.00    +0.000 A 
ATOM     36  C   UNL     1       3.370   3.279  23.094  0.00  0.00    +0.001 A 
ATOM     37  C   UNL     1       4.747   3.208  22.861  0.00  0.00    +0.010 A 
ENDBRANCH  30  32
ENDBRANCH  21  22
ENDBRANCH  20  21
ENDBRANCH   4  20
TORSDOF 7
ENDMDL
MODEL 7
REMARK VINA RESULT:      -7.7      3.109      6.594
REMARK  Name = 
REMARK  7 active torsions:
REMARK  status: ('A' for Active; 'I' for Inactive)
REMARK    1  A    between atoms: C_2  and  C_35
REMARK    2  A    between atoms: C_6  and  C_11
REMARK    3  A    between atoms: C_14  and  O_15
REMARK    4  A    between atoms: O_15  and  C_16
REMARK    5  A    between atoms: C_16  and  C_17
REMARK    6  A    between atoms: C_19  and  C_27
REMARK    7  A    between atoms: C_35  and  O_36
REMARK                            x       y       z     vdW  Elec       q    Type
REMARK                         _______ _______ _______ _____ _____    ______ ____
ROOT
ATOM      1  C   UNL     1       8.353  -3.546  23.591  0.00  0.00    -0.027 A 
ATOM      2  C   UNL     1       9.566  -3.144  24.172  0.00  0.00    +0.009 A 
ATOM      3  C   UNL     1      10.154  -1.923  23.816  0.00  0.00    +0.046 A 
ATOM      4  C   UNL     1       9.537  -1.089  22.883  0.00  0.00    +0.121 A 
ATOM      5  C   UNL     1       8.346  -1.492  22.288  0.00  0.00    +0.046 A 
ATOM      6  C   UNL     1       7.755  -2.694  22.653  0.00  0.00    +0.009 A 
ENDROOT
BRANCH   1  13
ATOM      7  C   UNL     1       5.107  -3.592  26.284  0.00  0.00    +0.114 C 
ATOM      8  C   UNL     1       6.022  -4.622  25.626  0.00  0.00    +0.063 C 
ATOM      9  C   UNL     1       7.322  -5.005  26.253  0.00  0.00    +0.221 C 
ATOM     10  O   UNL     1       7.555  -4.973  27.447  0.00  0.00    -0.275 OA
ATOM     11  N   UNL     1       8.186  -5.331  25.241  0.00  0.00    -0.308 N 
ATOM     12  H   UNL     1       9.168  -5.450  25.453  0.00  0.00    +0.149 HD
ATOM     13  C   UNL     1       7.711  -4.875  23.950  0.00  0.00    +0.104 C 
ATOM     14  C   UNL     1       6.176  -4.755  24.120  0.00  0.00    +0.044 C 
ATOM     15  C   UNL     1       4.750  -5.061  26.317  0.00  0.00    +0.032 C 
BRANCH   7  16
ATOM     16  C   UNL     1       4.164  -2.693  25.574  0.00  0.00    +0.309 C 
ATOM     17  O   UNL     1       3.009  -2.987  25.319  0.00  0.00    -0.251 OA
BRANCH  16  18
ATOM     18  O   UNL     1       4.688  -1.476  25.299  0.00  0.00    -0.480 OA
ATOM     19  H   UNL     1       4.472  -1.144  24.409  0.00  0.00    +0.295 HD
ENDBRANCH  16  18
ENDBRANCH   7  16
ENDBRANCH   1  13
BRANCH   4  20
ATOM     20  O   UNL     1      10.161   0.099  22.614  0.00  0.00    -0.487 OA
BRANCH  20  21
ATOM     21  C   UNL     1      10.746   0.723  23.757  0.00  0.00    +0.265 C 
BRANCH  21  22
ATOM     22  C   UNL     1       9.832   1.811  24.244  0.00  0.00    +0.001 A 
ATOM     23  C   UNL     1      10.084   3.186  24.062  0.00  0.00    +0.007 A 
ATOM     24  C   UNL     1      11.250   3.703  23.444  0.00  0.00    +0.010 A 
ATOM     25  C   UNL     1      11.436   5.073  23.290  0.00  0.00    +0.001 A 
ATOM     26  C   UNL     1      10.464   5.947  23.747  0.00  0.00    +0.002 A 
ATOM     27  C   UNL     1       9.313   5.443  24.364  0.00  0.00    +0.028 A 
ATOM     28  C   UNL     1       9.103   4.081  24.541  0.00  0.00    +0.072 A 
ATOM     29  N   UNL     1       7.986   3.678  25.176  0.00  0.00    -0.247 NA
ATOM     30  C   UNL     1       7.781   2.355  25.394  0.00  0.00    +0.072 A 
ATOM     31  C   UNL     1       8.685   1.410  24.936  0.00  0.00    +0.036 A 
BRANCH  30  32
ATOM     32  C   UNL     1       6.597   1.983  26.204  0.00  0.00    +0.000 A 
ATOM     33  C   UNL     1       5.290   2.387  25.863  0.00  0.00    +0.010 A 
ATOM     34  C   UNL     1       4.177   1.936  26.577  0.00  0.00    +0.001 A 
ATOM     35  C   UNL     1       4.343   1.083  27.662  0.00  0.00    +0.000 A 
ATOM     36  C   UNL     1       5.623   0.699  28.046  0.00  0.00    +0.001 A 
ATOM     37  C   UNL     1       6.735   1.150  27.327  0.00  0.00    +0.010 A 
ENDBRANCH  30  32
ENDBRANCH  21  22
ENDBRANCH  20  21
ENDBRANCH   4  20
TORSDOF 7
ENDMDL
MODEL 8
REMARK VINA RESULT:      -7.6      2.230      4.438
REMARK  Name = 
REMARK  7 active torsions:
REMARK  status: ('A' for Active; 'I' for Inactive)
REMARK    1  A    between atoms: C_2  and  C_35
REMARK    2  A    between atoms: C_6  and  C_11
REMARK    3  A    between atoms: C_14  and  O_15
REMARK    4  A    between atoms: O_15  and  C_16
REMARK    5  A    between atoms: C_16  and  C_17
REMARK    6  A    between atoms: C_19  and  C_27
REMARK    7  A    between atoms: C_35  and  O_36
REMARK                            x       y       z     vdW  Elec       q    Type
REMARK                         _______ _______ _______ _____ _____    ______ ____
ROOT
ATOM      1  C   UNL     1       5.485  -5.033  22.733  0.00  0.00    -0.027 A 
ATOM      2  C   UNL     1       5.285  -3.679  22.423  0.00  0.00    +0.009 A 
ATOM      3  C   UNL     1       6.375  -2.803  22.328  0.00  0.00    +0.046 A 
ATOM      4  C   UNL     1       7.674  -3.269  22.536  0.00  0.00    +0.121 A 
ATOM      5  C   UNL     1       7.876  -4.605  22.865  0.00  0.00    +0.046 A 
ATOM      6  C   UNL     1       6.798  -5.477  22.942  0.00  0.00    +0.009 A 
ENDROOT
BRANCH   1  13
ATOM      7  C   UNL     1       2.724  -4.498  25.877  0.00  0.00    +0.114 C 
ATOM      8  C   UNL     1       3.020  -5.565  24.825  0.00  0.00    +0.063 C 
ATOM      9  C   UNL     1       4.019  -6.643  25.086  0.00  0.00    +0.221 C 
ATOM     10  O   UNL     1       4.296  -7.084  26.186  0.00  0.00    -0.275 OA
ATOM     11  N   UNL     1       4.582  -6.982  23.884  0.00  0.00    -0.308 N 
ATOM     12  H   UNL     1       5.404  -7.571  23.875  0.00  0.00    +0.149 HD
ATOM     13  C   UNL     1       4.315  -5.993  22.858  0.00  0.00    +0.104 C 
ATOM     14  C   UNL     1       3.023  -5.281  23.332  0.00  0.00    +0.044 C 
ATOM     15  C   UNL     1       1.725  -5.600  25.604  0.00  0.00    +0.032 C 
BRANCH   7  16
ATOM     16  C   UNL     1       2.277  -3.110  25.600  0.00  0.00    +0.309 C 
ATOM     17  O   UNL     1       1.108  -2.784  25.486  0.00  0.00    -0.251 OA
BRANCH  16  18
ATOM     18  O   UNL     1       3.294  -2.218  25.560  0.00  0.00    -0.480 OA
ATOM     19  H   UNL     1       3.438  -1.746  26.400  0.00  0.00    +0.295 HD
ENDBRANCH  16  18
ENDBRANCH   7  16
ENDBRANCH   1  13
BRANCH   4  20
ATOM     20  O   UNL     1       8.683  -2.355  22.395  0.00  0.00    -0.487 OA
BRANCH  20  21
ATOM     21  C   UNL     1       9.482  -2.182  23.565  0.00  0.00    +0.265 C 
BRANCH  21  22
ATOM     22  C   UNL     1       9.004  -0.969  24.311  0.00  0.00    +0.001 A 
ATOM     23  C   UNL     1       8.026  -1.007  25.326  0.00  0.00    +0.007 A 
ATOM     24  C   UNL     1       7.346  -2.184  25.727  0.00  0.00    +0.010 A 
ATOM     25  C   UNL     1       6.393  -2.155  26.741  0.00  0.00    +0.001 A 
ATOM     26  C   UNL     1       6.107  -0.956  27.370  0.00  0.00    +0.002 A 
ATOM     27  C   UNL     1       6.771   0.211  26.976  0.00  0.00    +0.028 A 
ATOM     28  C   UNL     1       7.719   0.217  25.960  0.00  0.00    +0.072 A 
ATOM     29  N   UNL     1       8.288   1.387  25.615  0.00  0.00    -0.247 NA
ATOM     30  C   UNL     1       9.187   1.420  24.600  0.00  0.00    +0.072 A 
ATOM     31  C   UNL     1       9.559   0.260  23.940  0.00  0.00    +0.036 A 
BRANCH  30  32
ATOM     32  C   UNL     1       9.684   2.754  24.186  0.00  0.00    +0.000 A 
ATOM     33  C   UNL     1       8.942   3.935  24.391  0.00  0.00    +0.010 A 
ATOM     34  C   UNL     1       9.474   5.192  24.094  0.00  0.00    +0.001 A 
ATOM     35  C   UNL     1      10.755   5.300  23.565  0.00  0.00    +0.000 A 
ATOM     36  C   UNL     1      11.496   4.150  23.315  0.00  0.00    +0.001 A 
ATOM     37  C   UNL     1      10.962   2.894  23.617  0.00  0.00    +0.010 A 
ENDBRANCH  30  32
ENDBRANCH  21  22
ENDBRANCH  20  21
ENDBRANCH   4  20
TORSDOF 7
ENDMDL
MODEL 9
REMARK VINA RESULT:      -7.6      2.795      7.984
REMARK  Name = 
REMARK  7 active torsions:
REMARK  status: ('A' for Active; 'I' for Inactive)
REMARK    1  A    between atoms: C_2  and  C_35
REMARK    2  A    between atoms: C_6  and  C_11
REMARK    3  A    between atoms: C_14  and  O_15
REMARK    4  A    between atoms: O_15  and  C_16
REMARK    5  A    between atoms: C_16  and  C_17
REMARK    6  A    between atoms: C_19  and  C_27
REMARK    7  A    between atoms: C_35  and  O_36
REMARK                            x       y       z     vdW  Elec       q    Type
REMARK                         _______ _______ _______ _____ _____    ______ ____
ROOT
ATOM      1  C   UNL     1       6.408  -0.618  24.981  0.00  0.00    -0.027 A 
ATOM      2  C   UNL     1       7.617  -1.128  25.481  0.00  0.00    +0.009 A 
ATOM      3  C   UNL     1       7.621  -2.250  26.321  0.00  0.00    +0.046 A 
ATOM      4  C   UNL     1       6.423  -2.877  26.666  0.00  0.00    +0.121 A 
ATOM      5  C   UNL     1       5.221  -2.363  26.191  0.00  0.00    +0.046 A 
ATOM      6  C   UNL     1       5.218  -1.263  25.345  0.00  0.00    +0.009 A 
ENDROOT
BRANCH   1  13
ATOM      7  C   UNL     1       9.856   0.370  22.759  0.00  0.00    +0.114 C 
ATOM      8  C   UNL     1       8.518   1.028  23.091  0.00  0.00    +0.063 C 
ATOM      9  C   UNL     1       8.352   1.847  24.328  0.00  0.00    +0.221 C 
ATOM     10  O   UNL     1       9.244   2.462  24.881  0.00  0.00    -0.275 OA
ATOM     11  N   UNL     1       7.049   1.720  24.733  0.00  0.00    -0.308 N 
ATOM     12  H   UNL     1       6.784   2.059  25.648  0.00  0.00    +0.149 HD
ATOM     13  C   UNL     1       6.382   0.608  24.085  0.00  0.00    +0.104 C 
ATOM     14  C   UNL     1       7.176   0.390  22.773  0.00  0.00    +0.044 C 
ATOM     15  C   UNL     1       9.392   1.586  21.989  0.00  0.00    +0.032 C 
BRANCH   7  16
ATOM     16  C   UNL     1      10.035  -0.882  21.982  0.00  0.00    +0.309 C 
ATOM     17  O   UNL     1      10.519  -1.902  22.442  0.00  0.00    -0.251 OA
BRANCH  16  18
ATOM     18  O   UNL     1       9.537  -0.809  20.726  0.00  0.00    -0.480 OA
ATOM     19  H   UNL     1       9.368   0.101  20.421  0.00  0.00    +0.295 HD
ENDBRANCH  16  18
ENDBRANCH   7  16
ENDBRANCH   1  13
BRANCH   4  20
ATOM     20  O   UNL     1       6.519  -3.984  27.465  0.00  0.00    -0.487 OA
BRANCH  20  21
ATOM     21  C   UNL     1       7.105  -5.117  26.826  0.00  0.00    +0.265 C 
BRANCH  21  22
ATOM     22  C   UNL     1       6.164  -5.628  25.773  0.00  0.00    +0.001 A 
ATOM     23  C   UNL     1       6.367  -5.453  24.389  0.00  0.00    +0.007 A 
ATOM     24  C   UNL     1       7.453  -4.734  23.832  0.00  0.00    +0.010 A 
ATOM     25  C   UNL     1       7.600  -4.603  22.454  0.00  0.00    +0.001 A 
ATOM     26  C   UNL     1       6.667  -5.186  21.613  0.00  0.00    +0.002 A 
ATOM     27  C   UNL     1       5.588  -5.892  22.156  0.00  0.00    +0.028 A 
ATOM     28  C   UNL     1       5.409  -6.032  23.527  0.00  0.00    +0.072 A 
ATOM     29  N   UNL     1       4.326  -6.697  23.972  0.00  0.00    -0.247 NA
ATOM     30  C   UNL     1       4.112  -6.811  25.306  0.00  0.00    +0.072 A 
ATOM     31  C   UNL     1       5.015  -6.290  26.219  0.00  0.00    +0.036 A 
BRANCH  30  32
ATOM     32  C   UNL     1       2.841  -7.444  25.731  0.00  0.00    +0.000 A 
ATOM     33  C   UNL     1       2.202  -8.443  24.969  0.00  0.00    +0.010 A 
ATOM     34  C   UNL     1       1.065  -9.105  25.439  0.00  0.00    +0.001 A 
ATOM     35  C   UNL     1       0.526  -8.771  26.677  0.00  0.00    +0.000 A 
ATOM     36  C   UNL     1       1.112  -7.763  27.434  0.00  0.00    +0.001 A 
ATOM     37  C   UNL     1       2.252  -7.105  26.961  0.00  0.00    +0.010 A 
ENDBRANCH  30  32
ENDBRANCH  21  22
ENDBRANCH  20  21
ENDBRANCH   4  20
TORSDOF 7
ENDMDL
