MODEL 1
REMARK VINA RESULT:      -6.8      0.000      0.000
REMARK  Name = 
REMARK  5 active torsions:
REMARK  status: ('A' for Active; 'I' for Inactive)
REMARK    1  A    between atoms: O_1  and  C_2
REMARK    2  A    between atoms: C_2  and  C_4
REMARK    3  A    between atoms: C_5  and  N_6
REMARK    4  A    between atoms: N_6  and  C_7
REMARK    5  A    between atoms: C_11  and  C_13
REMARK                            x       y       z     vdW  Elec       q    Type
REMARK                         _______ _______ _______ _____ _____    ______ ____
ROOT
ATOM      1  N   UNL     1       9.770  -2.232  24.156  0.00  0.00    -0.299 N 
ATOM      2  H   UNL     1      10.649  -2.334  23.647  0.00  0.00    +0.154 HD
ENDROOT
BRANCH   1   8
ATOM      3  C   UNL     1       8.564  -4.372  24.373  0.00  0.00    +0.099 A 
ATOM      4  C   UNL     1       7.616  -5.277  23.862  0.00  0.00    +0.020 A 
ATOM      5  C   UNL     1       6.893  -4.948  22.723  0.00  0.00    +0.021 A 
ATOM      6  C   UNL     1       7.165  -3.740  22.118  0.00  0.00    +0.113 A 
ATOM      7  N   UNL     1       8.095  -2.876  22.571  0.00  0.00    -0.239 NA
ATOM      8  C   UNL     1       8.815  -3.175  23.683  0.00  0.00    +0.137 A 
BRANCH   3   9
ATOM      9  C   UNL     1       9.353  -4.726  25.573  0.00  0.00    +0.340 C 
ATOM     10  O   UNL     1       9.142  -4.231  26.665  0.00  0.00    -0.245 OA
BRANCH   9  11
ATOM     11  O   UNL     1      10.315  -5.646  25.348  0.00  0.00    -0.477 OA
ATOM     12  H   UNL     1      10.046  -6.426  24.824  0.00  0.00    +0.295 HD
ENDBRANCH   9  11
ENDBRANCH   3   9
ENDBRANCH   1   8
BRANCH   1  13
ATOM     13  C   UNL     1       9.482  -0.888  24.505  0.00  0.00    +0.033 A 
ATOM     14  C   UNL     1      10.147   0.163  23.857  0.00  0.00    +0.035 A 
ATOM     15  C   UNL     1       9.750   1.503  24.051  0.00  0.00    +0.057 A 
ATOM     16  C   UNL     1       8.737   1.790  24.975  0.00  0.00    +0.012 A 
ATOM     17  C   UNL     1       8.118   0.759  25.675  0.00  0.00    +0.002 A 
ATOM     18  C   UNL     1       8.490  -0.564  25.438  0.00  0.00    +0.023 A 
BRANCH  15  19
ATOM     19  C   UNL     1      10.368   2.602  23.223  0.00  0.00    +0.417 C 
ATOM     20  F   UNL     1       9.606   3.731  23.209  0.00  0.00    -0.166 F 
ATOM     21  F   UNL     1      10.542   2.251  21.920  0.00  0.00    -0.166 F 
ATOM     22  F   UNL     1      11.596   2.994  23.670  0.00  0.00    -0.166 F 
ENDBRANCH  15  19
ENDBRANCH   1  13
TORSDOF 5
ENDMDL
MODEL 2
REMARK VINA RESULT:      -6.7      1.227      1.589
REMARK  Name = 
REMARK  5 active torsions:
REMARK  status: ('A' for Active; 'I' for Inactive)
REMARK    1  A    between atoms: O_1  and  C_2
REMARK    2  A    between atoms: C_2  and  C_4
REMARK    3  A    between atoms: C_5  and  N_6
REMARK    4  A    between atoms: N_6  and  C_7
REMARK    5  A    between atoms: C_11  and  C_13
REMARK                            x       y       z     vdW  Elec       q    Type
REMARK                         _______ _______ _______ _____ _____    ______ ____
ROOT
ATOM      1  N   UNL     1       9.426  -3.086  23.881  0.00  0.00    -0.299 N 
ATOM      2  H   UNL     1      10.132  -3.417  23.221  0.00  0.00    +0.154 HD
ENDROOT
BRANCH   1   8
ATOM      3  C   UNL     1       7.860  -4.772  24.767  0.00  0.00    +0.099 A 
ATOM      4  C   UNL     1       6.682  -5.524  24.605  0.00  0.00    +0.020 A 
ATOM      5  C   UNL     1       5.878  -5.314  23.494  0.00  0.00    +0.021 A 
ATOM      6  C   UNL     1       6.293  -4.380  22.569  0.00  0.00    +0.113 A 
ATOM      7  N   UNL     1       7.435  -3.676  22.687  0.00  0.00    -0.239 NA
ATOM      8  C   UNL     1       8.240  -3.864  23.765  0.00  0.00    +0.137 A 
BRANCH   3   9
ATOM      9  C   UNL     1       8.734  -5.007  25.937  0.00  0.00    +0.340 C 
ATOM     10  O   UNL     1       8.428  -4.659  27.063  0.00  0.00    -0.245 OA
BRANCH   9  11
ATOM     11  O   UNL     1       9.886  -5.644  25.644  0.00  0.00    -0.477 OA
ATOM     12  H   UNL     1      10.444  -5.225  24.959  0.00  0.00    +0.295 HD
ENDBRANCH   9  11
ENDBRANCH   3   9
ENDBRANCH   1   8
BRANCH   1  13
ATOM     13  C   UNL     1       9.463  -1.681  24.072  0.00  0.00    +0.033 A 
ATOM     14  C   UNL     1       9.573  -0.824  22.968  0.00  0.00    +0.035 A 
ATOM     15  C   UNL     1       9.426   0.571  23.115  0.00  0.00    +0.057 A 
ATOM     16  C   UNL     1       9.259   1.111  24.397  0.00  0.00    +0.012 A 
ATOM     17  C   UNL     1       9.218   0.275  25.507  0.00  0.00    +0.002 A 
ATOM     18  C   UNL     1       9.318  -1.106  25.342  0.00  0.00    +0.023 A 
BRANCH  15  19
ATOM     19  C   UNL     1       9.384   1.459  21.897  0.00  0.00    +0.417 C 
ATOM     20  F   UNL     1       9.087   0.769  20.761  0.00  0.00    -0.166 F 
ATOM     21  F   UNL     1      10.569   2.085  21.655  0.00  0.00    -0.166 F 
ATOM     22  F   UNL     1       8.450   2.450  21.979  0.00  0.00    -0.166 F 
ENDBRANCH  15  19
ENDBRANCH   1  13
TORSDOF 5
ENDMDL
MODEL 3
REMARK VINA RESULT:      -6.5      4.921      7.615
REMARK  Name = 
REMARK  5 active torsions:
REMARK  status: ('A' for Active; 'I' for Inactive)
REMARK    1  A    between atoms: O_1  and  C_2
REMARK    2  A    between atoms: C_2  and  C_4
REMARK    3  A    between atoms: C_5  and  N_6
REMARK    4  A    between atoms: N_6  and  C_7
REMARK    5  A    between atoms: C_11  and  C_13
REMARK                            x       y       z     vdW  Elec       q    Type
REMARK                         _______ _______ _______ _____ _____    ______ ____
ROOT
ATOM      1  N   UNL     1      10.822   2.861  23.717  0.00  0.00    -0.299 N 
ATOM      2  H   UNL     1      11.386   2.704  24.555  0.00  0.00    +0.154 HD
ENDROOT
BRANCH   1   8
ATOM      3  C   UNL     1      10.705   5.324  23.747  0.00  0.00    +0.099 A 
ATOM      4  C   UNL     1       9.931   6.491  23.885  0.00  0.00    +0.020 A 
ATOM      5  C   UNL     1       8.556   6.391  24.046  0.00  0.00    +0.021 A 
ATOM      6  C   UNL     1       8.006   5.128  24.095  0.00  0.00    +0.113 A 
ATOM      7  N   UNL     1       8.734   3.998  24.001  0.00  0.00    -0.239 NA
ATOM      8  C   UNL     1      10.081   4.069  23.843  0.00  0.00    +0.137 A 
BRANCH   3   9
ATOM      9  C   UNL     1      12.173   5.423  23.597  0.00  0.00    +0.340 C 
ATOM     10  O   UNL     1      12.776   4.880  22.688  0.00  0.00    -0.245 OA
BRANCH   9  11
ATOM     11  O   UNL     1      12.774   6.169  24.546  0.00  0.00    -0.477 OA
ATOM     12  H   UNL     1      12.191   6.767  25.054  0.00  0.00    +0.295 HD
ENDBRANCH   9  11
ENDBRANCH   3   9
ENDBRANCH   1   8
BRANCH   1  13
ATOM     13  C   UNL     1      10.331   1.660  23.146  0.00  0.00    +0.033 A 
ATOM     14  C   UNL     1      10.219   0.503  23.931  0.00  0.00    +0.035 A 
ATOM     15  C   UNL     1       9.564  -0.646  23.441  0.00  0.00    +0.057 A 
ATOM     16  C   UNL     1       9.101  -0.659  22.119  0.00  0.00    +0.012 A 
ATOM     17  C   UNL     1       9.269   0.460  21.309  0.00  0.00    +0.002 A 
ATOM     18  C   UNL     1       9.877   1.605  21.822  0.00  0.00    +0.023 A 
BRANCH  15  19
ATOM     19  C   UNL     1       9.311  -1.819  24.354  0.00  0.00    +0.417 C 
ATOM     20  F   UNL     1       9.383  -1.477  25.670  0.00  0.00    -0.166 F 
ATOM     21  F   UNL     1      10.206  -2.830  24.180  0.00  0.00    -0.166 F 
ATOM     22  F   UNL     1       8.078  -2.381  24.188  0.00  0.00    -0.166 F 
ENDBRANCH  15  19
ENDBRANCH   1  13
TORSDOF 5
ENDMDL
MODEL 4
REMARK VINA RESULT:      -6.4      4.275      6.645
REMARK  Name = 
REMARK  5 active torsions:
REMARK  status: ('A' for Active; 'I' for Inactive)
REMARK    1  A    between atoms: O_1  and  C_2
REMARK    2  A    between atoms: C_2  and  C_4
REMARK    3  A    between atoms: C_5  and  N_6
REMARK    4  A    between atoms: N_6  and  C_7
REMARK    5  A    between atoms: C_11  and  C_13
REMARK                            x       y       z     vdW  Elec       q    Type
REMARK                         _______ _______ _______ _____ _____    ______ ____
ROOT
ATOM      1  N   UNL     1       9.510  -1.352  23.483  0.00  0.00    -0.299 N 
ATOM      2  H   UNL     1      10.526  -1.374  23.585  0.00  0.00    +0.154 HD
ENDROOT
BRANCH   1   8
ATOM      3  C   UNL     1       8.946   1.034  23.214  0.00  0.00    +0.099 A 
ATOM      4  C   UNL     1       8.429   2.218  23.768  0.00  0.00    +0.020 A 
ATOM      5  C   UNL     1       7.909   2.208  25.055  0.00  0.00    +0.021 A 
ATOM      6  C   UNL     1       7.951   1.020  25.754  0.00  0.00    +0.113 A 
ATOM      7  N   UNL     1       8.474  -0.116  25.254  0.00  0.00    -0.239 NA
ATOM      8  C   UNL     1       8.990  -0.131  23.997  0.00  0.00    +0.137 A 
BRANCH   3   9
ATOM      9  C   UNL     1       9.523   1.043  21.851  0.00  0.00    +0.340 C 
ATOM     10  O   UNL     1       9.388   0.114  21.077  0.00  0.00    -0.245 OA
BRANCH   9  11
ATOM     11  O   UNL     1      10.199   2.171  21.548  0.00  0.00    -0.477 OA
ATOM     12  H   UNL     1       9.677   2.998  21.558  0.00  0.00    +0.295 HD
ENDBRANCH   9  11
ENDBRANCH   3   9
ENDBRANCH   1   8
BRANCH   1  13
ATOM     13  C   UNL     1       8.909  -2.626  23.646  0.00  0.00    +0.033 A 
ATOM     14  C   UNL     1       7.895  -3.041  22.771  0.00  0.00    +0.035 A 
ATOM     15  C   UNL     1       7.412  -4.366  22.795  0.00  0.00    +0.057 A 
ATOM     16  C   UNL     1       7.891  -5.251  23.771  0.00  0.00    +0.012 A 
ATOM     17  C   UNL     1       8.847  -4.829  24.689  0.00  0.00    +0.002 A 
ATOM     18  C   UNL     1       9.348  -3.529  24.622  0.00  0.00    +0.023 A 
BRANCH  15  19
ATOM     19  C   UNL     1       6.442  -4.838  21.742  0.00  0.00    +0.417 C 
ATOM     20  F   UNL     1       6.998  -5.747  20.894  0.00  0.00    -0.166 F 
ATOM     21  F   UNL     1       5.979  -3.827  20.956  0.00  0.00    -0.166 F 
ATOM     22  F   UNL     1       5.334  -5.446  22.257  0.00  0.00    -0.166 F 
ENDBRANCH  15  19
ENDBRANCH   1  13
TORSDOF 5
ENDMDL
MODEL 5
REMARK VINA RESULT:      -6.3      4.290      6.506
REMARK  Name = 
REMARK  5 active torsions:
REMARK  status: ('A' for Active; 'I' for Inactive)
REMARK    1  A    between atoms: O_1  and  C_2
REMARK    2  A    between atoms: C_2  and  C_4
REMARK    3  A    between atoms: C_5  and  N_6
REMARK    4  A    between atoms: N_6  and  C_7
REMARK    5  A    between atoms: C_11  and  C_13
REMARK                            x       y       z     vdW  Elec       q    Type
REMARK                         _______ _______ _______ _____ _____    ______ ____
ROOT
ATOM      1  N   UNL     1       7.235  -0.928  23.013  0.00  0.00    -0.299 N 
ATOM      2  H   UNL     1       7.164  -0.906  21.994  0.00  0.00    +0.154 HD
ENDROOT
BRANCH   1   8
ATOM      3  C   UNL     1       9.505   0.035  23.021  0.00  0.00    +0.099 A 
ATOM      4  C   UNL     1      10.396   1.012  23.499  0.00  0.00    +0.020 A 
ATOM      5  C   UNL     1       9.936   2.010  24.345  0.00  0.00    +0.021 A 
ATOM      6  C   UNL     1       8.606   1.980  24.709  0.00  0.00    +0.113 A 
ATOM      7  N   UNL     1       7.745   1.032  24.291  0.00  0.00    -0.239 NA
ATOM      8  C   UNL     1       8.172   0.044  23.462  0.00  0.00    +0.137 A 
BRANCH   3   9
ATOM      9  C   UNL     1       9.995  -1.045  22.136  0.00  0.00    +0.340 C 
ATOM     10  O   UNL     1      10.752  -1.916  22.523  0.00  0.00    -0.245 OA
BRANCH   9  11
ATOM     11  O   UNL     1       9.521  -0.980  20.874  0.00  0.00    -0.477 OA
ATOM     12  H   UNL     1      10.191  -0.876  20.170  0.00  0.00    +0.295 HD
ENDBRANCH   9  11
ENDBRANCH   3   9
ENDBRANCH   1   8
BRANCH   1  13
ATOM     13  C   UNL     1       7.094  -2.232  23.550  0.00  0.00    +0.033 A 
ATOM     14  C   UNL     1       6.945  -3.333  22.694  0.00  0.00    +0.035 A 
ATOM     15  C   UNL     1       6.989  -4.652  23.192  0.00  0.00    +0.057 A 
ATOM     16  C   UNL     1       7.091  -4.859  24.574  0.00  0.00    +0.012 A 
ATOM     17  C   UNL     1       7.169  -3.772  25.439  0.00  0.00    +0.002 A 
ATOM     18  C   UNL     1       7.171  -2.475  24.928  0.00  0.00    +0.023 A 
BRANCH  15  19
ATOM     19  C   UNL     1       6.991  -5.821  22.239  0.00  0.00    +0.417 C 
ATOM     20  F   UNL     1       5.990  -6.706  22.500  0.00  0.00    -0.166 F 
ATOM     21  F   UNL     1       8.147  -6.538  22.282  0.00  0.00    -0.166 F 
ATOM     22  F   UNL     1       6.827  -5.457  20.934  0.00  0.00    -0.166 F 
ENDBRANCH  15  19
ENDBRANCH   1  13
TORSDOF 5
ENDMDL
MODEL 6
REMARK VINA RESULT:      -6.3      2.156      2.709
REMARK  Name = 
REMARK  5 active torsions:
REMARK  status: ('A' for Active; 'I' for Inactive)
REMARK    1  A    between atoms: O_1  and  C_2
REMARK    2  A    between atoms: C_2  and  C_4
REMARK    3  A    between atoms: C_5  and  N_6
REMARK    4  A    between atoms: N_6  and  C_7
REMARK    5  A    between atoms: C_11  and  C_13
REMARK                            x       y       z     vdW  Elec       q    Type
REMARK                         _______ _______ _______ _____ _____    ______ ____
ROOT
ATOM      1  N   UNL     1       7.211  -2.136  23.383  0.00  0.00    -0.299 N 
ATOM      2  H   UNL     1       7.448  -2.187  24.375  0.00  0.00    +0.154 HD
ENDROOT
BRANCH   1   8
ATOM      3  C   UNL     1       7.747  -4.542  23.418  0.00  0.00    +0.099 A 
ATOM      4  C   UNL     1       7.607  -5.815  22.837  0.00  0.00    +0.020 A 
ATOM      5  C   UNL     1       6.776  -5.984  21.738  0.00  0.00    +0.021 A 
ATOM      6  C   UNL     1       6.136  -4.869  21.241  0.00  0.00    +0.113 A 
ATOM      7  N   UNL     1       6.285  -3.635  21.761  0.00  0.00    -0.239 NA
ATOM      8  C   UNL     1       7.094  -3.443  22.835  0.00  0.00    +0.137 A 
BRANCH   3   9
ATOM      9  C   UNL     1       8.650  -4.351  24.575  0.00  0.00    +0.340 C 
ATOM     10  O   UNL     1       8.369  -4.736  25.695  0.00  0.00    -0.245 OA
BRANCH   9  11
ATOM     11  O   UNL     1       9.805  -3.723  24.273  0.00  0.00    -0.477 OA
ATOM     12  H   UNL     1      10.625  -4.221  24.462  0.00  0.00    +0.295 HD
ENDBRANCH   9  11
ENDBRANCH   3   9
ENDBRANCH   1   8
BRANCH   1  13
ATOM     13  C   UNL     1       7.809  -1.029  22.727  0.00  0.00    +0.033 A 
ATOM     14  C   UNL     1       7.234   0.246  22.834  0.00  0.00    +0.035 A 
ATOM     15  C   UNL     1       7.905   1.388  22.349  0.00  0.00    +0.057 A 
ATOM     16  C   UNL     1       9.120   1.231  21.671  0.00  0.00    +0.012 A 
ATOM     17  C   UNL     1       9.666  -0.037  21.498  0.00  0.00    +0.002 A 
ATOM     18  C   UNL     1       9.013  -1.152  22.023  0.00  0.00    +0.023 A 
BRANCH  15  19
ATOM     19  C   UNL     1       7.348   2.763  22.619  0.00  0.00    +0.417 C 
ATOM     20  F   UNL     1       6.578   2.800  23.742  0.00  0.00    -0.166 F 
ATOM     21  F   UNL     1       6.560   3.224  21.609  0.00  0.00    -0.166 F 
ATOM     22  F   UNL     1       8.311   3.712  22.803  0.00  0.00    -0.166 F 
ENDBRANCH  15  19
ENDBRANCH   1  13
TORSDOF 5
ENDMDL
MODEL 7
REMARK VINA RESULT:      -6.3      1.640      2.443
REMARK  Name = 
REMARK  5 active torsions:
REMARK  status: ('A' for Active; 'I' for Inactive)
REMARK    1  A    between atoms: O_1  and  C_2
REMARK    2  A    between atoms: C_2  and  C_4
REMARK    3  A    between atoms: C_5  and  N_6
REMARK    4  A    between atoms: N_6  and  C_7
REMARK    5  A    between atoms: C_11  and  C_13
REMARK                            x       y       z     vdW  Elec       q    Type
REMARK                         _______ _______ _______ _____ _____    ______ ____
ROOT
ATOM      1  N   UNL     1       9.170  -3.250  23.837  0.00  0.00    -0.299 N 
ATOM      2  H   UNL     1      10.008  -3.822  23.720  0.00  0.00    +0.154 HD
ENDROOT
BRANCH   1   8
ATOM      3  C   UNL     1       7.360  -4.433  25.022  0.00  0.00    +0.099 A 
ATOM      4  C   UNL     1       6.218  -5.253  24.965  0.00  0.00    +0.020 A 
ATOM      5  C   UNL     1       5.708  -5.639  23.733  0.00  0.00    +0.021 A 
ATOM      6  C   UNL     1       6.374  -5.218  22.603  0.00  0.00    +0.113 A 
ATOM      7  N   UNL     1       7.489  -4.462  22.637  0.00  0.00    -0.239 NA
ATOM      8  C   UNL     1       8.009  -4.071  23.830  0.00  0.00    +0.137 A 
BRANCH   3   9
ATOM      9  C   UNL     1       7.922  -4.036  26.332  0.00  0.00    +0.340 C 
ATOM     10  O   UNL     1       8.354  -4.846  27.132  0.00  0.00    -0.245 OA
BRANCH   9  11
ATOM     11  O   UNL     1       7.919  -2.704  26.551  0.00  0.00    -0.477 OA
ATOM     12  H   UNL     1       7.957  -2.140  25.754  0.00  0.00    +0.295 HD
ENDBRANCH   9  11
ENDBRANCH   3   9
ENDBRANCH   1   8
BRANCH   1  13
ATOM     13  C   UNL     1       9.273  -1.981  23.213  0.00  0.00    +0.033 A 
ATOM     14  C   UNL     1       9.690  -0.865  23.954  0.00  0.00    +0.035 A 
ATOM     15  C   UNL     1       9.978   0.361  23.319  0.00  0.00    +0.057 A 
ATOM     16  C   UNL     1       9.755   0.489  21.942  0.00  0.00    +0.012 A 
ATOM     17  C   UNL     1       9.275  -0.592  21.209  0.00  0.00    +0.002 A 
ATOM     18  C   UNL     1       9.039  -1.812  21.842  0.00  0.00    +0.023 A 
BRANCH  15  19
ATOM     19  C   UNL     1      10.579   1.498  24.108  0.00  0.00    +0.417 C 
ATOM     20  F   UNL     1      11.621   1.094  24.886  0.00  0.00    -0.166 F 
ATOM     21  F   UNL     1       9.689   2.090  24.949  0.00  0.00    -0.166 F 
ATOM     22  F   UNL     1      11.074   2.500  23.324  0.00  0.00    -0.166 F 
ENDBRANCH  15  19
ENDBRANCH   1  13
TORSDOF 5
ENDMDL
MODEL 8
REMARK VINA RESULT:      -6.2      1.976      2.392
REMARK  Name = 
REMARK  5 active torsions:
REMARK  status: ('A' for Active; 'I' for Inactive)
REMARK    1  A    between atoms: O_1  and  C_2
REMARK    2  A    between atoms: C_2  and  C_4
REMARK    3  A    between atoms: C_5  and  N_6
REMARK    4  A    between atoms: N_6  and  C_7
REMARK    5  A    between atoms: C_11  and  C_13
REMARK                            x       y       z     vdW  Elec       q    Type
REMARK                         _______ _______ _______ _____ _____    ______ ____
ROOT
ATOM      1  N   UNL     1       6.715  -2.788  24.330  0.00  0.00    -0.299 N 
ATOM      2  H   UNL     1       7.092  -3.096  25.228  0.00  0.00    +0.154 HD
ENDROOT
BRANCH   1   8
ATOM      3  C   UNL     1       7.596  -4.971  23.596  0.00  0.00    +0.099 A 
ATOM      4  C   UNL     1       7.646  -5.982  22.620  0.00  0.00    +0.020 A 
ATOM      5  C   UNL     1       6.854  -5.884  21.485  0.00  0.00    +0.021 A 
ATOM      6  C   UNL     1       6.061  -4.764  21.350  0.00  0.00    +0.113 A 
ATOM      7  N   UNL     1       6.026  -3.767  22.256  0.00  0.00    -0.239 NA
ATOM      8  C   UNL     1       6.793  -3.839  23.375  0.00  0.00    +0.137 A 
BRANCH   3   9
ATOM      9  C   UNL     1       8.454  -5.058  24.798  0.00  0.00    +0.340 C 
ATOM     10  O   UNL     1       8.071  -4.718  25.903  0.00  0.00    -0.245 OA
BRANCH   9  11
ATOM     11  O   UNL     1       9.687  -5.552  24.559  0.00  0.00    -0.477 OA
ATOM     12  H   UNL     1       9.991  -6.255  25.167  0.00  0.00    +0.295 HD
ENDBRANCH   9  11
ENDBRANCH   3   9
ENDBRANCH   1   8
BRANCH   1  13
ATOM     13  C   UNL     1       6.977  -1.421  24.058  0.00  0.00    +0.033 A 
ATOM     14  C   UNL     1       8.099  -1.058  23.299  0.00  0.00    +0.035 A 
ATOM     15  C   UNL     1       8.280   0.270  22.860  0.00  0.00    +0.057 A 
ATOM     16  C   UNL     1       7.373   1.256  23.269  0.00  0.00    +0.012 A 
ATOM     17  C   UNL     1       6.294   0.920  24.081  0.00  0.00    +0.002 A 
ATOM     18  C   UNL     1       6.102  -0.406  24.468  0.00  0.00    +0.023 A 
BRANCH  15  19
ATOM     19  C   UNL     1       9.402   0.607  21.910  0.00  0.00    +0.417 C 
ATOM     20  F   UNL     1      10.596   0.090  22.313  0.00  0.00    -0.166 F 
ATOM     21  F   UNL     1       9.599   1.946  21.774  0.00  0.00    -0.166 F 
ATOM     22  F   UNL     1       9.204   0.130  20.646  0.00  0.00    -0.166 F 
ENDBRANCH  15  19
ENDBRANCH   1  13
TORSDOF 5
ENDMDL
MODEL 9
REMARK VINA RESULT:      -6.1      4.456      6.782
REMARK  Name = 
REMARK  5 active torsions:
REMARK  status: ('A' for Active; 'I' for Inactive)
REMARK    1  A    between atoms: O_1  and  C_2
REMARK    2  A    between atoms: C_2  and  C_4
REMARK    3  A    between atoms: C_5  and  N_6
REMARK    4  A    between atoms: N_6  and  C_7
REMARK    5  A    between atoms: C_11  and  C_13
REMARK                            x       y       z     vdW  Elec       q    Type
REMARK                         _______ _______ _______ _____ _____    ______ ____
ROOT
ATOM      1  N   UNL     1       8.623  -1.475  22.329  0.00  0.00    -0.299 N 
ATOM      2  H   UNL     1       9.174  -1.590  21.476  0.00  0.00    +0.154 HD
ENDROOT
BRANCH   1   8
ATOM      3  C   UNL     1       8.177   0.527  23.698  0.00  0.00    +0.099 A 
ATOM      4  C   UNL     1       8.674   1.639  24.402  0.00  0.00    +0.020 A 
ATOM      5  C   UNL     1      10.044   1.828  24.515  0.00  0.00    +0.021 A 
ATOM      6  C   UNL     1      10.870   0.915  23.894  0.00  0.00    +0.113 A 
ATOM      7  N   UNL     1      10.414  -0.135  23.185  0.00  0.00    -0.239 NA
ATOM      8  C   UNL     1       9.077  -0.341  23.059  0.00  0.00    +0.137 A 
BRANCH   3   9
ATOM      9  C   UNL     1       6.717   0.332  23.555  0.00  0.00    +0.340 C 
ATOM     10  O   UNL     1       6.042  -0.210  24.410  0.00  0.00    -0.245 OA
BRANCH   9  11
ATOM     11  O   UNL     1       6.209   0.815  22.402  0.00  0.00    -0.477 OA
ATOM     12  H   UNL     1       5.846   1.722  22.441  0.00  0.00    +0.295 HD
ENDBRANCH   9  11
ENDBRANCH   3   9
ENDBRANCH   1   8
BRANCH   1  13
ATOM     13  C   UNL     1       8.228  -2.709  22.905  0.00  0.00    +0.033 A 
ATOM     14  C   UNL     1       7.348  -3.556  22.216  0.00  0.00    +0.035 A 
ATOM     15  C   UNL     1       7.087  -4.863  22.678  0.00  0.00    +0.057 A 
ATOM     16  C   UNL     1       7.645  -5.284  23.892  0.00  0.00    +0.012 A 
ATOM     17  C   UNL     1       8.464  -4.426  24.620  0.00  0.00    +0.002 A 
ATOM     18  C   UNL     1       8.750  -3.154  24.126  0.00  0.00    +0.023 A 
BRANCH  15  19
ATOM     19  C   UNL     1       6.269  -5.813  21.839  0.00  0.00    +0.417 C 
ATOM     20  F   UNL     1       4.969  -5.871  22.240  0.00  0.00    -0.166 F 
ATOM     21  F   UNL     1       6.733  -7.092  21.881  0.00  0.00    -0.166 F 
ATOM     22  F   UNL     1       6.231  -5.474  20.518  0.00  0.00    -0.166 F 
ENDBRANCH  15  19
ENDBRANCH   1  13
TORSDOF 5
ENDMDL
