MODEL 1
REMARK VINA RESULT:      -6.1      0.000      0.000
REMARK  Name = 
REMARK  18 active torsions:
REMARK  status: ('A' for Active; 'I' for Inactive)
REMARK    1  A    between atoms: C_2  and  O_3
REMARK    2  A    between atoms: C_2  and  C_4
REMARK    3  A    between atoms: C_2  and  C_15
REMARK    4  A    between atoms: N_6  and  C_7
REMARK    5  A    between atoms: C_7  and  C_8
REMARK    6  A    between atoms: C_8  and  C_9
REMARK    7  A    between atoms: N_11  and  C_12
REMARK    8  A    between atoms: C_12  and  C_13
REMARK    9  A    between atoms: C_13  and  O_14
REMARK   10  A    between atoms: C_15  and  C_16
REMARK   11  A    between atoms: C_15  and  C_17
REMARK   12  A    between atoms: C_15  and  C_18
REMARK   13  A    between atoms: C_18  and  O_19
REMARK   14  A    between atoms: O_19  and  C_20
REMARK   15  A    between atoms: C_20  and  C_22
REMARK   16  A    between atoms: C_22  and  C_23
REMARK   17  A    between atoms: C_22  and  C_24
REMARK   18  A    between atoms: C_22  and  C_25
REMARK                            x       y       z     vdW  Elec       q    Type
REMARK                         _______ _______ _______ _____ _____    ______ ____
ROOT
ATOM      1  C   UNL     1       9.213   0.281  24.061  0.00  0.00    +0.209 C 
ENDROOT
BRANCH   1   2
ATOM      2  C   UNL     1       9.473   1.785  24.271  0.00  0.00    +0.242 C 
ATOM      3  N   UNL     1       8.357   2.500  24.666  0.00  0.00    -0.313 N 
ATOM      4  H   UNL     1       7.613   1.956  25.093  0.00  0.00    +0.149 HD
ATOM      5  O   UNL     1      10.561   2.329  24.092  0.00  0.00    -0.273 OA
BRANCH   3   6
ATOM      6  C   UNL     1       8.476   3.909  25.002  0.00  0.00    +0.113 C 
BRANCH   6   7
ATOM      7  C   UNL     1       8.506   4.812  23.770  0.00  0.00    +0.114 C 
BRANCH   7   8
ATOM      8  C   UNL     1       9.672   5.770  23.821  0.00  0.00    +0.215 C 
ATOM      9  N   UNL     1      10.881   5.169  23.552  0.00  0.00    -0.313 N 
ATOM     10  H   UNL     1      10.925   4.169  23.405  0.00  0.00    +0.149 HD
ATOM     11  O   UNL     1       9.556   6.967  24.071  0.00  0.00    -0.276 OA
BRANCH   9  12
ATOM     12  C   UNL     1      12.120   5.930  23.535  0.00  0.00    +0.132 C 
BRANCH  12  13
ATOM     13  C   UNL     1      13.122   5.378  22.523  0.00  0.00    +0.174 C 
BRANCH  13  14
ATOM     14  O   UNL     1      14.343   5.036  23.181  0.00  0.00    -0.393 OA
ATOM     15  H   UNL     1      15.040   5.557  22.746  0.00  0.00    +0.209 HD
ENDBRANCH  13  14
ENDBRANCH  12  13
ENDBRANCH   9  12
ENDBRANCH   7   8
ENDBRANCH   6   7
ENDBRANCH   3   6
ENDBRANCH   1   2
BRANCH   1  16
ATOM     16  C   UNL     1       8.520  -0.093  22.715  0.00  0.00    +0.034 C 
ATOM     17  C   UNL     1       9.047   0.751  21.532  0.00  0.00    +0.017 C 
ATOM     18  C   UNL     1       6.992   0.106  22.834  0.00  0.00    +0.017 C 
BRANCH  16  19
ATOM     19  C   UNL     1       8.797  -1.592  22.416  0.00  0.00    +0.241 C 
BRANCH  19  20
ATOM     20  O   UNL     1       8.165  -2.444  23.393  0.00  0.00    -0.464 OA
BRANCH  20  21
ATOM     21  C   UNL     1       8.939  -3.422  23.949  0.00  0.00    +0.313 C 
ATOM     22  O   UNL     1      10.156  -3.364  24.058  0.00  0.00    -0.250 OA
BRANCH  21  23
ATOM     23  C   UNL     1       8.090  -4.620  24.390  0.00  0.00    +0.059 C 
ATOM     24  C   UNL     1       6.902  -4.142  25.234  0.00  0.00    +0.022 C 
ATOM     25  C   UNL     1       8.959  -5.561  25.243  0.00  0.00    +0.022 C 
ATOM     26  C   UNL     1       7.591  -5.380  23.155  0.00  0.00    +0.022 C 
ENDBRANCH  21  23
ENDBRANCH  20  21
ENDBRANCH  19  20
ENDBRANCH  16  19
ENDBRANCH   1  16
BRANCH   1  27
ATOM     27  O   UNL     1      10.446  -0.420  24.246  0.00  0.00    -0.382 OA
ATOM     28  H   UNL     1      11.150   0.098  23.815  0.00  0.00    +0.210 HD
ENDBRANCH   1  27
TORSDOF 13
ENDMDL
MODEL 2
REMARK VINA RESULT:      -6.1      1.870      2.901
REMARK  Name = 
REMARK  18 active torsions:
REMARK  status: ('A' for Active; 'I' for Inactive)
REMARK    1  A    between atoms: C_2  and  O_3
REMARK    2  A    between atoms: C_2  and  C_4
REMARK    3  A    between atoms: C_2  and  C_15
REMARK    4  A    between atoms: N_6  and  C_7
REMARK    5  A    between atoms: C_7  and  C_8
REMARK    6  A    between atoms: C_8  and  C_9
REMARK    7  A    between atoms: N_11  and  C_12
REMARK    8  A    between atoms: C_12  and  C_13
REMARK    9  A    between atoms: C_13  and  O_14
REMARK   10  A    between atoms: C_15  and  C_16
REMARK   11  A    between atoms: C_15  and  C_17
REMARK   12  A    between atoms: C_15  and  C_18
REMARK   13  A    between atoms: C_18  and  O_19
REMARK   14  A    between atoms: O_19  and  C_20
REMARK   15  A    between atoms: C_20  and  C_22
REMARK   16  A    between atoms: C_22  and  C_23
REMARK   17  A    between atoms: C_22  and  C_24
REMARK   18  A    between atoms: C_22  and  C_25
REMARK                            x       y       z     vdW  Elec       q    Type
REMARK                         _______ _______ _______ _____ _____    ______ ____
ROOT
ATOM      1  C   UNL     1       9.906  -0.944  22.845  0.00  0.00    +0.209 C 
ENDROOT
BRANCH   1   2
ATOM      2  C   UNL     1       9.267   0.239  22.091  0.00  0.00    +0.242 C 
ATOM      3  N   UNL     1       8.931   1.307  22.900  0.00  0.00    -0.313 N 
ATOM      4  H   UNL     1       9.420   1.360  23.788  0.00  0.00    +0.149 HD
ATOM      5  O   UNL     1       9.048   0.246  20.880  0.00  0.00    -0.273 OA
BRANCH   3   6
ATOM      6  C   UNL     1       8.415   2.533  22.311  0.00  0.00    +0.113 C 
BRANCH   6   7
ATOM      7  C   UNL     1       8.628   3.754  23.202  0.00  0.00    +0.114 C 
BRANCH   7   8
ATOM      8  C   UNL     1      10.081   3.909  23.581  0.00  0.00    +0.215 C 
ATOM      9  N   UNL     1      10.550   5.195  23.424  0.00  0.00    -0.313 N 
ATOM     10  H   UNL     1       9.947   5.906  23.029  0.00  0.00    +0.149 HD
ATOM     11  O   UNL     1      10.777   2.986  23.995  0.00  0.00    -0.276 OA
BRANCH   9  12
ATOM     12  C   UNL     1      11.920   5.550  23.754  0.00  0.00    +0.132 C 
BRANCH  12  13
ATOM     13  C   UNL     1      12.881   5.280  22.598  0.00  0.00    +0.174 C 
BRANCH  13  14
ATOM     14  O   UNL     1      14.204   5.081  23.098  0.00  0.00    -0.393 OA
ATOM     15  H   UNL     1      14.125   5.046  24.067  0.00  0.00    +0.209 HD
ENDBRANCH  13  14
ENDBRANCH  12  13
ENDBRANCH   9  12
ENDBRANCH   7   8
ENDBRANCH   6   7
ENDBRANCH   3   6
ENDBRANCH   1   2
BRANCH   1  16
ATOM     16  C   UNL     1       8.970  -1.671  23.858  0.00  0.00    +0.034 C 
ATOM     17  C   UNL     1       8.761  -0.853  25.152  0.00  0.00    +0.017 C 
ATOM     18  C   UNL     1       9.559  -3.053  24.224  0.00  0.00    +0.017 C 
BRANCH  16  19
ATOM     19  C   UNL     1       7.588  -1.891  23.182  0.00  0.00    +0.241 C 
BRANCH  19  20
ATOM     20  O   UNL     1       7.573  -3.109  22.409  0.00  0.00    -0.464 OA
BRANCH  20  21
ATOM     21  C   UNL     1       6.348  -3.627  22.102  0.00  0.00    +0.313 C 
ATOM     22  O   UNL     1       5.372  -2.959  21.789  0.00  0.00    -0.250 OA
BRANCH  21  23
ATOM     23  C   UNL     1       6.342  -5.154  22.231  0.00  0.00    +0.059 C 
ATOM     24  C   UNL     1       7.644  -5.633  22.887  0.00  0.00    +0.022 C 
ATOM     25  C   UNL     1       6.235  -5.774  20.827  0.00  0.00    +0.022 C 
ATOM     26  C   UNL     1       5.134  -5.595  23.067  0.00  0.00    +0.022 C 
ENDBRANCH  21  23
ENDBRANCH  20  21
ENDBRANCH  19  20
ENDBRANCH  16  19
ENDBRANCH   1  16
BRANCH   1  27
ATOM     27  O   UNL     1      10.464  -1.844  21.884  0.00  0.00    -0.382 OA
ATOM     28  H   UNL     1       9.736  -2.169  21.324  0.00  0.00    +0.210 HD
ENDBRANCH   1  27
TORSDOF 13
ENDMDL
MODEL 3
REMARK VINA RESULT:      -6.0      3.523      8.823
REMARK  Name = 
REMARK  18 active torsions:
REMARK  status: ('A' for Active; 'I' for Inactive)
REMARK    1  A    between atoms: C_2  and  O_3
REMARK    2  A    between atoms: C_2  and  C_4
REMARK    3  A    between atoms: C_2  and  C_15
REMARK    4  A    between atoms: N_6  and  C_7
REMARK    5  A    between atoms: C_7  and  C_8
REMARK    6  A    between atoms: C_8  and  C_9
REMARK    7  A    between atoms: N_11  and  C_12
REMARK    8  A    between atoms: C_12  and  C_13
REMARK    9  A    between atoms: C_13  and  O_14
REMARK   10  A    between atoms: C_15  and  C_16
REMARK   11  A    between atoms: C_15  and  C_17
REMARK   12  A    between atoms: C_15  and  C_18
REMARK   13  A    between atoms: C_18  and  O_19
REMARK   14  A    between atoms: O_19  and  C_20
REMARK   15  A    between atoms: C_20  and  C_22
REMARK   16  A    between atoms: C_22  and  C_23
REMARK   17  A    between atoms: C_22  and  C_24
REMARK   18  A    between atoms: C_22  and  C_25
REMARK                            x       y       z     vdW  Elec       q    Type
REMARK                         _______ _______ _______ _____ _____    ______ ____
ROOT
ATOM      1  C   UNL     1       8.716  -2.926  23.448  0.00  0.00    +0.209 C 
ENDROOT
BRANCH   1   2
ATOM      2  C   UNL     1       7.979  -4.280  23.479  0.00  0.00    +0.242 C 
ATOM      3  N   UNL     1       6.974  -4.395  22.537  0.00  0.00    -0.313 N 
ATOM      4  H   UNL     1       7.041  -3.770  21.741  0.00  0.00    +0.149 HD
ATOM      5  O   UNL     1       8.233  -5.185  24.272  0.00  0.00    -0.273 OA
BRANCH   3   6
ATOM      6  C   UNL     1       6.264  -5.655  22.381  0.00  0.00    +0.113 C 
BRANCH   6   7
ATOM      7  C   UNL     1       4.874  -5.634  23.012  0.00  0.00    +0.114 C 
BRANCH   7   8
ATOM      8  C   UNL     1       4.860  -6.363  24.334  0.00  0.00    +0.215 C 
ATOM      9  N   UNL     1       5.392  -5.623  25.368  0.00  0.00    -0.313 N 
ATOM     10  H   UNL     1       5.793  -4.713  25.181  0.00  0.00    +0.149 HD
ATOM     11  O   UNL     1       4.415  -7.498  24.479  0.00  0.00    -0.276 OA
BRANCH   9  12
ATOM     12  C   UNL     1       5.451  -6.146  26.723  0.00  0.00    +0.132 C 
BRANCH  12  13
ATOM     13  C   UNL     1       6.585  -5.521  27.533  0.00  0.00    +0.174 C 
BRANCH  13  14
ATOM     14  O   UNL     1       7.846  -5.989  27.051  0.00  0.00    -0.393 OA
ATOM     15  H   UNL     1       7.680  -6.343  26.160  0.00  0.00    +0.209 HD
ENDBRANCH  13  14
ENDBRANCH  12  13
ENDBRANCH   9  12
ENDBRANCH   7   8
ENDBRANCH   6   7
ENDBRANCH   3   6
ENDBRANCH   1   2
BRANCH   1  16
ATOM     16  C   UNL     1       8.060  -1.793  24.295  0.00  0.00    +0.034 C 
ATOM     17  C   UNL     1       7.259  -2.348  25.494  0.00  0.00    +0.017 C 
ATOM     18  C   UNL     1       7.117  -0.949  23.407  0.00  0.00    +0.017 C 
BRANCH  16  19
ATOM     19  C   UNL     1       9.184  -0.867  24.835  0.00  0.00    +0.241 C 
BRANCH  19  20
ATOM     20  O   UNL     1       9.929  -0.266  23.757  0.00  0.00    -0.464 OA
BRANCH  20  21
ATOM     21  C   UNL     1      10.639   0.862  24.053  0.00  0.00    +0.313 C 
ATOM     22  O   UNL     1      11.631   0.888  24.769  0.00  0.00    -0.250 OA
BRANCH  21  23
ATOM     23  C   UNL     1      10.014   2.100  23.399  0.00  0.00    +0.059 C 
ATOM     24  C   UNL     1       9.574   1.774  21.966  0.00  0.00    +0.022 C 
ATOM     25  C   UNL     1      11.064   3.224  23.353  0.00  0.00    +0.022 C 
ATOM     26  C   UNL     1       8.813   2.569  24.228  0.00  0.00    +0.022 C 
ENDBRANCH  21  23
ENDBRANCH  20  21
ENDBRANCH  19  20
ENDBRANCH  16  19
ENDBRANCH   1  16
BRANCH   1  27
ATOM     27  O   UNL     1      10.082  -3.148  23.809  0.00  0.00    -0.382 OA
ATOM     28  H   UNL     1      10.636  -2.589  23.233  0.00  0.00    +0.210 HD
ENDBRANCH   1  27
TORSDOF 13
ENDMDL
MODEL 4
REMARK VINA RESULT:      -6.0      3.839      9.393
REMARK  Name = 
REMARK  18 active torsions:
REMARK  status: ('A' for Active; 'I' for Inactive)
REMARK    1  A    between atoms: C_2  and  O_3
REMARK    2  A    between atoms: C_2  and  C_4
REMARK    3  A    between atoms: C_2  and  C_15
REMARK    4  A    between atoms: N_6  and  C_7
REMARK    5  A    between atoms: C_7  and  C_8
REMARK    6  A    between atoms: C_8  and  C_9
REMARK    7  A    between atoms: N_11  and  C_12
REMARK    8  A    between atoms: C_12  and  C_13
REMARK    9  A    between atoms: C_13  and  O_14
REMARK   10  A    between atoms: C_15  and  C_16
REMARK   11  A    between atoms: C_15  and  C_17
REMARK   12  A    between atoms: C_15  and  C_18
REMARK   13  A    between atoms: C_18  and  O_19
REMARK   14  A    between atoms: O_19  and  C_20
REMARK   15  A    between atoms: C_20  and  C_22
REMARK   16  A    between atoms: C_22  and  C_23
REMARK   17  A    between atoms: C_22  and  C_24
REMARK   18  A    between atoms: C_22  and  C_25
REMARK                            x       y       z     vdW  Elec       q    Type
REMARK                         _______ _______ _______ _____ _____    ______ ____
ROOT
ATOM      1  C   UNL     1       8.093  -3.090  24.901  0.00  0.00    +0.209 C 
ENDROOT
BRANCH   1   2
ATOM      2  C   UNL     1       8.209  -4.380  24.065  0.00  0.00    +0.242 C 
ATOM      3  N   UNL     1       7.284  -4.475  23.043  0.00  0.00    -0.313 N 
ATOM      4  H   UNL     1       6.876  -3.597  22.734  0.00  0.00    +0.149 HD
ATOM      5  O   UNL     1       9.031  -5.270  24.280  0.00  0.00    -0.273 OA
BRANCH   3   6
ATOM      6  C   UNL     1       7.341  -5.587  22.108  0.00  0.00    +0.113 C 
BRANCH   6   7
ATOM      7  C   UNL     1       5.964  -6.007  21.600  0.00  0.00    +0.114 C 
BRANCH   7   8
ATOM      8  C   UNL     1       4.904  -5.801  22.656  0.00  0.00    +0.215 C 
ATOM      9  N   UNL     1       4.774  -6.872  23.512  0.00  0.00    -0.313 N 
ATOM     10  H   UNL     1       5.320  -7.710  23.356  0.00  0.00    +0.149 HD
ATOM     11  O   UNL     1       4.228  -4.780  22.748  0.00  0.00    -0.276 OA
BRANCH   9  12
ATOM     12  C   UNL     1       3.817  -6.857  24.607  0.00  0.00    +0.132 C 
BRANCH  12  13
ATOM     13  C   UNL     1       2.608  -7.746  24.328  0.00  0.00    +0.174 C 
BRANCH  13  14
ATOM     14  O   UNL     1       2.745  -8.990  25.017  0.00  0.00    -0.393 OA
ATOM     15  H   UNL     1       2.459  -9.678  24.392  0.00  0.00    +0.209 HD
ENDBRANCH  13  14
ENDBRANCH  12  13
ENDBRANCH   9  12
ENDBRANCH   7   8
ENDBRANCH   6   7
ENDBRANCH   3   6
ENDBRANCH   1   2
BRANCH   1  16
ATOM     16  C   UNL     1       8.658  -1.805  24.221  0.00  0.00    +0.034 C 
ATOM     17  C   UNL     1       7.584  -1.059  23.397  0.00  0.00    +0.017 C 
ATOM     18  C   UNL     1       9.839  -2.174  23.293  0.00  0.00    +0.017 C 
BRANCH  16  19
ATOM     19  C   UNL     1       9.184  -0.852  25.328  0.00  0.00    +0.241 C 
BRANCH  19  20
ATOM     20  O   UNL     1       9.104   0.527  24.912  0.00  0.00    -0.464 OA
BRANCH  20  21
ATOM     21  C   UNL     1      10.241   1.083  24.401  0.00  0.00    +0.313 C 
ATOM     22  O   UNL     1      11.374   0.799  24.765  0.00  0.00    -0.250 OA
BRANCH  21  23
ATOM     23  C   UNL     1       9.916   2.134  23.334  0.00  0.00    +0.059 C 
ATOM     24  C   UNL     1       8.509   2.701  23.563  0.00  0.00    +0.022 C 
ATOM     25  C   UNL     1       9.964   1.468  21.947  0.00  0.00    +0.022 C 
ATOM     26  C   UNL     1      10.956   3.259  23.386  0.00  0.00    +0.022 C 
ENDBRANCH  21  23
ENDBRANCH  20  21
ENDBRANCH  19  20
ENDBRANCH  16  19
ENDBRANCH   1  16
BRANCH   1  27
ATOM     27  O   UNL     1       6.730  -2.934  25.303  0.00  0.00    -0.382 OA
ATOM     28  H   UNL     1       6.646  -3.282  26.209  0.00  0.00    +0.210 HD
ENDBRANCH   1  27
TORSDOF 13
ENDMDL
MODEL 5
REMARK VINA RESULT:      -5.9      1.717      2.157
REMARK  Name = 
REMARK  18 active torsions:
REMARK  status: ('A' for Active; 'I' for Inactive)
REMARK    1  A    between atoms: C_2  and  O_3
REMARK    2  A    between atoms: C_2  and  C_4
REMARK    3  A    between atoms: C_2  and  C_15
REMARK    4  A    between atoms: N_6  and  C_7
REMARK    5  A    between atoms: C_7  and  C_8
REMARK    6  A    between atoms: C_8  and  C_9
REMARK    7  A    between atoms: N_11  and  C_12
REMARK    8  A    between atoms: C_12  and  C_13
REMARK    9  A    between atoms: C_13  and  O_14
REMARK   10  A    between atoms: C_15  and  C_16
REMARK   11  A    between atoms: C_15  and  C_17
REMARK   12  A    between atoms: C_15  and  C_18
REMARK   13  A    between atoms: C_18  and  O_19
REMARK   14  A    between atoms: O_19  and  C_20
REMARK   15  A    between atoms: C_20  and  C_22
REMARK   16  A    between atoms: C_22  and  C_23
REMARK   17  A    between atoms: C_22  and  C_24
REMARK   18  A    between atoms: C_22  and  C_25
REMARK                            x       y       z     vdW  Elec       q    Type
REMARK                         _______ _______ _______ _____ _____    ______ ____
ROOT
ATOM      1  C   UNL     1       9.536   0.764  22.158  0.00  0.00    +0.209 C 
ENDROOT
BRANCH   1   2
ATOM      2  C   UNL     1       8.296   1.677  22.093  0.00  0.00    +0.242 C 
ATOM      3  N   UNL     1       8.565   3.012  22.327  0.00  0.00    -0.313 N 
ATOM      4  H   UNL     1       9.527   3.301  22.180  0.00  0.00    +0.149 HD
ATOM      5  O   UNL     1       7.155   1.273  21.872  0.00  0.00    -0.273 OA
BRANCH   3   6
ATOM      6  C   UNL     1       7.508   4.002  22.195  0.00  0.00    +0.113 C 
BRANCH   6   7
ATOM      7  C   UNL     1       7.837   5.317  22.897  0.00  0.00    +0.114 C 
BRANCH   7   8
ATOM      8  C   UNL     1       9.088   5.195  23.733  0.00  0.00    +0.215 C 
ATOM      9  N   UNL     1      10.149   5.917  23.233  0.00  0.00    -0.313 N 
ATOM     10  H   UNL     1      10.054   6.408  22.353  0.00  0.00    +0.149 HD
ATOM     11  O   UNL     1       9.155   4.526  24.760  0.00  0.00    -0.276 OA
BRANCH   9  12
ATOM     12  C   UNL     1      11.437   5.941  23.907  0.00  0.00    +0.132 C 
BRANCH  12  13
ATOM     13  C   UNL     1      12.434   4.968  23.282  0.00  0.00    +0.174 C 
BRANCH  13  14
ATOM     14  O   UNL     1      12.623   5.282  21.901  0.00  0.00    -0.393 OA
ATOM     15  H   UNL     1      13.582   5.240  21.743  0.00  0.00    +0.209 HD
ENDBRANCH  13  14
ENDBRANCH  12  13
ENDBRANCH   9  12
ENDBRANCH   7   8
ENDBRANCH   6   7
ENDBRANCH   3   6
ENDBRANCH   1   2
BRANCH   1  16
ATOM     16  C   UNL     1       9.801   0.100  23.544  0.00  0.00    +0.034 C 
ATOM     17  C   UNL     1       8.573   0.188  24.478  0.00  0.00    +0.017 C 
ATOM     18  C   UNL     1      11.008   0.778  24.233  0.00  0.00    +0.017 C 
BRANCH  16  19
ATOM     19  C   UNL     1      10.145  -1.397  23.316  0.00  0.00    +0.241 C 
BRANCH  19  20
ATOM     20  O   UNL     1       8.949  -2.195  23.194  0.00  0.00    -0.464 OA
BRANCH  20  21
ATOM     21  C   UNL     1       8.920  -3.371  23.888  0.00  0.00    +0.313 C 
ATOM     22  O   UNL     1       9.896  -3.887  24.415  0.00  0.00    -0.250 OA
BRANCH  21  23
ATOM     23  C   UNL     1       7.513  -3.978  23.895  0.00  0.00    +0.059 C 
ATOM     24  C   UNL     1       6.459  -2.868  24.000  0.00  0.00    +0.022 C 
ATOM     25  C   UNL     1       7.376  -4.910  25.111  0.00  0.00    +0.022 C 
ATOM     26  C   UNL     1       7.298  -4.792  22.613  0.00  0.00    +0.022 C 
ENDBRANCH  21  23
ENDBRANCH  20  21
ENDBRANCH  19  20
ENDBRANCH  16  19
ENDBRANCH   1  16
BRANCH   1  27
ATOM     27  O   UNL     1       9.444  -0.200  21.106  0.00  0.00    -0.382 OA
ATOM     28  H   UNL     1       9.236   0.278  20.283  0.00  0.00    +0.210 HD
ENDBRANCH   1  27
TORSDOF 13
ENDMDL
MODEL 6
REMARK VINA RESULT:      -5.9      3.047      8.817
REMARK  Name = 
REMARK  18 active torsions:
REMARK  status: ('A' for Active; 'I' for Inactive)
REMARK    1  A    between atoms: C_2  and  O_3
REMARK    2  A    between atoms: C_2  and  C_4
REMARK    3  A    between atoms: C_2  and  C_15
REMARK    4  A    between atoms: N_6  and  C_7
REMARK    5  A    between atoms: C_7  and  C_8
REMARK    6  A    between atoms: C_8  and  C_9
REMARK    7  A    between atoms: N_11  and  C_12
REMARK    8  A    between atoms: C_12  and  C_13
REMARK    9  A    between atoms: C_13  and  O_14
REMARK   10  A    between atoms: C_15  and  C_16
REMARK   11  A    between atoms: C_15  and  C_17
REMARK   12  A    between atoms: C_15  and  C_18
REMARK   13  A    between atoms: C_18  and  O_19
REMARK   14  A    between atoms: O_19  and  C_20
REMARK   15  A    between atoms: C_20  and  C_22
REMARK   16  A    between atoms: C_22  and  C_23
REMARK   17  A    between atoms: C_22  and  C_24
REMARK   18  A    between atoms: C_22  and  C_25
REMARK                            x       y       z     vdW  Elec       q    Type
REMARK                         _______ _______ _______ _____ _____    ______ ____
ROOT
ATOM      1  C   UNL     1       9.217  -1.808  22.906  0.00  0.00    +0.209 C 
ENDROOT
BRANCH   1   2
ATOM      2  C   UNL     1       8.782  -3.097  23.631  0.00  0.00    +0.242 C 
ATOM      3  N   UNL     1       9.764  -3.652  24.430  0.00  0.00    -0.313 N 
ATOM      4  H   UNL     1      10.503  -3.022  24.724  0.00  0.00    +0.149 HD
ATOM      5  O   UNL     1       7.673  -3.614  23.511  0.00  0.00    -0.273 OA
BRANCH   3   6
ATOM      6  C   UNL     1       9.462  -4.811  25.254  0.00  0.00    +0.113 C 
BRANCH   6   7
ATOM      7  C   UNL     1       8.766  -4.443  26.562  0.00  0.00    +0.114 C 
BRANCH   7   8
ATOM      8  C   UNL     1       7.546  -5.302  26.795  0.00  0.00    +0.215 C 
ATOM      9  N   UNL     1       6.715  -5.374  25.699  0.00  0.00    -0.313 N 
ATOM     10  H   UNL     1       6.925  -4.830  24.871  0.00  0.00    +0.149 HD
ATOM     11  O   UNL     1       7.317  -5.884  27.852  0.00  0.00    -0.276 OA
BRANCH   9  12
ATOM     12  C   UNL     1       5.497  -6.168  25.720  0.00  0.00    +0.132 C 
BRANCH  12  13
ATOM     13  C   UNL     1       4.920  -6.376  24.322  0.00  0.00    +0.174 C 
BRANCH  13  14
ATOM     14  O   UNL     1       4.212  -7.615  24.264  0.00  0.00    -0.393 OA
ATOM     15  H   UNL     1       3.930  -7.723  23.339  0.00  0.00    +0.209 HD
ENDBRANCH  13  14
ENDBRANCH  12  13
ENDBRANCH   9  12
ENDBRANCH   7   8
ENDBRANCH   6   7
ENDBRANCH   3   6
ENDBRANCH   1   2
BRANCH   1  16
ATOM     16  C   UNL     1       8.875  -0.479  23.648  0.00  0.00    +0.034 C 
ATOM     17  C   UNL     1       8.847  -0.658  25.183  0.00  0.00    +0.017 C 
ATOM     18  C   UNL     1       7.500   0.050  23.177  0.00  0.00    +0.017 C 
BRANCH  16  19
ATOM     19  C   UNL     1       9.955   0.578  23.291  0.00  0.00    +0.241 C 
BRANCH  19  20
ATOM     20  O   UNL     1      10.010   1.624  24.284  0.00  0.00    -0.464 OA
BRANCH  20  21
ATOM     21  C   UNL     1      10.149   2.901  23.823  0.00  0.00    +0.313 C 
ATOM     22  O   UNL     1      11.156   3.337  23.282  0.00  0.00    -0.250 OA
BRANCH  21  23
ATOM     23  C   UNL     1       8.890   3.732  24.101  0.00  0.00    +0.059 C 
ATOM     24  C   UNL     1       9.278   5.169  24.473  0.00  0.00    +0.022 C 
ATOM     25  C   UNL     1       8.126   3.101  25.278  0.00  0.00    +0.022 C 
ATOM     26  C   UNL     1       7.989   3.730  22.860  0.00  0.00    +0.022 C 
ENDBRANCH  21  23
ENDBRANCH  20  21
ENDBRANCH  19  20
ENDBRANCH  16  19
ENDBRANCH   1  16
BRANCH   1  27
ATOM     27  O   UNL     1      10.610  -1.911  22.599  0.00  0.00    -0.382 OA
ATOM     28  H   UNL     1      11.056  -2.305  23.370  0.00  0.00    +0.210 HD
ENDBRANCH   1  27
TORSDOF 13
ENDMDL
MODEL 7
REMARK VINA RESULT:      -5.8      2.044      3.056
REMARK  Name = 
REMARK  18 active torsions:
REMARK  status: ('A' for Active; 'I' for Inactive)
REMARK    1  A    between atoms: C_2  and  O_3
REMARK    2  A    between atoms: C_2  and  C_4
REMARK    3  A    between atoms: C_2  and  C_15
REMARK    4  A    between atoms: N_6  and  C_7
REMARK    5  A    between atoms: C_7  and  C_8
REMARK    6  A    between atoms: C_8  and  C_9
REMARK    7  A    between atoms: N_11  and  C_12
REMARK    8  A    between atoms: C_12  and  C_13
REMARK    9  A    between atoms: C_13  and  O_14
REMARK   10  A    between atoms: C_15  and  C_16
REMARK   11  A    between atoms: C_15  and  C_17
REMARK   12  A    between atoms: C_15  and  C_18
REMARK   13  A    between atoms: C_18  and  O_19
REMARK   14  A    between atoms: O_19  and  C_20
REMARK   15  A    between atoms: C_20  and  C_22
REMARK   16  A    between atoms: C_22  and  C_23
REMARK   17  A    between atoms: C_22  and  C_24
REMARK   18  A    between atoms: C_22  and  C_25
REMARK                            x       y       z     vdW  Elec       q    Type
REMARK                         _______ _______ _______ _____ _____    ______ ____
ROOT
ATOM      1  C   UNL     1       9.804  -1.319  24.564  0.00  0.00    +0.209 C 
ENDROOT
BRANCH   1   2
ATOM      2  C   UNL     1       9.988   0.088  23.961  0.00  0.00    +0.242 C 
ATOM      3  N   UNL     1       9.797   0.144  22.593  0.00  0.00    -0.313 N 
ATOM      4  H   UNL     1       9.248  -0.610  22.193  0.00  0.00    +0.149 HD
ATOM      5  O   UNL     1      10.296   1.083  24.615  0.00  0.00    -0.273 OA
BRANCH   3   6
ATOM      6  C   UNL     1       9.836   1.424  21.905  0.00  0.00    +0.113 C 
BRANCH   6   7
ATOM      7  C   UNL     1       8.449   2.027  21.695  0.00  0.00    +0.114 C 
BRANCH   7   8
ATOM      8  C   UNL     1       8.215   3.200  22.617  0.00  0.00    +0.215 C 
ATOM      9  N   UNL     1       9.354   3.608  23.276  0.00  0.00    -0.313 N 
ATOM     10  H   UNL     1      10.216   3.091  23.159  0.00  0.00    +0.149 HD
ATOM     11  O   UNL     1       7.123   3.741  22.763  0.00  0.00    -0.276 OA
BRANCH   9  12
ATOM     12  C   UNL     1       9.337   4.734  24.195  0.00  0.00    +0.132 C 
BRANCH  12  13
ATOM     13  C   UNL     1       9.875   6.011  23.553  0.00  0.00    +0.174 C 
BRANCH  13  14
ATOM     14  O   UNL     1      11.107   5.741  22.884  0.00  0.00    -0.393 OA
ATOM     15  H   UNL     1      11.710   6.465  23.125  0.00  0.00    +0.209 HD
ENDBRANCH  13  14
ENDBRANCH  12  13
ENDBRANCH   9  12
ENDBRANCH   7   8
ENDBRANCH   6   7
ENDBRANCH   3   6
ENDBRANCH   1   2
BRANCH   1  16
ATOM     16  C   UNL     1       8.486  -1.529  25.371  0.00  0.00    +0.034 C 
ATOM     17  C   UNL     1       7.272  -0.856  24.693  0.00  0.00    +0.017 C 
ATOM     18  C   UNL     1       8.645  -0.959  26.800  0.00  0.00    +0.017 C 
BRANCH  16  19
ATOM     19  C   UNL     1       8.211  -3.053  25.479  0.00  0.00    +0.241 C 
BRANCH  19  20
ATOM     20  O   UNL     1       7.263  -3.485  24.481  0.00  0.00    -0.464 OA
BRANCH  20  21
ATOM     21  C   UNL     1       7.611  -4.573  23.732  0.00  0.00    +0.313 C 
ATOM     22  O   UNL     1       8.670  -5.176  23.838  0.00  0.00    -0.250 OA
BRANCH  21  23
ATOM     23  C   UNL     1       6.516  -4.922  22.718  0.00  0.00    +0.059 C 
ATOM     24  C   UNL     1       6.083  -3.664  21.954  0.00  0.00    +0.022 C 
ATOM     25  C   UNL     1       5.300  -5.490  23.471  0.00  0.00    +0.022 C 
ATOM     26  C   UNL     1       7.039  -5.982  21.740  0.00  0.00    +0.022 C 
ENDBRANCH  21  23
ENDBRANCH  20  21
ENDBRANCH  19  20
ENDBRANCH  16  19
ENDBRANCH   1  16
BRANCH   1  27
ATOM     27  O   UNL     1       9.956  -2.282  23.518  0.00  0.00    -0.382 OA
ATOM     28  H   UNL     1       9.648  -3.142  23.859  0.00  0.00    +0.210 HD
ENDBRANCH   1  27
TORSDOF 13
ENDMDL
MODEL 8
REMARK VINA RESULT:      -5.8      3.674      8.971
REMARK  Name = 
REMARK  18 active torsions:
REMARK  status: ('A' for Active; 'I' for Inactive)
REMARK    1  A    between atoms: C_2  and  O_3
REMARK    2  A    between atoms: C_2  and  C_4
REMARK    3  A    between atoms: C_2  and  C_15
REMARK    4  A    between atoms: N_6  and  C_7
REMARK    5  A    between atoms: C_7  and  C_8
REMARK    6  A    between atoms: C_8  and  C_9
REMARK    7  A    between atoms: N_11  and  C_12
REMARK    8  A    between atoms: C_12  and  C_13
REMARK    9  A    between atoms: C_13  and  O_14
REMARK   10  A    between atoms: C_15  and  C_16
REMARK   11  A    between atoms: C_15  and  C_17
REMARK   12  A    between atoms: C_15  and  C_18
REMARK   13  A    between atoms: C_18  and  O_19
REMARK   14  A    between atoms: O_19  and  C_20
REMARK   15  A    between atoms: C_20  and  C_22
REMARK   16  A    between atoms: C_22  and  C_23
REMARK   17  A    between atoms: C_22  and  C_24
REMARK   18  A    between atoms: C_22  and  C_25
REMARK                            x       y       z     vdW  Elec       q    Type
REMARK                         _______ _______ _______ _____ _____    ______ ____
ROOT
ATOM      1  C   UNL     1       8.430  -2.604  23.707  0.00  0.00    +0.209 C 
ENDROOT
BRANCH   1   2
ATOM      2  C   UNL     1       8.205  -4.091  23.371  0.00  0.00    +0.242 C 
ATOM      3  N   UNL     1       7.458  -4.304  22.228  0.00  0.00    -0.313 N 
ATOM      4  H   UNL     1       7.431  -3.532  21.569  0.00  0.00    +0.149 HD
ATOM      5  O   UNL     1       8.626  -5.023  24.055  0.00  0.00    -0.273 OA
BRANCH   3   6
ATOM      6  C   UNL     1       7.254  -5.656  21.732  0.00  0.00    +0.113 C 
BRANCH   6   7
ATOM      7  C   UNL     1       5.786  -5.970  21.455  0.00  0.00    +0.114 C 
BRANCH   7   8
ATOM      8  C   UNL     1       4.940  -5.770  22.689  0.00  0.00    +0.215 C 
ATOM      9  N   UNL     1       5.055  -6.797  23.599  0.00  0.00    -0.313 N 
ATOM     10  H   UNL     1       5.619  -7.608  23.375  0.00  0.00    +0.149 HD
ATOM     11  O   UNL     1       4.224  -4.789  22.869  0.00  0.00    -0.276 OA
BRANCH   9  12
ATOM     12  C   UNL     1       4.331  -6.779  24.860  0.00  0.00    +0.132 C 
BRANCH  12  13
ATOM     13  C   UNL     1       5.226  -6.388  26.034  0.00  0.00    +0.174 C 
BRANCH  13  14
ATOM     14  O   UNL     1       4.991  -7.259  27.141  0.00  0.00    -0.393 OA
ATOM     15  H   UNL     1       5.605  -6.979  27.841  0.00  0.00    +0.209 HD
ENDBRANCH  13  14
ENDBRANCH  12  13
ENDBRANCH   9  12
ENDBRANCH   7   8
ENDBRANCH   6   7
ENDBRANCH   3   6
ENDBRANCH   1   2
BRANCH   1  16
ATOM     16  C   UNL     1       7.633  -2.072  24.937  0.00  0.00    +0.034 C 
ATOM     17  C   UNL     1       8.401  -2.270  26.263  0.00  0.00    +0.017 C 
ATOM     18  C   UNL     1       6.268  -2.792  25.033  0.00  0.00    +0.017 C 
BRANCH  16  19
ATOM     19  C   UNL     1       7.372  -0.554  24.737  0.00  0.00    +0.241 C 
BRANCH  19  20
ATOM     20  O   UNL     1       8.559   0.220  25.009  0.00  0.00    -0.464 OA
BRANCH  20  21
ATOM     21  C   UNL     1       8.699   1.393  24.324  0.00  0.00    +0.313 C 
ATOM     22  O   UNL     1       7.835   2.257  24.247  0.00  0.00    -0.250 OA
BRANCH  21  23
ATOM     23  C   UNL     1      10.066   1.476  23.636  0.00  0.00    +0.059 C 
ATOM     24  C   UNL     1      10.478   2.943  23.456  0.00  0.00    +0.022 C 
ATOM     25  C   UNL     1       9.970   0.813  22.251  0.00  0.00    +0.022 C 
ATOM     26  C   UNL     1      11.110   0.731  24.477  0.00  0.00    +0.022 C 
ENDBRANCH  21  23
ENDBRANCH  20  21
ENDBRANCH  19  20
ENDBRANCH  16  19
ENDBRANCH   1  16
BRANCH   1  27
ATOM     27  O   UNL     1       9.837  -2.379  23.838  0.00  0.00    -0.382 OA
ATOM     28  H   UNL     1      10.295  -3.186  23.542  0.00  0.00    +0.210 HD
ENDBRANCH   1  27
TORSDOF 13
ENDMDL
MODEL 9
REMARK VINA RESULT:      -5.7      1.789      2.676
REMARK  Name = 
REMARK  18 active torsions:
REMARK  status: ('A' for Active; 'I' for Inactive)
REMARK    1  A    between atoms: C_2  and  O_3
REMARK    2  A    between atoms: C_2  and  C_4
REMARK    3  A    between atoms: C_2  and  C_15
REMARK    4  A    between atoms: N_6  and  C_7
REMARK    5  A    between atoms: C_7  and  C_8
REMARK    6  A    between atoms: C_8  and  C_9
REMARK    7  A    between atoms: N_11  and  C_12
REMARK    8  A    between atoms: C_12  and  C_13
REMARK    9  A    between atoms: C_13  and  O_14
REMARK   10  A    between atoms: C_15  and  C_16
REMARK   11  A    between atoms: C_15  and  C_17
REMARK   12  A    between atoms: C_15  and  C_18
REMARK   13  A    between atoms: C_18  and  O_19
REMARK   14  A    between atoms: O_19  and  C_20
REMARK   15  A    between atoms: C_20  and  C_22
REMARK   16  A    between atoms: C_22  and  C_23
REMARK   17  A    between atoms: C_22  and  C_24
REMARK   18  A    between atoms: C_22  and  C_25
REMARK                            x       y       z     vdW  Elec       q    Type
REMARK                         _______ _______ _______ _____ _____    ______ ____
ROOT
ATOM      1  C   UNL     1       9.509   1.057  24.292  0.00  0.00    +0.209 C 
ENDROOT
BRANCH   1   2
ATOM      2  C   UNL     1       9.728   2.408  23.584  0.00  0.00    +0.242 C 
ATOM      3  N   UNL     1      11.023   2.884  23.665  0.00  0.00    -0.313 N 
ATOM      4  H   UNL     1      11.737   2.189  23.858  0.00  0.00    +0.149 HD
ATOM      5  O   UNL     1       8.840   3.036  23.008  0.00  0.00    -0.273 OA
BRANCH   3   6
ATOM      6  C   UNL     1      11.399   4.096  22.954  0.00  0.00    +0.113 C 
BRANCH   6   7
ATOM      7  C   UNL     1      11.645   5.278  23.888  0.00  0.00    +0.114 C 
BRANCH   7   8
ATOM      8  C   UNL     1      10.386   6.086  24.093  0.00  0.00    +0.215 C 
ATOM      9  N   UNL     1       9.495   5.978  23.048  0.00  0.00    -0.313 N 
ATOM     10  H   UNL     1       9.746   5.445  22.225  0.00  0.00    +0.149 HD
ATOM     11  O   UNL     1      10.172   6.768  25.092  0.00  0.00    -0.276 OA
BRANCH   9  12
ATOM     12  C   UNL     1       8.216   6.669  23.066  0.00  0.00    +0.132 C 
BRANCH  12  13
ATOM     13  C   UNL     1       7.365   6.341  21.841  0.00  0.00    +0.174 C 
BRANCH  13  14
ATOM     14  O   UNL     1       7.016   4.956  21.844  0.00  0.00    -0.393 OA
ATOM     15  H   UNL     1       7.828   4.472  22.074  0.00  0.00    +0.209 HD
ENDBRANCH  13  14
ENDBRANCH  12  13
ENDBRANCH   9  12
ENDBRANCH   7   8
ENDBRANCH   6   7
ENDBRANCH   3   6
ENDBRANCH   1   2
BRANCH   1  16
ATOM     16  C   UNL     1       9.211  -0.148  23.348  0.00  0.00    +0.034 C 
ATOM     17  C   UNL     1       9.826   0.044  21.944  0.00  0.00    +0.017 C 
ATOM     18  C   UNL     1       7.684  -0.343  23.207  0.00  0.00    +0.017 C 
BRANCH  16  19
ATOM     19  C   UNL     1       9.812  -1.432  23.981  0.00  0.00    +0.241 C 
BRANCH  19  20
ATOM     20  O   UNL     1       9.012  -2.592  23.672  0.00  0.00    -0.464 OA
BRANCH  20  21
ATOM     21  C   UNL     1       9.111  -3.654  24.524  0.00  0.00    +0.313 C 
ATOM     22  O   UNL     1      10.103  -4.362  24.635  0.00  0.00    -0.250 OA
BRANCH  21  23
ATOM     23  C   UNL     1       7.808  -3.865  25.303  0.00  0.00    +0.059 C 
ATOM     24  C   UNL     1       7.677  -2.810  26.408  0.00  0.00    +0.022 C 
ATOM     25  C   UNL     1       7.834  -5.262  25.949  0.00  0.00    +0.022 C 
ATOM     26  C   UNL     1       6.615  -3.780  24.343  0.00  0.00    +0.022 C 
ENDBRANCH  21  23
ENDBRANCH  20  21
ENDBRANCH  19  20
ENDBRANCH  16  19
ENDBRANCH   1  16
BRANCH   1  27
ATOM     27  O   UNL     1      10.629   0.809  25.147  0.00  0.00    -0.382 OA
ATOM     28  H   UNL     1      10.663  -0.150  25.320  0.00  0.00    +0.210 HD
ENDBRANCH   1  27
TORSDOF 13
ENDMDL
