MODEL 1
REMARK VINA RESULT:      -6.1      0.000      0.000
REMARK  Name = 
REMARK  3 active torsions:
REMARK  status: ('A' for Active; 'I' for Inactive)
REMARK    1  A    between atoms: C_4  and  N_5
REMARK    2  A    between atoms: C_6  and  N_9
REMARK    3  A    between atoms: N_10  and  C_11
REMARK                            x       y       z     vdW  Elec       q    Type
REMARK                         _______ _______ _______ _____ _____    ______ ____
ROOT
ATOM      1  N   UNL     1      10.718   3.856  23.233  0.00  0.00    -0.343 N 
ATOM      2  H   UNL     1      11.544   4.053  22.680  0.00  0.00    +0.144 HD
ATOM      3  H   UNL     1      10.858   4.090  24.213  0.00  0.00    +0.144 HD
ATOM      4  C   UNL     1      10.377   2.507  23.184  0.00  0.00    +0.118 A 
ATOM      5  C   UNL     1      10.184   1.874  21.967  0.00  0.00    +0.045 A 
ATOM      6  C   UNL     1       9.824   0.529  21.961  0.00  0.00    +0.036 A 
ATOM      7  C   UNL     1       9.648  -0.156  23.166  0.00  0.00    +0.126 A 
ATOM      8  C   UNL     1       9.861   0.579  24.350  0.00  0.00    +0.146 A 
ATOM      9  N   UNL     1      10.216   1.885  24.364  0.00  0.00    -0.216 NA
ENDROOT
BRANCH   8  10
ATOM     10  N   UNL     1       9.787  -0.016  25.614  0.00  0.00    -0.341 N 
ATOM     11  H   UNL     1      10.501  -0.730  25.710  0.00  0.00    +0.144 HD
ATOM     12  H   UNL     1       8.841  -0.361  25.738  0.00  0.00    +0.144 HD
ENDBRANCH   8  10
BRANCH   7  13
ATOM     13  N   UNL     1       9.285  -1.521  23.096  0.00  0.00    -0.146 NA
ATOM     14  N   UNL     1       8.059  -1.690  23.263  0.00  0.00    -0.149 NA
BRANCH  14  15
ATOM     15  C   UNL     1       7.639  -3.013  23.017  0.00  0.00    +0.086 A 
ATOM     16  C   UNL     1       6.651  -3.191  22.037  0.00  0.00    +0.029 A 
ATOM     17  C   UNL     1       6.206  -4.467  21.685  0.00  0.00    +0.002 A 
ATOM     18  C   UNL     1       6.736  -5.587  22.319  0.00  0.00    +0.000 A 
ATOM     19  C   UNL     1       7.695  -5.430  23.320  0.00  0.00    +0.002 A 
ATOM     20  C   UNL     1       8.136  -4.150  23.671  0.00  0.00    +0.029 A 
ENDBRANCH  14  15
ENDBRANCH   7  13
TORSDOF 3
ENDMDL
MODEL 2
REMARK VINA RESULT:      -6.1      1.929      6.488
REMARK  Name = 
REMARK  3 active torsions:
REMARK  status: ('A' for Active; 'I' for Inactive)
REMARK    1  A    between atoms: C_4  and  N_5
REMARK    2  A    between atoms: C_6  and  N_9
REMARK    3  A    between atoms: N_10  and  C_11
REMARK                            x       y       z     vdW  Elec       q    Type
REMARK                         _______ _______ _______ _____ _____    ______ ____
ROOT
ATOM      1  N   UNL     1       6.084  -6.824  22.043  0.00  0.00    -0.343 N 
ATOM      2  H   UNL     1       5.075  -6.880  22.120  0.00  0.00    +0.144 HD
ATOM      3  H   UNL     1       6.546  -7.456  22.693  0.00  0.00    +0.144 HD
ATOM      4  C   UNL     1       6.551  -5.543  22.323  0.00  0.00    +0.118 A 
ATOM      5  C   UNL     1       6.052  -4.447  21.637  0.00  0.00    +0.045 A 
ATOM      6  C   UNL     1       6.560  -3.184  21.933  0.00  0.00    +0.036 A 
ATOM      7  C   UNL     1       7.563  -3.038  22.894  0.00  0.00    +0.126 A 
ATOM      8  C   UNL     1       8.008  -4.215  23.530  0.00  0.00    +0.146 A 
ATOM      9  N   UNL     1       7.516  -5.445  23.252  0.00  0.00    -0.216 NA
ENDROOT
BRANCH   8  10
ATOM     10  N   UNL     1       8.955  -4.188  24.560  0.00  0.00    -0.341 N 
ATOM     11  H   UNL     1       9.068  -3.241  24.909  0.00  0.00    +0.144 HD
ATOM     12  H   UNL     1       9.811  -4.599  24.202  0.00  0.00    +0.144 HD
ENDBRANCH   8  10
BRANCH   7  13
ATOM     13  N   UNL     1       8.036  -1.731  23.153  0.00  0.00    -0.146 NA
ATOM     14  N   UNL     1       9.277  -1.651  23.043  0.00  0.00    -0.149 NA
BRANCH  14  15
ATOM     15  C   UNL     1       9.760  -0.328  23.112  0.00  0.00    +0.086 A 
ATOM     16  C   UNL     1       9.580   0.472  21.975  0.00  0.00    +0.029 A 
ATOM     17  C   UNL     1       9.977   1.811  21.964  0.00  0.00    +0.002 A 
ATOM     18  C   UNL     1      10.574   2.367  23.092  0.00  0.00    +0.000 A 
ATOM     19  C   UNL     1      10.793   1.579  24.222  0.00  0.00    +0.002 A 
ATOM     20  C   UNL     1      10.396   0.239  24.227  0.00  0.00    +0.029 A 
ENDBRANCH  14  15
ENDBRANCH   7  13
TORSDOF 3
ENDMDL
MODEL 3
REMARK VINA RESULT:      -6.0      3.353      6.648
REMARK  Name = 
REMARK  3 active torsions:
REMARK  status: ('A' for Active; 'I' for Inactive)
REMARK    1  A    between atoms: C_4  and  N_5
REMARK    2  A    between atoms: C_6  and  N_9
REMARK    3  A    between atoms: N_10  and  C_11
REMARK                            x       y       z     vdW  Elec       q    Type
REMARK                         _______ _______ _______ _____ _____    ______ ____
ROOT
ATOM      1  N   UNL     1       6.023  -6.656  27.989  0.00  0.00    -0.343 N 
ATOM      2  H   UNL     1       5.763  -6.438  28.943  0.00  0.00    +0.144 HD
ATOM      3  H   UNL     1       6.632  -7.470  27.942  0.00  0.00    +0.144 HD
ATOM      4  C   UNL     1       6.708  -5.603  27.389  0.00  0.00    +0.118 A 
ATOM      5  C   UNL     1       6.154  -4.333  27.356  0.00  0.00    +0.045 A 
ATOM      6  C   UNL     1       6.862  -3.311  26.729  0.00  0.00    +0.036 A 
ATOM      7  C   UNL     1       8.098  -3.574  26.135  0.00  0.00    +0.126 A 
ATOM      8  C   UNL     1       8.571  -4.900  26.217  0.00  0.00    +0.146 A 
ATOM      9  N   UNL     1       7.892  -5.898  26.829  0.00  0.00    -0.216 NA
ENDROOT
BRANCH   8  10
ATOM     10  N   UNL     1       9.828  -5.270  25.724  0.00  0.00    -0.341 N 
ATOM     11  H   UNL     1      10.563  -4.859  26.290  0.00  0.00    +0.144 HD
ATOM     12  H   UNL     1       9.865  -5.004  24.745  0.00  0.00    +0.144 HD
ENDBRANCH   8  10
BRANCH   7  13
ATOM     13  N   UNL     1       8.771  -2.495  25.516  0.00  0.00    -0.146 NA
ATOM     14  N   UNL     1       8.798  -2.610  24.273  0.00  0.00    -0.149 NA
BRANCH  14  15
ATOM     15  C   UNL     1       9.296  -1.465  23.617  0.00  0.00    +0.086 A 
ATOM     16  C   UNL     1       9.039  -1.362  22.242  0.00  0.00    +0.029 A 
ATOM     17  C   UNL     1       9.445  -0.242  21.513  0.00  0.00    +0.002 A 
ATOM     18  C   UNL     1      10.127   0.790  22.151  0.00  0.00    +0.000 A 
ATOM     19  C   UNL     1      10.423   0.692  23.511  0.00  0.00    +0.002 A 
ATOM     20  C   UNL     1      10.016  -0.433  24.235  0.00  0.00    +0.029 A 
ENDBRANCH  14  15
ENDBRANCH   7  13
TORSDOF 3
ENDMDL
MODEL 4
REMARK VINA RESULT:      -5.9      2.076      2.415
REMARK  Name = 
REMARK  3 active torsions:
REMARK  status: ('A' for Active; 'I' for Inactive)
REMARK    1  A    between atoms: C_4  and  N_5
REMARK    2  A    between atoms: C_6  and  N_9
REMARK    3  A    between atoms: N_10  and  C_11
REMARK                            x       y       z     vdW  Elec       q    Type
REMARK                         _______ _______ _______ _____ _____    ______ ____
ROOT
ATOM      1  N   UNL     1      10.277   2.296  21.600  0.00  0.00    -0.343 N 
ATOM      2  H   UNL     1      10.952   2.130  20.863  0.00  0.00    +0.144 HD
ATOM      3  H   UNL     1      10.647   2.918  22.315  0.00  0.00    +0.144 HD
ATOM      4  C   UNL     1       9.915   1.114  22.240  0.00  0.00    +0.118 A 
ATOM      5  C   UNL     1       9.433   0.038  21.512  0.00  0.00    +0.045 A 
ATOM      6  C   UNL     1       9.063  -1.119  22.192  0.00  0.00    +0.036 A 
ATOM      7  C   UNL     1       9.166  -1.180  23.583  0.00  0.00    +0.126 A 
ATOM      8  C   UNL     1       9.662  -0.030  24.232  0.00  0.00    +0.146 A 
ATOM      9  N   UNL     1      10.028   1.097  23.578  0.00  0.00    -0.216 NA
ENDROOT
BRANCH   8  10
ATOM     10  N   UNL     1       9.879   0.004  25.614  0.00  0.00    -0.341 N 
ATOM     11  H   UNL     1       9.250  -0.638  26.086  0.00  0.00    +0.144 HD
ATOM     12  H   UNL     1       9.786   0.968  25.918  0.00  0.00    +0.144 HD
ENDBRANCH   8  10
BRANCH   7  13
ATOM     13  N   UNL     1       8.778  -2.383  24.217  0.00  0.00    -0.146 NA
ATOM     14  N   UNL     1       7.843  -2.207  25.025  0.00  0.00    -0.149 NA
BRANCH  14  15
ATOM     15  C   UNL     1       7.311  -3.409  25.534  0.00  0.00    +0.086 A 
ATOM     16  C   UNL     1       6.242  -3.979  24.827  0.00  0.00    +0.029 A 
ATOM     17  C   UNL     1       5.681  -5.195  25.222  0.00  0.00    +0.002 A 
ATOM     18  C   UNL     1       6.176  -5.856  26.342  0.00  0.00    +0.000 A 
ATOM     19  C   UNL     1       7.216  -5.291  27.079  0.00  0.00    +0.002 A 
ATOM     20  C   UNL     1       7.773  -4.071  26.682  0.00  0.00    +0.029 A 
ENDBRANCH  14  15
ENDBRANCH   7  13
TORSDOF 3
ENDMDL
MODEL 5
REMARK VINA RESULT:      -5.8      2.748      6.410
REMARK  Name = 
REMARK  3 active torsions:
REMARK  status: ('A' for Active; 'I' for Inactive)
REMARK    1  A    between atoms: C_4  and  N_5
REMARK    2  A    between atoms: C_6  and  N_9
REMARK    3  A    between atoms: N_10  and  C_11
REMARK                            x       y       z     vdW  Elec       q    Type
REMARK                         _______ _______ _______ _____ _____    ______ ____
ROOT
ATOM      1  N   UNL     1       7.443  -6.143  27.508  0.00  0.00    -0.343 N 
ATOM      2  H   UNL     1       6.997  -6.847  26.932  0.00  0.00    +0.144 HD
ATOM      3  H   UNL     1       6.792  -5.736  28.176  0.00  0.00    +0.144 HD
ATOM      4  C   UNL     1       7.945  -5.094  26.742  0.00  0.00    +0.118 A 
ATOM      5  C   UNL     1       8.817  -5.344  25.694  0.00  0.00    +0.045 A 
ATOM      6  C   UNL     1       9.312  -4.266  24.964  0.00  0.00    +0.036 A 
ATOM      7  C   UNL     1       8.941  -2.961  25.299  0.00  0.00    +0.126 A 
ATOM      8  C   UNL     1       8.055  -2.814  26.386  0.00  0.00    +0.146 A 
ATOM      9  N   UNL     1       7.565  -3.856  27.097  0.00  0.00    -0.216 NA
ENDROOT
BRANCH   8  10
ATOM     10  N   UNL     1       7.555  -1.564  26.769  0.00  0.00    -0.341 N 
ATOM     11  H   UNL     1       6.542  -1.590  26.821  0.00  0.00    +0.144 HD
ATOM     12  H   UNL     1       7.915  -0.874  26.117  0.00  0.00    +0.144 HD
ENDBRANCH   8  10
BRANCH   7  13
ATOM     13  N   UNL     1       9.474  -1.908  24.520  0.00  0.00    -0.146 NA
ATOM     14  N   UNL     1       8.584  -1.146  24.089  0.00  0.00    -0.149 NA
BRANCH  14  15
ATOM     15  C   UNL     1       9.092   0.012  23.467  0.00  0.00    +0.086 A 
ATOM     16  C   UNL     1       9.912   0.841  24.246  0.00  0.00    +0.029 A 
ATOM     17  C   UNL     1      10.506   1.984  23.706  0.00  0.00    +0.002 A 
ATOM     18  C   UNL     1      10.277   2.321  22.375  0.00  0.00    +0.000 A 
ATOM     19  C   UNL     1       9.438   1.528  21.591  0.00  0.00    +0.002 A 
ATOM     20  C   UNL     1       8.844   0.387  22.138  0.00  0.00    +0.029 A 
ENDBRANCH  14  15
ENDBRANCH   7  13
TORSDOF 3
ENDMDL
MODEL 6
REMARK VINA RESULT:      -5.8      2.127      6.927
REMARK  Name = 
REMARK  3 active torsions:
REMARK  status: ('A' for Active; 'I' for Inactive)
REMARK    1  A    between atoms: C_4  and  N_5
REMARK    2  A    between atoms: C_6  and  N_9
REMARK    3  A    between atoms: N_10  and  C_11
REMARK                            x       y       z     vdW  Elec       q    Type
REMARK                         _______ _______ _______ _____ _____    ______ ____
ROOT
ATOM      1  N   UNL     1       8.363  -3.886  23.746  0.00  0.00    -0.343 N 
ATOM      2  H   UNL     1       7.523  -4.035  23.200  0.00  0.00    +0.144 HD
ATOM      3  H   UNL     1       8.197  -4.031  24.739  0.00  0.00    +0.144 HD
ATOM      4  C   UNL     1       8.846  -2.588  23.602  0.00  0.00    +0.118 A 
ATOM      5  C   UNL     1       9.108  -2.071  22.343  0.00  0.00    +0.045 A 
ATOM      6  C   UNL     1       9.609  -0.776  22.242  0.00  0.00    +0.036 A 
ATOM      7  C   UNL     1       9.854  -0.026  23.394  0.00  0.00    +0.126 A 
ATOM      8  C   UNL     1       9.561  -0.645  24.627  0.00  0.00    +0.146 A 
ATOM      9  N   UNL     1       9.069  -1.901  24.734  0.00  0.00    -0.216 NA
ENDROOT
BRANCH   8  10
ATOM     10  N   UNL     1       9.695   0.032  25.845  0.00  0.00    -0.341 N 
ATOM     11  H   UNL     1       9.067   0.828  25.877  0.00  0.00    +0.144 HD
ATOM     12  H   UNL     1      10.674   0.275  25.956  0.00  0.00    +0.144 HD
ENDBRANCH   8  10
BRANCH   7  13
ATOM     13  N   UNL     1      10.360   1.284  23.229  0.00  0.00    -0.146 NA
ATOM     14  N   UNL     1       9.561   2.152  23.639  0.00  0.00    -0.149 NA
BRANCH  14  15
ATOM     15  C   UNL     1      10.109   3.451  23.659  0.00  0.00    +0.086 A 
ATOM     16  C   UNL     1      11.475   3.567  23.362  0.00  0.00    +0.029 A 
ATOM     17  C   UNL     1      12.098   4.816  23.306  0.00  0.00    +0.002 A 
ATOM     18  C   UNL     1      11.362   5.970  23.557  0.00  0.00    +0.000 A 
ATOM     19  C   UNL     1      10.010   5.874  23.887  0.00  0.00    +0.002 A 
ATOM     20  C   UNL     1       9.391   4.622  23.945  0.00  0.00    +0.029 A 
ENDBRANCH  14  15
ENDBRANCH   7  13
TORSDOF 3
ENDMDL
MODEL 7
REMARK VINA RESULT:      -5.7      2.422      6.618
REMARK  Name = 
REMARK  3 active torsions:
REMARK  status: ('A' for Active; 'I' for Inactive)
REMARK    1  A    between atoms: C_4  and  N_5
REMARK    2  A    between atoms: C_6  and  N_9
REMARK    3  A    between atoms: N_10  and  C_11
REMARK                            x       y       z     vdW  Elec       q    Type
REMARK                         _______ _______ _______ _____ _____    ______ ____
ROOT
ATOM      1  N   UNL     1       6.014  -6.339  26.518  0.00  0.00    -0.343 N 
ATOM      2  H   UNL     1       6.547  -6.965  27.110  0.00  0.00    +0.144 HD
ATOM      3  H   UNL     1       5.622  -6.824  25.714  0.00  0.00    +0.144 HD
ATOM      4  C   UNL     1       6.803  -5.306  26.021  0.00  0.00    +0.118 A 
ATOM      5  C   UNL     1       7.528  -4.498  26.883  0.00  0.00    +0.045 A 
ATOM      6  C   UNL     1       8.290  -3.462  26.347  0.00  0.00    +0.036 A 
ATOM      7  C   UNL     1       8.305  -3.241  24.968  0.00  0.00    +0.126 A 
ATOM      8  C   UNL     1       7.529  -4.114  24.178  0.00  0.00    +0.146 A 
ATOM      9  N   UNL     1       6.790  -5.126  24.690  0.00  0.00    -0.216 NA
ENDROOT
BRANCH   8  10
ATOM     10  N   UNL     1       7.522  -4.039  22.781  0.00  0.00    -0.341 N 
ATOM     11  H   UNL     1       7.135  -3.151  22.478  0.00  0.00    +0.144 HD
ATOM     12  H   UNL     1       7.017  -4.848  22.431  0.00  0.00    +0.144 HD
ENDBRANCH   8  10
BRANCH   7  13
ATOM     13  N   UNL     1       9.099  -2.176  24.484  0.00  0.00    -0.146 NA
ATOM     14  N   UNL     1       8.418  -1.317  23.886  0.00  0.00    -0.149 NA
BRANCH  14  15
ATOM     15  C   UNL     1       9.148  -0.158  23.554  0.00  0.00    +0.086 A 
ATOM     16  C   UNL     1       9.064   0.285  22.225  0.00  0.00    +0.029 A 
ATOM     17  C   UNL     1       9.708   1.452  21.811  0.00  0.00    +0.002 A 
ATOM     18  C   UNL     1      10.459   2.191  22.721  0.00  0.00    +0.000 A 
ATOM     19  C   UNL     1      10.583   1.750  24.038  0.00  0.00    +0.002 A 
ATOM     20  C   UNL     1       9.939   0.580  24.448  0.00  0.00    +0.029 A 
ENDBRANCH  14  15
ENDBRANCH   7  13
TORSDOF 3
ENDMDL
MODEL 8
REMARK VINA RESULT:      -5.6      2.394      6.697
REMARK  Name = 
REMARK  3 active torsions:
REMARK  status: ('A' for Active; 'I' for Inactive)
REMARK    1  A    between atoms: C_4  and  N_5
REMARK    2  A    between atoms: C_6  and  N_9
REMARK    3  A    between atoms: N_10  and  C_11
REMARK                            x       y       z     vdW  Elec       q    Type
REMARK                         _______ _______ _______ _____ _____    ______ ____
ROOT
ATOM      1  N   UNL     1       6.067  -6.384  26.458  0.00  0.00    -0.343 N 
ATOM      2  H   UNL     1       6.617  -6.987  27.059  0.00  0.00    +0.144 HD
ATOM      3  H   UNL     1       5.690  -6.891  25.661  0.00  0.00    +0.144 HD
ATOM      4  C   UNL     1       6.828  -5.337  25.946  0.00  0.00    +0.118 A 
ATOM      5  C   UNL     1       7.530  -4.497  26.797  0.00  0.00    +0.045 A 
ATOM      6  C   UNL     1       8.263  -3.448  26.247  0.00  0.00    +0.036 A 
ATOM      7  C   UNL     1       8.274  -3.247  24.865  0.00  0.00    +0.126 A 
ATOM      8  C   UNL     1       7.523  -4.153  24.087  0.00  0.00    +0.146 A 
ATOM      9  N   UNL     1       6.811  -5.177  24.613  0.00  0.00    -0.216 NA
ENDROOT
BRANCH   8  10
ATOM     10  N   UNL     1       7.515  -4.098  22.689  0.00  0.00    -0.341 N 
ATOM     11  H   UNL     1       8.461  -4.161  22.328  0.00  0.00    +0.144 HD
ATOM     12  H   UNL     1       7.027  -3.250  22.416  0.00  0.00    +0.144 HD
ENDBRANCH   8  10
BRANCH   7  13
ATOM     13  N   UNL     1       9.039  -2.168  24.366  0.00  0.00    -0.146 NA
ATOM     14  N   UNL     1       8.337  -1.339  23.751  0.00  0.00    -0.149 NA
BRANCH  14  15
ATOM     15  C   UNL     1       9.034  -0.165  23.402  0.00  0.00    +0.086 A 
ATOM     16  C   UNL     1       9.770   0.460  24.419  0.00  0.00    +0.029 A 
ATOM     17  C   UNL     1      10.536   1.599  24.161  0.00  0.00    +0.002 A 
ATOM     18  C   UNL     1      10.568   2.137  22.877  0.00  0.00    +0.000 A 
ATOM     19  C   UNL     1       9.817   1.550  21.859  0.00  0.00    +0.002 A 
ATOM     20  C   UNL     1       9.050   0.412  22.123  0.00  0.00    +0.029 A 
ENDBRANCH  14  15
ENDBRANCH   7  13
TORSDOF 3
ENDMDL
MODEL 9
REMARK VINA RESULT:      -5.5      2.393      6.637
REMARK  Name = 
REMARK  3 active torsions:
REMARK  status: ('A' for Active; 'I' for Inactive)
REMARK    1  A    between atoms: C_4  and  N_5
REMARK    2  A    between atoms: C_6  and  N_9
REMARK    3  A    between atoms: N_10  and  C_11
REMARK                            x       y       z     vdW  Elec       q    Type
REMARK                         _______ _______ _______ _____ _____    ______ ____
ROOT
ATOM      1  N   UNL     1       4.407  -6.951  23.400  0.00  0.00    -0.343 N 
ATOM      2  H   UNL     1       3.801  -6.948  22.589  0.00  0.00    +0.144 HD
ATOM      3  H   UNL     1       3.886  -6.789  24.259  0.00  0.00    +0.144 HD
ATOM      4  C   UNL     1       5.375  -5.953  23.322  0.00  0.00    +0.118 A 
ATOM      5  C   UNL     1       6.209  -5.869  22.218  0.00  0.00    +0.045 A 
ATOM      6  C   UNL     1       7.178  -4.869  22.187  0.00  0.00    +0.036 A 
ATOM      7  C   UNL     1       7.308  -3.982  23.258  0.00  0.00    +0.126 A 
ATOM      8  C   UNL     1       6.415  -4.156  24.336  0.00  0.00    +0.146 A 
ATOM      9  N   UNL     1       5.468  -5.122  24.372  0.00  0.00    -0.216 NA
ENDROOT
BRANCH   8  10
ATOM     10  N   UNL     1       6.400  -3.286  25.432  0.00  0.00    -0.341 N 
ATOM     11  H   UNL     1       6.224  -3.801  26.288  0.00  0.00    +0.144 HD
ATOM     12  H   UNL     1       5.715  -2.561  25.240  0.00  0.00    +0.144 HD
ENDBRANCH   8  10
BRANCH   7  13
ATOM     13  N   UNL     1       8.308  -2.987  23.167  0.00  0.00    -0.146 NA
ATOM     14  N   UNL     1       7.825  -1.854  22.959  0.00  0.00    -0.149 NA
BRANCH  14  15
ATOM     15  C   UNL     1       8.775  -0.816  23.047  0.00  0.00    +0.086 A 
ATOM     16  C   UNL     1       8.885   0.038  21.940  0.00  0.00    +0.029 A 
ATOM     17  C   UNL     1       9.760   1.127  21.952  0.00  0.00    +0.002 A 
ATOM     18  C   UNL     1      10.549   1.370  23.072  0.00  0.00    +0.000 A 
ATOM     19  C   UNL     1      10.480   0.513  24.171  0.00  0.00    +0.002 A 
ATOM     20  C   UNL     1       9.605  -0.577  24.153  0.00  0.00    +0.029 A 
ENDBRANCH  14  15
ENDBRANCH   7  13
TORSDOF 3
ENDMDL
