MODEL 1
REMARK VINA RESULT:      -4.8      0.000      0.000
REMARK  Name = 
REMARK  4 active torsions:
REMARK  status: ('A' for Active; 'I' for Inactive)
REMARK    1  A    between atoms: O_1  and  C_2
REMARK    2  A    between atoms: C_2  and  C_4
REMARK    3  A    between atoms: C_2  and  C_7
REMARK    4  A    between atoms: C_4  and  O_5
REMARK                            x       y       z     vdW  Elec       q    Type
REMARK                         _______ _______ _______ _____ _____    ______ ____
ROOT
ATOM      1  C   UNL     1       8.651  -4.100  24.563  0.00  0.00    +0.253 C 
ENDROOT
BRANCH   1   2
ATOM      2  C   UNL     1       7.767  -4.444  23.381  0.00  0.00    -0.008 A 
ATOM      3  C   UNL     1       7.689  -5.732  22.822  0.00  0.00    +0.007 A 
ATOM      4  C   UNL     1       6.853  -5.987  21.729  0.00  0.00    +0.000 A 
ATOM      5  C   UNL     1       6.071  -4.970  21.189  0.00  0.00    +0.000 A 
ATOM      6  C   UNL     1       6.119  -3.695  21.741  0.00  0.00    +0.000 A 
ATOM      7  C   UNL     1       6.958  -3.435  22.829  0.00  0.00    +0.007 A 
ENDBRANCH   1   2
BRANCH   1   8
ATOM      8  O   UNL     1       9.925  -3.540  24.188  0.00  0.00    -0.376 OA
ATOM      9  H   UNL     1      10.545  -4.282  24.075  0.00  0.00    +0.211 HD
ENDBRANCH   1   8
BRANCH   1  10
ATOM     10  C   UNL     1       8.927  -5.280  25.509  0.00  0.00    +0.338 C 
ATOM     11  O   UNL     1       8.157  -5.754  26.329  0.00  0.00    -0.248 OA
BRANCH  10  12
ATOM     12  O   UNL     1      10.206  -5.734  25.359  0.00  0.00    -0.479 OA
ATOM     13  H   UNL     1      10.411  -5.782  24.395  0.00  0.00    +0.295 HD
ENDBRANCH  10  12
ENDBRANCH   1  10
TORSDOF 4
ENDMDL
MODEL 2
REMARK VINA RESULT:      -4.8      0.076      1.453
REMARK  Name = 
REMARK  4 active torsions:
REMARK  status: ('A' for Active; 'I' for Inactive)
REMARK    1  A    between atoms: O_1  and  C_2
REMARK    2  A    between atoms: C_2  and  C_4
REMARK    3  A    between atoms: C_2  and  C_7
REMARK    4  A    between atoms: C_4  and  O_5
REMARK                            x       y       z     vdW  Elec       q    Type
REMARK                         _______ _______ _______ _____ _____    ______ ____
ROOT
ATOM      1  C   UNL     1       8.655  -4.073  24.576  0.00  0.00    +0.253 C 
ENDROOT
BRANCH   1   2
ATOM      2  C   UNL     1       7.746  -4.388  23.405  0.00  0.00    -0.008 A 
ATOM      3  C   UNL     1       6.947  -3.424  22.764  0.00  0.00    +0.007 A 
ATOM      4  C   UNL     1       6.127  -3.778  21.687  0.00  0.00    +0.000 A 
ATOM      5  C   UNL     1       6.103  -5.090  21.221  0.00  0.00    +0.000 A 
ATOM      6  C   UNL     1       6.902  -6.053  21.828  0.00  0.00    +0.000 A 
ATOM      7  C   UNL     1       7.717  -5.704  22.909  0.00  0.00    +0.007 A 
ENDBRANCH   1   2
BRANCH   1   8
ATOM      8  O   UNL     1       9.931  -3.527  24.186  0.00  0.00    -0.376 OA
ATOM      9  H   UNL     1      10.328  -3.125  24.978  0.00  0.00    +0.211 HD
ENDBRANCH   1   8
BRANCH   1  10
ATOM     10  C   UNL     1       8.930  -5.269  25.500  0.00  0.00    +0.338 C 
ATOM     11  O   UNL     1       8.155  -5.766  26.302  0.00  0.00    -0.248 OA
BRANCH  10  12
ATOM     12  O   UNL     1      10.214  -5.711  25.356  0.00  0.00    -0.479 OA
ATOM     13  H   UNL     1      10.246  -6.338  24.595  0.00  0.00    +0.295 HD
ENDBRANCH  10  12
ENDBRANCH   1  10
TORSDOF 4
ENDMDL
MODEL 3
REMARK VINA RESULT:      -4.8      4.583      5.793
REMARK  Name = 
REMARK  4 active torsions:
REMARK  status: ('A' for Active; 'I' for Inactive)
REMARK    1  A    between atoms: O_1  and  C_2
REMARK    2  A    between atoms: C_2  and  C_4
REMARK    3  A    between atoms: C_2  and  C_7
REMARK    4  A    between atoms: C_4  and  O_5
REMARK                            x       y       z     vdW  Elec       q    Type
REMARK                         _______ _______ _______ _____ _____    ______ ____
ROOT
ATOM      1  C   UNL     1      10.197  -1.627  22.651  0.00  0.00    +0.253 C 
ENDROOT
BRANCH   1   2
ATOM      2  C   UNL     1      10.227  -0.136  22.918  0.00  0.00    -0.008 A 
ATOM      3  C   UNL     1      10.655   0.424  24.135  0.00  0.00    +0.007 A 
ATOM      4  C   UNL     1      10.659   1.811  24.321  0.00  0.00    +0.000 A 
ATOM      5  C   UNL     1      10.255   2.660  23.294  0.00  0.00    +0.000 A 
ATOM      6  C   UNL     1       9.848   2.126  22.076  0.00  0.00    +0.000 A 
ATOM      7  C   UNL     1       9.837   0.741  21.890  0.00  0.00    +0.007 A 
ENDBRANCH   1   2
BRANCH   1   8
ATOM      8  O   UNL     1       9.732  -1.969  21.331  0.00  0.00    -0.376 OA
ATOM      9  H   UNL     1      10.417  -2.521  20.916  0.00  0.00    +0.211 HD
ENDBRANCH   1   8
BRANCH   1  10
ATOM     10  C   UNL     1       9.359  -2.431  23.657  0.00  0.00    +0.338 C 
ATOM     11  O   UNL     1       8.214  -2.196  24.007  0.00  0.00    -0.248 OA
BRANCH  10  12
ATOM     12  O   UNL     1      10.085  -3.463  24.180  0.00  0.00    -0.479 OA
ATOM     13  H   UNL     1      10.870  -3.090  24.646  0.00  0.00    +0.295 HD
ENDBRANCH  10  12
ENDBRANCH   1  10
TORSDOF 4
ENDMDL
MODEL 4
REMARK VINA RESULT:      -4.7      1.657      2.780
REMARK  Name = 
REMARK  4 active torsions:
REMARK  status: ('A' for Active; 'I' for Inactive)
REMARK    1  A    between atoms: O_1  and  C_2
REMARK    2  A    between atoms: C_2  and  C_4
REMARK    3  A    between atoms: C_2  and  C_7
REMARK    4  A    between atoms: C_4  and  O_5
REMARK                            x       y       z     vdW  Elec       q    Type
REMARK                         _______ _______ _______ _____ _____    ______ ____
ROOT
ATOM      1  C   UNL     1       9.369  -4.708  25.697  0.00  0.00    +0.253 C 
ENDROOT
BRANCH   1   2
ATOM      2  C   UNL     1       9.031  -3.850  24.494  0.00  0.00    -0.008 A 
ATOM      3  C   UNL     1       9.783  -2.724  24.112  0.00  0.00    +0.007 A 
ATOM      4  C   UNL     1       9.420  -1.971  22.990  0.00  0.00    +0.000 A 
ATOM      5  C   UNL     1       8.317  -2.336  22.224  0.00  0.00    +0.000 A 
ATOM      6  C   UNL     1       7.574  -3.458  22.574  0.00  0.00    +0.000 A 
ATOM      7  C   UNL     1       7.929  -4.208  23.698  0.00  0.00    +0.007 A 
ENDBRANCH   1   2
BRANCH   1   8
ATOM      8  O   UNL     1       9.787  -6.044  25.354  0.00  0.00    -0.376 OA
ATOM      9  H   UNL     1      10.760  -6.062  25.396  0.00  0.00    +0.211 HD
ENDBRANCH   1   8
BRANCH   1  10
ATOM     10  C   UNL     1       8.231  -4.832  26.723  0.00  0.00    +0.338 C 
ATOM     11  O   UNL     1       7.556  -3.922  27.178  0.00  0.00    -0.248 OA
BRANCH  10  12
ATOM     12  O   UNL     1       8.078  -6.127  27.126  0.00  0.00    -0.479 OA
ATOM     13  H   UNL     1       8.559  -6.249  27.978  0.00  0.00    +0.295 HD
ENDBRANCH  10  12
ENDBRANCH   1  10
TORSDOF 4
ENDMDL
MODEL 5
REMARK VINA RESULT:      -4.6      4.551      5.783
REMARK  Name = 
REMARK  4 active torsions:
REMARK  status: ('A' for Active; 'I' for Inactive)
REMARK    1  A    between atoms: O_1  and  C_2
REMARK    2  A    between atoms: C_2  and  C_4
REMARK    3  A    between atoms: C_2  and  C_7
REMARK    4  A    between atoms: C_4  and  O_5
REMARK                            x       y       z     vdW  Elec       q    Type
REMARK                         _______ _______ _______ _____ _____    ______ ____
ROOT
ATOM      1  C   UNL     1      10.289  -1.377  22.813  0.00  0.00    +0.253 C 
ENDROOT
BRANCH   1   2
ATOM      2  C   UNL     1       9.955   0.095  22.957  0.00  0.00    -0.008 A 
ATOM      3  C   UNL     1       9.438   0.877  21.910  0.00  0.00    +0.007 A 
ATOM      4  C   UNL     1       9.150   2.232  22.106  0.00  0.00    +0.000 A 
ATOM      5  C   UNL     1       9.356   2.823  23.349  0.00  0.00    +0.000 A 
ATOM      6  C   UNL     1       9.847   2.061  24.403  0.00  0.00    +0.000 A 
ATOM      7  C   UNL     1      10.142   0.708  24.209  0.00  0.00    +0.007 A 
ENDBRANCH   1   2
BRANCH   1   8
ATOM      8  O   UNL     1      10.261  -1.845  21.450  0.00  0.00    -0.376 OA
ATOM      9  H   UNL     1       9.987  -1.096  20.893  0.00  0.00    +0.211 HD
ENDBRANCH   1   8
BRANCH   1  10
ATOM     10  C   UNL     1       9.391  -2.311  23.639  0.00  0.00    +0.338 C 
ATOM     11  O   UNL     1       8.205  -2.156  23.884  0.00  0.00    -0.248 OA
BRANCH  10  12
ATOM     12  O   UNL     1      10.107  -3.363  24.134  0.00  0.00    -0.479 OA
ATOM     13  H   UNL     1       9.594  -3.773  24.870  0.00  0.00    +0.295 HD
ENDBRANCH  10  12
ENDBRANCH   1  10
TORSDOF 4
ENDMDL
MODEL 6
REMARK VINA RESULT:      -4.5      7.906      9.178
REMARK  Name = 
REMARK  4 active torsions:
REMARK  status: ('A' for Active; 'I' for Inactive)
REMARK    1  A    between atoms: O_1  and  C_2
REMARK    2  A    between atoms: C_2  and  C_4
REMARK    3  A    between atoms: C_2  and  C_7
REMARK    4  A    between atoms: C_4  and  O_5
REMARK                            x       y       z     vdW  Elec       q    Type
REMARK                         _______ _______ _______ _____ _____    ______ ____
ROOT
ATOM      1  C   UNL     1      10.497   2.214  22.924  0.00  0.00    +0.253 C 
ENDROOT
BRANCH   1   2
ATOM      2  C   UNL     1      10.698   3.638  23.401  0.00  0.00    -0.008 A 
ATOM      3  C   UNL     1      11.925   4.319  23.312  0.00  0.00    +0.007 A 
ATOM      4  C   UNL     1      12.047   5.635  23.770  0.00  0.00    +0.000 A 
ATOM      5  C   UNL     1      10.947   6.298  24.307  0.00  0.00    +0.000 A 
ATOM      6  C   UNL     1       9.720   5.649  24.385  0.00  0.00    +0.000 A 
ATOM      7  C   UNL     1       9.596   4.332  23.934  0.00  0.00    +0.007 A 
ENDBRANCH   1   2
BRANCH   1   8
ATOM      8  O   UNL     1       9.930   2.122  21.603  0.00  0.00    -0.376 OA
ATOM      9  H   UNL     1      10.614   1.749  21.019  0.00  0.00    +0.211 HD
ENDBRANCH   1   8
BRANCH   1  10
ATOM     10  C   UNL     1       9.632   1.352  23.857  0.00  0.00    +0.338 C 
ATOM     11  O   UNL     1       8.490   0.974  23.653  0.00  0.00    -0.248 OA
BRANCH  10  12
ATOM     12  O   UNL     1      10.295   1.079  25.020  0.00  0.00    -0.479 OA
ATOM     13  H   UNL     1      10.903   0.318  24.862  0.00  0.00    +0.295 HD
ENDBRANCH  10  12
ENDBRANCH   1  10
TORSDOF 4
ENDMDL
MODEL 7
REMARK VINA RESULT:      -4.4      4.647      5.889
REMARK  Name = 
REMARK  4 active torsions:
REMARK  status: ('A' for Active; 'I' for Inactive)
REMARK    1  A    between atoms: O_1  and  C_2
REMARK    2  A    between atoms: C_2  and  C_4
REMARK    3  A    between atoms: C_2  and  C_7
REMARK    4  A    between atoms: C_4  and  O_5
REMARK                            x       y       z     vdW  Elec       q    Type
REMARK                         _______ _______ _______ _____ _____    ______ ____
ROOT
ATOM      1  C   UNL     1      10.575   0.493  23.248  0.00  0.00    +0.253 C 
ENDROOT
BRANCH   1   2
ATOM      2  C   UNL     1       9.929  -0.687  23.947  0.00  0.00    -0.008 A 
ATOM      3  C   UNL     1      10.087  -2.019  23.523  0.00  0.00    +0.007 A 
ATOM      4  C   UNL     1       9.464  -3.066  24.211  0.00  0.00    +0.000 A 
ATOM      5  C   UNL     1       8.691  -2.806  25.339  0.00  0.00    +0.000 A 
ATOM      6  C   UNL     1       8.541  -1.498  25.786  0.00  0.00    +0.000 A 
ATOM      7  C   UNL     1       9.156  -0.449  25.097  0.00  0.00    +0.007 A 
ENDBRANCH   1   2
BRANCH   1   8
ATOM      8  O   UNL     1      10.713   1.656  24.087  0.00  0.00    -0.376 OA
ATOM      9  H   UNL     1      10.488   1.387  24.995  0.00  0.00    +0.211 HD
ENDBRANCH   1   8
BRANCH   1  10
ATOM     10  C   UNL     1       9.858   0.934  21.963  0.00  0.00    +0.338 C 
ATOM     11  O   UNL     1       9.136   0.248  21.256  0.00  0.00    -0.248 OA
BRANCH  10  12
ATOM     12  O   UNL     1      10.167   2.228  21.653  0.00  0.00    -0.479 OA
ATOM     13  H   UNL     1      10.047   2.355  20.683  0.00  0.00    +0.295 HD
ENDBRANCH  10  12
ENDBRANCH   1  10
TORSDOF 4
ENDMDL
MODEL 8
REMARK VINA RESULT:      -4.3      5.598      7.042
REMARK  Name = 
REMARK  4 active torsions:
REMARK  status: ('A' for Active; 'I' for Inactive)
REMARK    1  A    between atoms: O_1  and  C_2
REMARK    2  A    between atoms: C_2  and  C_4
REMARK    3  A    between atoms: C_2  and  C_7
REMARK    4  A    between atoms: C_4  and  O_5
REMARK                            x       y       z     vdW  Elec       q    Type
REMARK                         _______ _______ _______ _____ _____    ______ ____
ROOT
ATOM      1  C   UNL     1       9.475   2.162  22.094  0.00  0.00    +0.253 C 
ENDROOT
BRANCH   1   2
ATOM      2  C   UNL     1       9.655   0.766  22.657  0.00  0.00    -0.008 A 
ATOM      3  C   UNL     1       9.770   0.496  24.032  0.00  0.00    +0.007 A 
ATOM      4  C   UNL     1       9.935  -0.816  24.491  0.00  0.00    +0.000 A 
ATOM      5  C   UNL     1       9.972  -1.877  23.590  0.00  0.00    +0.000 A 
ATOM      6  C   UNL     1       9.839  -1.631  22.228  0.00  0.00    +0.000 A 
ATOM      7  C   UNL     1       9.681  -0.322  21.767  0.00  0.00    +0.007 A 
ENDBRANCH   1   2
BRANCH   1   8
ATOM      8  O   UNL     1      10.271   3.161  22.760  0.00  0.00    -0.376 OA
ATOM      9  H   UNL     1      10.245   3.965  22.212  0.00  0.00    +0.211 HD
ENDBRANCH   1   8
BRANCH   1  10
ATOM     10  C   UNL     1       8.020   2.658  22.093  0.00  0.00    +0.338 C 
ATOM     11  O   UNL     1       7.014   1.971  22.021  0.00  0.00    -0.248 OA
BRANCH  10  12
ATOM     12  O   UNL     1       7.972   4.022  22.137  0.00  0.00    -0.479 OA
ATOM     13  H   UNL     1       7.036   4.297  22.288  0.00  0.00    +0.295 HD
ENDBRANCH  10  12
ENDBRANCH   1  10
TORSDOF 4
ENDMDL
MODEL 9
REMARK VINA RESULT:      -4.2      4.001      5.252
REMARK  Name = 
REMARK  4 active torsions:
REMARK  status: ('A' for Active; 'I' for Inactive)
REMARK    1  A    between atoms: O_1  and  C_2
REMARK    2  A    between atoms: C_2  and  C_4
REMARK    3  A    between atoms: C_2  and  C_7
REMARK    4  A    between atoms: C_4  and  O_5
REMARK                            x       y       z     vdW  Elec       q    Type
REMARK                         _______ _______ _______ _____ _____    ______ ____
ROOT
ATOM      1  C   UNL     1       8.593  -1.545  24.526  0.00  0.00    +0.253 C 
ENDROOT
BRANCH   1   2
ATOM      2  C   UNL     1       9.148  -0.352  23.774  0.00  0.00    -0.008 A 
ATOM      3  C   UNL     1       9.878   0.680  24.391  0.00  0.00    +0.007 A 
ATOM      4  C   UNL     1      10.365   1.756  23.642  0.00  0.00    +0.000 A 
ATOM      5  C   UNL     1      10.148   1.812  22.267  0.00  0.00    +0.000 A 
ATOM      6  C   UNL     1       9.447   0.791  21.636  0.00  0.00    +0.000 A 
ATOM      7  C   UNL     1       8.954  -0.282  22.383  0.00  0.00    +0.007 A 
ENDBRANCH   1   2
BRANCH   1   8
ATOM      8  O   UNL     1       8.854  -1.508  25.943  0.00  0.00    -0.376 OA
ATOM      9  H   UNL     1       9.821  -1.489  26.059  0.00  0.00    +0.211 HD
ENDBRANCH   1   8
BRANCH   1  10
ATOM     10  C   UNL     1       9.083  -2.904  24.003  0.00  0.00    +0.338 C 
ATOM     11  O   UNL     1      10.230  -3.322  24.016  0.00  0.00    -0.248 OA
BRANCH  10  12
ATOM     12  O   UNL     1       8.054  -3.614  23.453  0.00  0.00    -0.479 OA
ATOM     13  H   UNL     1       8.094  -3.513  22.472  0.00  0.00    +0.295 HD
ENDBRANCH  10  12
ENDBRANCH   1  10
TORSDOF 4
ENDMDL
