MODEL 1
REMARK VINA RESULT:      -6.7      0.000      0.000
REMARK  Name = 
REMARK  12 active torsions:
REMARK  status: ('A' for Active; 'I' for Inactive)
REMARK    1  A    between atoms: C_1  and  C_2
REMARK    2  A    between atoms: C_2  and  C_3
REMARK    3  A    between atoms: CA_7  and  N_9
REMARK    4  A    between atoms: C_10  and  C_12
REMARK    5  A    between atoms: C_12  and  C_13
REMARK    6  A    between atoms: C_13  and  C_14
REMARK    7  A    between atoms: C_14  and  CA_15
REMARK    8  A    between atoms: CA_15  and  N_17
REMARK    9  A    between atoms: CA_15  and  C_18
REMARK   10  A    between atoms: C_18  and  O_19
REMARK   11  A    between atoms: CA_24  and  C_26
REMARK   12  A    between atoms: C_26  and  O_27
REMARK                            x       y       z     vdW  Elec       q    Type
REMARK                         _______ _______ _______ _____ _____    ______ ____
ROOT
ATOM      1  N   UNL     1       8.080  -2.244  22.639  0.00  0.00    -0.302 N 
ATOM      2  H   UNL     1       7.489  -1.710  22.012  0.00  0.00    +0.150 HD
ATOM      3  C   UNL     1       9.422  -1.931  22.656  0.00  0.00    +0.214 C 
ATOM      4  O   UNL     1      10.217  -2.461  23.423  0.00  0.00    -0.276 OA
ENDROOT
BRANCH   1  10
ATOM      5  C   UNL     1       4.000  -5.461  26.373  0.00  0.00    +0.025 C 
ATOM      6  C   UNL     1       5.219  -5.004  25.565  0.00  0.00    +0.042 C 
ATOM      7  CA  UNL     1       5.455  -5.743  24.222  0.00  0.00    +0.201 C 
ATOM      8  N   UNL     1       6.149  -4.802  23.323  0.00  0.00    -0.271 N 
ATOM      9  C   UNL     1       5.898  -3.360  23.525  0.00  0.00    +0.165 C 
ATOM     10  CA  UNL     1       7.431  -3.141  23.632  0.00  0.00    +0.190 C 
ATOM     11  C   UNL     1       7.513  -4.675  23.410  0.00  0.00    +0.240 C 
ATOM     12  O   UNL     1       8.366  -5.522  23.529  0.00  0.00    -0.273 OA
ATOM     13  S   UNL     1       5.007  -3.217  25.120  0.00  0.00    -0.127 S 
ATOM     14  C   UNL     1       6.450  -5.109  26.488  0.00  0.00    +0.025 C 
BRANCH   7  15
ATOM     15  C   UNL     1       4.184  -6.266  23.532  0.00  0.00    +0.327 C 
ATOM     16  OXT UNL     1       3.430  -5.575  22.860  0.00  0.00    -0.249 OA
BRANCH  15  17
ATOM     17  O   UNL     1       3.925  -7.575  23.769  0.00  0.00    -0.479 OA
ATOM     18  H   UNL     1       3.530  -7.999  22.978  0.00  0.00    +0.295 HD
ENDBRANCH  15  17
ENDBRANCH   7  15
ENDBRANCH   1  10
BRANCH   3  19
ATOM     19  C   UNL     1       9.801  -0.897  21.609  0.00  0.00    +0.096 C 
BRANCH  19  20
ATOM     20  C   UNL     1       9.054   0.418  21.817  0.00  0.00    +0.011 C 
BRANCH  20  21
ATOM     21  C   UNL     1      10.001   1.621  21.869  0.00  0.00    +0.030 C 
BRANCH  21  22
ATOM     22  CA  UNL     1       9.916   2.396  23.194  0.00  0.00    +0.161 C 
BRANCH  22  23
ATOM     23  N   UNL     1      10.894   3.520  23.231  0.00  0.00    -0.318 NA
ATOM     24  H1  UNL     1      10.441   4.324  23.677  0.00  0.00    +0.119 HD
ATOM     25  H2  UNL     1      11.632   3.267  23.899  0.00  0.00    +0.119 HD
ENDBRANCH  22  23
BRANCH  22  26
ATOM     26  C   UNL     1      10.251   1.441  24.352  0.00  0.00    +0.322 C 
ATOM     27  OXT UNL     1      11.292   0.816  24.471  0.00  0.00    -0.249 OA
BRANCH  26  28
ATOM     28  O   UNL     1       9.243   1.406  25.263  0.00  0.00    -0.480 OA
ATOM     29  H   UNL     1       8.616   2.127  25.006  0.00  0.00    +0.295 HD
ENDBRANCH  26  28
ENDBRANCH  22  26
ENDBRANCH  21  22
ENDBRANCH  20  21
ENDBRANCH  19  20
ENDBRANCH   3  19
TORSDOF 10
ENDMDL
MODEL 2
REMARK VINA RESULT:      -6.6      2.069      2.663
REMARK  Name = 
REMARK  12 active torsions:
REMARK  status: ('A' for Active; 'I' for Inactive)
REMARK    1  A    between atoms: C_1  and  C_2
REMARK    2  A    between atoms: C_2  and  C_3
REMARK    3  A    between atoms: CA_7  and  N_9
REMARK    4  A    between atoms: C_10  and  C_12
REMARK    5  A    between atoms: C_12  and  C_13
REMARK    6  A    between atoms: C_13  and  C_14
REMARK    7  A    between atoms: C_14  and  CA_15
REMARK    8  A    between atoms: CA_15  and  N_17
REMARK    9  A    between atoms: CA_15  and  C_18
REMARK   10  A    between atoms: C_18  and  O_19
REMARK   11  A    between atoms: CA_24  and  C_26
REMARK   12  A    between atoms: C_26  and  O_27
REMARK                            x       y       z     vdW  Elec       q    Type
REMARK                         _______ _______ _______ _____ _____    ______ ____
ROOT
ATOM      1  N   UNL     1       9.664  -1.578  24.284  0.00  0.00    -0.302 N 
ATOM      2  H   UNL     1      10.437  -1.878  23.699  0.00  0.00    +0.150 HD
ATOM      3  C   UNL     1       9.655  -0.261  24.686  0.00  0.00    +0.214 C 
ATOM      4  O   UNL     1       8.737   0.228  25.334  0.00  0.00    -0.276 OA
ENDROOT
BRANCH   1  10
ATOM      5  C   UNL     1       4.075  -4.678  23.979  0.00  0.00    +0.025 C 
ATOM      6  C   UNL     1       5.539  -4.288  24.207  0.00  0.00    +0.042 C 
ATOM      7  CA  UNL     1       6.557  -4.863  23.188  0.00  0.00    +0.201 C 
ATOM      8  N   UNL     1       7.684  -3.914  23.115  0.00  0.00    -0.271 N 
ATOM      9  C   UNL     1       7.392  -2.492  23.392  0.00  0.00    +0.165 C 
ATOM     10  CA  UNL     1       8.514  -2.504  24.464  0.00  0.00    +0.190 C 
ATOM     11  C   UNL     1       8.686  -3.990  24.050  0.00  0.00    +0.240 C 
ATOM     12  O   UNL     1       9.252  -4.955  24.505  0.00  0.00    -0.273 OA
ATOM     13  S   UNL     1       5.695  -2.446  24.081  0.00  0.00    -0.127 S 
ATOM     14  C   UNL     1       5.903  -4.687  25.651  0.00  0.00    +0.025 C 
BRANCH   7  15
ATOM     15  C   UNL     1       6.002  -5.106  21.775  0.00  0.00    +0.327 C 
ATOM     16  OXT UNL     1       5.749  -4.219  20.971  0.00  0.00    -0.249 OA
BRANCH  15  17
ATOM     17  O   UNL     1       5.757  -6.410  21.494  0.00  0.00    -0.479 OA
ATOM     18  H   UNL     1       5.969  -6.976  22.267  0.00  0.00    +0.295 HD
ENDBRANCH  15  17
ENDBRANCH   7  15
ENDBRANCH   1  10
BRANCH   3  19
ATOM     19  C   UNL     1      10.908   0.493  24.270  0.00  0.00    +0.096 C 
BRANCH  19  20
ATOM     20  C   UNL     1      10.648   1.991  24.139  0.00  0.00    +0.011 C 
BRANCH  20  21
ATOM     21  C   UNL     1      10.217   2.383  22.722  0.00  0.00    +0.030 C 
BRANCH  21  22
ATOM     22  CA  UNL     1       8.728   2.751  22.628  0.00  0.00    +0.161 C 
BRANCH  22  23
ATOM     23  N   UNL     1       8.122   2.920  23.979  0.00  0.00    -0.318 NA
ATOM     24  H1  UNL     1       8.812   3.374  24.585  0.00  0.00    +0.119 HD
ATOM     25  H2  UNL     1       7.379   3.625  23.899  0.00  0.00    +0.119 HD
ENDBRANCH  22  23
BRANCH  22  26
ATOM     26  C   UNL     1       7.978   1.614  21.914  0.00  0.00    +0.322 C 
ATOM     27  OXT UNL     1       6.920   1.130  22.280  0.00  0.00    -0.249 OA
BRANCH  26  28
ATOM     28  O   UNL     1       8.631   1.231  20.785  0.00  0.00    -0.480 OA
ATOM     29  H   UNL     1       9.401   0.685  21.085  0.00  0.00    +0.295 HD
ENDBRANCH  26  28
ENDBRANCH  22  26
ENDBRANCH  21  22
ENDBRANCH  20  21
ENDBRANCH  19  20
ENDBRANCH   3  19
TORSDOF 10
ENDMDL
MODEL 3
REMARK VINA RESULT:      -6.6      2.493      3.331
REMARK  Name = 
REMARK  12 active torsions:
REMARK  status: ('A' for Active; 'I' for Inactive)
REMARK    1  A    between atoms: C_1  and  C_2
REMARK    2  A    between atoms: C_2  and  C_3
REMARK    3  A    between atoms: CA_7  and  N_9
REMARK    4  A    between atoms: C_10  and  C_12
REMARK    5  A    between atoms: C_12  and  C_13
REMARK    6  A    between atoms: C_13  and  C_14
REMARK    7  A    between atoms: C_14  and  CA_15
REMARK    8  A    between atoms: CA_15  and  N_17
REMARK    9  A    between atoms: CA_15  and  C_18
REMARK   10  A    between atoms: C_18  and  O_19
REMARK   11  A    between atoms: CA_24  and  C_26
REMARK   12  A    between atoms: C_26  and  O_27
REMARK                            x       y       z     vdW  Elec       q    Type
REMARK                         _______ _______ _______ _____ _____    ______ ____
ROOT
ATOM      1  N   UNL     1       8.560  -0.018  22.838  0.00  0.00    -0.302 N 
ATOM      2  H   UNL     1       7.985   0.373  22.100  0.00  0.00    +0.150 HD
ATOM      3  C   UNL     1       9.594   0.762  23.309  0.00  0.00    +0.214 C 
ATOM      4  O   UNL     1      10.308   0.422  24.245  0.00  0.00    -0.276 OA
ENDROOT
BRANCH   1  10
ATOM      5  C   UNL     1       5.410  -5.252  24.742  0.00  0.00    +0.025 C 
ATOM      6  C   UNL     1       6.482  -4.201  24.434  0.00  0.00    +0.042 C 
ATOM      7  CA  UNL     1       7.398  -4.506  23.220  0.00  0.00    +0.201 C 
ATOM      8  N   UNL     1       7.839  -3.210  22.670  0.00  0.00    -0.271 N 
ATOM      9  C   UNL     1       6.935  -2.055  22.849  0.00  0.00    +0.165 C 
ATOM     10  CA  UNL     1       8.111  -1.275  23.493  0.00  0.00    +0.190 C 
ATOM     11  C   UNL     1       8.918  -2.576  23.233  0.00  0.00    +0.240 C 
ATOM     12  O   UNL     1       9.979  -3.023  23.597  0.00  0.00    -0.273 OA
ATOM     13  S   UNL     1       5.650  -2.593  24.038  0.00  0.00    -0.127 S 
ATOM     14  C   UNL     1       7.306  -3.992  25.721  0.00  0.00    +0.025 C 
BRANCH   7  15
ATOM     15  C   UNL     1       6.748  -5.340  22.104  0.00  0.00    +0.327 C 
ATOM     16  OXT UNL     1       6.963  -6.531  21.920  0.00  0.00    -0.249 OA
BRANCH  15  17
ATOM     17  O   UNL     1       5.935  -4.630  21.285  0.00  0.00    -0.479 OA
ATOM     18  H   UNL     1       5.621  -5.187  20.540  0.00  0.00    +0.295 HD
ENDBRANCH  15  17
ENDBRANCH   7  15
ENDBRANCH   1  10
BRANCH   3  19
ATOM     19  C   UNL     1       9.764   2.054  22.527  0.00  0.00    +0.096 C 
BRANCH  19  20
ATOM     20  C   UNL     1      10.156   3.217  23.435  0.00  0.00    +0.011 C 
BRANCH  20  21
ATOM     21  C   UNL     1      11.650   3.542  23.348  0.00  0.00    +0.030 C 
BRANCH  21  22
ATOM     22  CA  UNL     1      11.947   5.044  23.486  0.00  0.00    +0.161 C 
BRANCH  22  23
ATOM     23  N   UNL     1      10.834   5.872  22.938  0.00  0.00    -0.318 NA
ATOM     24  H1  UNL     1      10.391   5.349  22.176  0.00  0.00    +0.119 HD
ATOM     25  H2  UNL     1      10.098   5.913  23.653  0.00  0.00    +0.119 HD
ENDBRANCH  22  23
BRANCH  22  26
ATOM     26  C   UNL     1      13.218   5.377  22.688  0.00  0.00    +0.322 C 
ATOM     27  OXT UNL     1      13.252   6.030  21.658  0.00  0.00    -0.249 OA
BRANCH  26  28
ATOM     28  O   UNL     1      14.324   4.876  23.300  0.00  0.00    -0.480 OA
ATOM     29  H   UNL     1      15.092   5.131  22.729  0.00  0.00    +0.295 HD
ENDBRANCH  26  28
ENDBRANCH  22  26
ENDBRANCH  21  22
ENDBRANCH  20  21
ENDBRANCH  19  20
ENDBRANCH   3  19
TORSDOF 10
ENDMDL
MODEL 4
REMARK VINA RESULT:      -6.5      1.984      3.056
REMARK  Name = 
REMARK  12 active torsions:
REMARK  status: ('A' for Active; 'I' for Inactive)
REMARK    1  A    between atoms: C_1  and  C_2
REMARK    2  A    between atoms: C_2  and  C_3
REMARK    3  A    between atoms: CA_7  and  N_9
REMARK    4  A    between atoms: C_10  and  C_12
REMARK    5  A    between atoms: C_12  and  C_13
REMARK    6  A    between atoms: C_13  and  C_14
REMARK    7  A    between atoms: C_14  and  CA_15
REMARK    8  A    between atoms: CA_15  and  N_17
REMARK    9  A    between atoms: CA_15  and  C_18
REMARK   10  A    between atoms: C_18  and  O_19
REMARK   11  A    between atoms: CA_24  and  C_26
REMARK   12  A    between atoms: C_26  and  O_27
REMARK                            x       y       z     vdW  Elec       q    Type
REMARK                         _______ _______ _______ _____ _____    ______ ____
ROOT
ATOM      1  N   UNL     1       7.222   0.606  22.674  0.00  0.00    -0.302 N 
ATOM      2  H   UNL     1       7.509   0.761  21.714  0.00  0.00    +0.150 HD
ATOM      3  C   UNL     1       6.514   1.614  23.289  0.00  0.00    +0.214 C 
ATOM      4  O   UNL     1       6.057   1.508  24.422  0.00  0.00    -0.276 OA
ENDROOT
BRANCH   1  10
ATOM      5  C   UNL     1       6.460  -5.393  24.766  0.00  0.00    +0.025 C 
ATOM      6  C   UNL     1       7.033  -4.065  24.258  0.00  0.00    +0.042 C 
ATOM      7  CA  UNL     1       7.458  -4.040  22.767  0.00  0.00    +0.201 C 
ATOM      8  N   UNL     1       7.315  -2.649  22.297  0.00  0.00    -0.271 N 
ATOM      9  C   UNL     1       6.291  -1.812  22.956  0.00  0.00    +0.165 C 
ATOM     10  CA  UNL     1       7.388  -0.756  23.250  0.00  0.00    +0.190 C 
ATOM     11  C   UNL     1       8.331  -1.756  22.528  0.00  0.00    +0.240 C 
ATOM     12  O   UNL     1       9.527  -1.894  22.420  0.00  0.00    -0.273 OA
ATOM     13  S   UNL     1       5.738  -2.750  24.430  0.00  0.00    -0.127 S 
ATOM     14  C   UNL     1       8.206  -3.685  25.184  0.00  0.00    +0.025 C 
BRANCH   7  15
ATOM     15  C   UNL     1       6.662  -4.976  21.844  0.00  0.00    +0.327 C 
ATOM     16  OXT UNL     1       5.515  -4.764  21.471  0.00  0.00    -0.249 OA
BRANCH  15  17
ATOM     17  O   UNL     1       7.322  -6.109  21.503  0.00  0.00    -0.479 OA
ATOM     18  H   UNL     1       8.291  -5.983  21.584  0.00  0.00    +0.295 HD
ENDBRANCH  15  17
ENDBRANCH   7  15
ENDBRANCH   1  10
BRANCH   3  19
ATOM     19  C   UNL     1       6.394   2.862  22.430  0.00  0.00    +0.096 C 
BRANCH  19  20
ATOM     20  C   UNL     1       7.759   3.475  22.128  0.00  0.00    +0.011 C 
BRANCH  20  21
ATOM     21  C   UNL     1       8.667   3.504  23.361  0.00  0.00    +0.030 C 
BRANCH  21  22
ATOM     22  CA  UNL     1      10.002   2.777  23.141  0.00  0.00    +0.161 C 
BRANCH  22  23
ATOM     23  N   UNL     1      10.043   2.103  21.812  0.00  0.00    -0.318 NA
ATOM     24  H1  UNL     1       9.564   2.702  21.134  0.00  0.00    +0.119 HD
ATOM     25  H2  UNL     1      11.018   2.114  21.488  0.00  0.00    +0.119 HD
ENDBRANCH  22  23
BRANCH  22  26
ATOM     26  C   UNL     1      10.166   1.696  24.222  0.00  0.00    +0.322 C 
ATOM     27  OXT UNL     1      11.094   0.908  24.296  0.00  0.00    -0.249 OA
BRANCH  26  28
ATOM     28  O   UNL     1       9.150   1.749  25.124  0.00  0.00    -0.480 OA
ATOM     29  H   UNL     1       8.341   2.001  24.611  0.00  0.00    +0.295 HD
ENDBRANCH  26  28
ENDBRANCH  22  26
ENDBRANCH  21  22
ENDBRANCH  20  21
ENDBRANCH  19  20
ENDBRANCH   3  19
TORSDOF 10
ENDMDL
MODEL 5
REMARK VINA RESULT:      -6.5      2.227      3.301
REMARK  Name = 
REMARK  12 active torsions:
REMARK  status: ('A' for Active; 'I' for Inactive)
REMARK    1  A    between atoms: C_1  and  C_2
REMARK    2  A    between atoms: C_2  and  C_3
REMARK    3  A    between atoms: CA_7  and  N_9
REMARK    4  A    between atoms: C_10  and  C_12
REMARK    5  A    between atoms: C_12  and  C_13
REMARK    6  A    between atoms: C_13  and  C_14
REMARK    7  A    between atoms: C_14  and  CA_15
REMARK    8  A    between atoms: CA_15  and  N_17
REMARK    9  A    between atoms: CA_15  and  C_18
REMARK   10  A    between atoms: C_18  and  O_19
REMARK   11  A    between atoms: CA_24  and  C_26
REMARK   12  A    between atoms: C_26  and  O_27
REMARK                            x       y       z     vdW  Elec       q    Type
REMARK                         _______ _______ _______ _____ _____    ______ ____
ROOT
ATOM      1  N   UNL     1       8.561  -0.154  24.513  0.00  0.00    -0.302 N 
ATOM      2  H   UNL     1       8.986   0.147  23.643  0.00  0.00    +0.150 HD
ATOM      3  C   UNL     1       8.214   0.826  25.416  0.00  0.00    +0.214 C 
ATOM      4  O   UNL     1       7.632   0.585  26.467  0.00  0.00    -0.276 OA
ENDROOT
BRANCH   1  10
ATOM      5  C   UNL     1       5.520  -5.782  24.355  0.00  0.00    +0.025 C 
ATOM      6  C   UNL     1       6.574  -4.672  24.434  0.00  0.00    +0.042 C 
ATOM      7  CA  UNL     1       7.424  -4.456  23.155  0.00  0.00    +0.201 C 
ATOM      8  N   UNL     1       7.834  -3.039  23.139  0.00  0.00    -0.271 N 
ATOM      9  C   UNL     1       6.940  -2.067  23.800  0.00  0.00    +0.165 C 
ATOM     10  CA  UNL     1       8.148  -1.577  24.642  0.00  0.00    +0.190 C 
ATOM     11  C   UNL     1       8.941  -2.654  23.853  0.00  0.00    +0.240 C 
ATOM     12  O   UNL     1      10.021  -3.185  23.960  0.00  0.00    -0.273 OA
ATOM     13  S   UNL     1       5.720  -3.056  24.743  0.00  0.00    -0.127 S 
ATOM     14  C   UNL     1       7.463  -4.967  25.658  0.00  0.00    +0.025 C 
BRANCH   7  15
ATOM     15  C   UNL     1       6.717  -4.799  21.834  0.00  0.00    +0.327 C 
ATOM     16  OXT UNL     1       6.940  -5.805  21.174  0.00  0.00    -0.249 OA
BRANCH  15  17
ATOM     17  O   UNL     1       5.839  -3.855  21.415  0.00  0.00    -0.479 OA
ATOM     18  H   UNL     1       4.992  -4.268  21.139  0.00  0.00    +0.295 HD
ENDBRANCH  15  17
ENDBRANCH   7  15
ENDBRANCH   1  10
BRANCH   3  19
ATOM     19  C   UNL     1       8.658   2.214  24.982  0.00  0.00    +0.096 C 
BRANCH  19  20
ATOM     20  C   UNL     1       7.563   2.942  24.207  0.00  0.00    +0.011 C 
BRANCH  20  21
ATOM     21  C   UNL     1       7.992   3.280  22.776  0.00  0.00    +0.030 C 
BRANCH  21  22
ATOM     22  CA  UNL     1       7.689   2.152  21.777  0.00  0.00    +0.161 C 
BRANCH  22  23
ATOM     23  N   UNL     1       6.641   1.228  22.299  0.00  0.00    -0.318 NA
ATOM     24  H1  UNL     1       7.022   0.277  22.294  0.00  0.00    +0.119 HD
ATOM     25  H2  UNL     1       6.523   1.429  23.299  0.00  0.00    +0.119 HD
ENDBRANCH  22  23
BRANCH  22  26
ATOM     26  C   UNL     1       8.968   1.332  21.547  0.00  0.00    +0.322 C 
ATOM     27  OXT UNL     1       9.011   0.122  21.393  0.00  0.00    -0.249 OA
BRANCH  26  28
ATOM     28  O   UNL     1      10.063   2.137  21.499  0.00  0.00    -0.480 OA
ATOM     29  H   UNL     1      10.058   2.655  22.342  0.00  0.00    +0.295 HD
ENDBRANCH  26  28
ENDBRANCH  22  26
ENDBRANCH  21  22
ENDBRANCH  20  21
ENDBRANCH  19  20
ENDBRANCH   3  19
TORSDOF 10
ENDMDL
MODEL 6
REMARK VINA RESULT:      -6.5      1.783      2.237
REMARK  Name = 
REMARK  12 active torsions:
REMARK  status: ('A' for Active; 'I' for Inactive)
REMARK    1  A    between atoms: C_1  and  C_2
REMARK    2  A    between atoms: C_2  and  C_3
REMARK    3  A    between atoms: CA_7  and  N_9
REMARK    4  A    between atoms: C_10  and  C_12
REMARK    5  A    between atoms: C_12  and  C_13
REMARK    6  A    between atoms: C_13  and  C_14
REMARK    7  A    between atoms: C_14  and  CA_15
REMARK    8  A    between atoms: CA_15  and  N_17
REMARK    9  A    between atoms: CA_15  and  C_18
REMARK   10  A    between atoms: C_18  and  O_19
REMARK   11  A    between atoms: CA_24  and  C_26
REMARK   12  A    between atoms: C_26  and  O_27
REMARK                            x       y       z     vdW  Elec       q    Type
REMARK                         _______ _______ _______ _____ _____    ______ ____
ROOT
ATOM      1  N   UNL     1       8.078  -2.040  22.548  0.00  0.00    -0.302 N 
ATOM      2  H   UNL     1       7.488  -1.550  21.885  0.00  0.00    +0.150 HD
ATOM      3  C   UNL     1       9.414  -1.706  22.568  0.00  0.00    +0.214 C 
ATOM      4  O   UNL     1      10.205  -2.182  23.374  0.00  0.00    -0.276 OA
ENDROOT
BRANCH   1  10
ATOM      5  C   UNL     1       3.986  -5.224  26.298  0.00  0.00    +0.025 C 
ATOM      6  C   UNL     1       5.224  -4.745  25.532  0.00  0.00    +0.042 C 
ATOM      7  CA  UNL     1       5.612  -5.581  24.285  0.00  0.00    +0.201 C 
ATOM      8  N   UNL     1       6.298  -4.673  23.347  0.00  0.00    -0.271 N 
ATOM      9  C   UNL     1       5.926  -3.244  23.392  0.00  0.00    +0.165 C 
ATOM     10  CA  UNL     1       7.426  -2.893  23.578  0.00  0.00    +0.190 C 
ATOM     11  C   UNL     1       7.638  -4.429  23.511  0.00  0.00    +0.240 C 
ATOM     12  O   UNL     1       8.541  -5.190  23.767  0.00  0.00    -0.273 OA
ATOM     13  S   UNL     1       4.913  -3.029  24.904  0.00  0.00    -0.127 S 
ATOM     14  C   UNL     1       6.388  -4.665  26.540  0.00  0.00    +0.025 C 
BRANCH   7  15
ATOM     15  C   UNL     1       4.438  -6.266  23.566  0.00  0.00    +0.327 C 
ATOM     16  OXT UNL     1       3.723  -5.719  22.737  0.00  0.00    -0.249 OA
BRANCH  15  17
ATOM     17  O   UNL     1       4.213  -7.542  23.966  0.00  0.00    -0.479 OA
ATOM     18  H   UNL     1       3.256  -7.695  24.116  0.00  0.00    +0.295 HD
ENDBRANCH  15  17
ENDBRANCH   7  15
ENDBRANCH   1  10
BRANCH   3  19
ATOM     19  C   UNL     1       9.794  -0.723  21.473  0.00  0.00    +0.096 C 
BRANCH  19  20
ATOM     20  C   UNL     1       9.782   0.718  21.977  0.00  0.00    +0.011 C 
BRANCH  20  21
ATOM     21  C   UNL     1       8.562   1.497  21.475  0.00  0.00    +0.030 C 
BRANCH  21  22
ATOM     22  CA  UNL     1       7.542   1.795  22.585  0.00  0.00    +0.161 C 
BRANCH  22  23
ATOM     23  N   UNL     1       6.499   0.733  22.665  0.00  0.00    -0.318 NA
ATOM     24  H1  UNL     1       6.916  -0.151  22.357  0.00  0.00    +0.119 HD
ATOM     25  H2  UNL     1       6.302   0.565  23.659  0.00  0.00    +0.119 HD
ENDBRANCH  22  23
BRANCH  22  26
ATOM     26  C   UNL     1       6.837   3.125  22.271  0.00  0.00    +0.322 C 
ATOM     27  OXT UNL     1       5.631   3.304  22.291  0.00  0.00    -0.249 OA
BRANCH  26  28
ATOM     28  O   UNL     1       7.740   4.104  21.999  0.00  0.00    -0.480 OA
ATOM     29  H   UNL     1       8.633   3.682  22.076  0.00  0.00    +0.295 HD
ENDBRANCH  26  28
ENDBRANCH  22  26
ENDBRANCH  21  22
ENDBRANCH  20  21
ENDBRANCH  19  20
ENDBRANCH   3  19
TORSDOF 10
ENDMDL
MODEL 7
REMARK VINA RESULT:      -6.5      2.643      7.140
REMARK  Name = 
REMARK  12 active torsions:
REMARK  status: ('A' for Active; 'I' for Inactive)
REMARK    1  A    between atoms: C_1  and  C_2
REMARK    2  A    between atoms: C_2  and  C_3
REMARK    3  A    between atoms: CA_7  and  N_9
REMARK    4  A    between atoms: C_10  and  C_12
REMARK    5  A    between atoms: C_12  and  C_13
REMARK    6  A    between atoms: C_13  and  C_14
REMARK    7  A    between atoms: C_14  and  CA_15
REMARK    8  A    between atoms: CA_15  and  N_17
REMARK    9  A    between atoms: CA_15  and  C_18
REMARK   10  A    between atoms: C_18  and  O_19
REMARK   11  A    between atoms: CA_24  and  C_26
REMARK   12  A    between atoms: C_26  and  O_27
REMARK                            x       y       z     vdW  Elec       q    Type
REMARK                         _______ _______ _______ _____ _____    ______ ____
ROOT
ATOM      1  N   UNL     1       7.179  -3.740  22.707  0.00  0.00    -0.302 N 
ATOM      2  H   UNL     1       6.465  -3.609  21.999  0.00  0.00    +0.150 HD
ATOM      3  C   UNL     1       7.630  -5.024  22.915  0.00  0.00    +0.214 C 
ATOM      4  O   UNL     1       8.538  -5.290  23.695  0.00  0.00    -0.276 OA
ENDROOT
BRANCH   1  10
ATOM      5  C   UNL     1      10.665   1.504  23.843  0.00  0.00    +0.025 C 
ATOM      6  C   UNL     1       9.603   0.399  23.870  0.00  0.00    +0.042 C 
ATOM      7  CA  UNL     1       8.239   0.760  23.227  0.00  0.00    +0.201 C 
ATOM      8  N   UNL     1       7.645  -0.496  22.730  0.00  0.00    -0.271 N 
ATOM      9  C   UNL     1       8.574  -1.572  22.328  0.00  0.00    +0.165 C 
ATOM     10  CA  UNL     1       7.827  -2.534  23.288  0.00  0.00    +0.190 C 
ATOM     11  C   UNL     1       6.944  -1.295  23.598  0.00  0.00    +0.240 C 
ATOM     12  O   UNL     1       6.135  -0.999  24.445  0.00  0.00    -0.273 OA
ATOM     13  S   UNL     1      10.232  -1.061  22.918  0.00  0.00    -0.127 S 
ATOM     14  C   UNL     1       9.434  -0.042  25.338  0.00  0.00    +0.025 C 
BRANCH   7  15
ATOM     15  C   UNL     1       8.306   1.782  22.081  0.00  0.00    +0.327 C 
ATOM     16  OXT UNL     1       7.937   2.945  22.172  0.00  0.00    -0.249 OA
BRANCH  15  17
ATOM     17  O   UNL     1       8.769   1.273  20.913  0.00  0.00    -0.479 OA
ATOM     18  H   UNL     1       8.027   1.072  20.303  0.00  0.00    +0.295 HD
ENDBRANCH  15  17
ENDBRANCH   7  15
ENDBRANCH   1  10
BRANCH   3  19
ATOM     19  C   UNL     1       6.865  -6.059  22.107  0.00  0.00    +0.096 C 
BRANCH  19  20
ATOM     20  C   UNL     1       5.357  -5.937  22.314  0.00  0.00    +0.011 C 
BRANCH  20  21
ATOM     21  C   UNL     1       4.913  -6.485  23.674  0.00  0.00    +0.030 C 
BRANCH  21  22
ATOM     22  CA  UNL     1       4.485  -5.383  24.655  0.00  0.00    +0.161 C 
BRANCH  22  23
ATOM     23  N   UNL     1       4.288  -4.080  23.958  0.00  0.00    -0.318 NA
ATOM     24  H1  UNL     1       3.284  -3.945  23.807  0.00  0.00    +0.119 HD
ATOM     25  H2  UNL     1       4.528  -3.334  24.623  0.00  0.00    +0.119 HD
ENDBRANCH  22  23
BRANCH  22  26
ATOM     26  C   UNL     1       5.592  -5.193  25.705  0.00  0.00    +0.322 C 
ATOM     27  OXT UNL     1       6.120  -6.090  26.342  0.00  0.00    -0.249 OA
BRANCH  26  28
ATOM     28  O   UNL     1       5.942  -3.884  25.814  0.00  0.00    -0.480 OA
ATOM     29  H   UNL     1       6.516  -3.821  26.619  0.00  0.00    +0.295 HD
ENDBRANCH  26  28
ENDBRANCH  22  26
ENDBRANCH  21  22
ENDBRANCH  20  21
ENDBRANCH  19  20
ENDBRANCH   3  19
TORSDOF 10
ENDMDL
MODEL 8
REMARK VINA RESULT:      -6.5      2.607      3.782
REMARK  Name = 
REMARK  12 active torsions:
REMARK  status: ('A' for Active; 'I' for Inactive)
REMARK    1  A    between atoms: C_1  and  C_2
REMARK    2  A    between atoms: C_2  and  C_3
REMARK    3  A    between atoms: CA_7  and  N_9
REMARK    4  A    between atoms: C_10  and  C_12
REMARK    5  A    between atoms: C_12  and  C_13
REMARK    6  A    between atoms: C_13  and  C_14
REMARK    7  A    between atoms: C_14  and  CA_15
REMARK    8  A    between atoms: CA_15  and  N_17
REMARK    9  A    between atoms: CA_15  and  C_18
REMARK   10  A    between atoms: C_18  and  O_19
REMARK   11  A    between atoms: CA_24  and  C_26
REMARK   12  A    between atoms: C_26  and  O_27
REMARK                            x       y       z     vdW  Elec       q    Type
REMARK                         _______ _______ _______ _____ _____    ______ ____
ROOT
ATOM      1  N   UNL     1       6.667   0.460  24.426  0.00  0.00    -0.302 N 
ATOM      2  H   UNL     1       6.817   0.741  25.389  0.00  0.00    +0.150 HD
ATOM      3  C   UNL     1       6.829   1.426  23.457  0.00  0.00    +0.214 C 
ATOM      4  O   UNL     1       6.743   1.185  22.259  0.00  0.00    -0.276 OA
ENDROOT
BRANCH   1  10
ATOM      5  C   UNL     1       7.451  -5.639  22.657  0.00  0.00    +0.025 C 
ATOM      6  C   UNL     1       6.969  -4.338  23.309  0.00  0.00    +0.042 C 
ATOM      7  CA  UNL     1       7.404  -4.119  24.781  0.00  0.00    +0.201 C 
ATOM      8  N   UNL     1       7.477  -2.663  25.002  0.00  0.00    -0.271 N 
ATOM      9  C   UNL     1       7.793  -1.815  23.834  0.00  0.00    +0.165 C 
ATOM     10  CA  UNL     1       6.513  -0.989  24.128  0.00  0.00    +0.190 C 
ATOM     11  C   UNL     1       6.332  -1.975  25.314  0.00  0.00    +0.240 C 
ATOM     12  O   UNL     1       5.436  -2.259  26.073  0.00  0.00    -0.273 OA
ATOM     13  S   UNL     1       7.664  -2.902  22.365  0.00  0.00    -0.127 S 
ATOM     14  C   UNL     1       5.435  -4.290  23.163  0.00  0.00    +0.025 C 
BRANCH   7  15
ATOM     15  C   UNL     1       8.746  -4.763  25.169  0.00  0.00    +0.327 C 
ATOM     16  OXT UNL     1       9.830  -4.421  24.717  0.00  0.00    -0.249 OA
BRANCH  15  17
ATOM     17  O   UNL     1       8.632  -5.800  26.034  0.00  0.00    -0.479 OA
ATOM     18  H   UNL     1       8.503  -6.644  25.549  0.00  0.00    +0.295 HD
ENDBRANCH  15  17
ENDBRANCH   7  15
ENDBRANCH   1  10
BRANCH   3  19
ATOM     19  C   UNL     1       7.090   2.807  24.037  0.00  0.00    +0.096 C 
BRANCH  19  20
ATOM     20  C   UNL     1       8.201   3.535  23.284  0.00  0.00    +0.011 C 
BRANCH  20  21
ATOM     21  C   UNL     1       9.581   3.281  23.898  0.00  0.00    +0.030 C 
BRANCH  21  22
ATOM     22  CA  UNL     1      10.417   2.271  23.096  0.00  0.00    +0.161 C 
BRANCH  22  23
ATOM     23  N   UNL     1       9.860   2.066  21.728  0.00  0.00    -0.318 NA
ATOM     24  H1  UNL     1       8.883   1.772  21.820  0.00  0.00    +0.119 HD
ATOM     25  H2  UNL     1       9.786   2.989  21.283  0.00  0.00    +0.119 HD
ENDBRANCH  22  23
BRANCH  22  26
ATOM     26  C   UNL     1      10.393   0.915  23.822  0.00  0.00    +0.322 C 
ATOM     27  OXT UNL     1      10.787  -0.140  23.355  0.00  0.00    -0.249 OA
BRANCH  26  28
ATOM     28  O   UNL     1       9.902   1.045  25.083  0.00  0.00    -0.480 OA
ATOM     29  H   UNL     1      10.504   0.518  25.666  0.00  0.00    +0.295 HD
ENDBRANCH  26  28
ENDBRANCH  22  26
ENDBRANCH  21  22
ENDBRANCH  20  21
ENDBRANCH  19  20
ENDBRANCH   3  19
TORSDOF 10
ENDMDL
MODEL 9
REMARK VINA RESULT:      -6.5      2.341      3.302
REMARK  Name = 
REMARK  12 active torsions:
REMARK  status: ('A' for Active; 'I' for Inactive)
REMARK    1  A    between atoms: C_1  and  C_2
REMARK    2  A    between atoms: C_2  and  C_3
REMARK    3  A    between atoms: CA_7  and  N_9
REMARK    4  A    between atoms: C_10  and  C_12
REMARK    5  A    between atoms: C_12  and  C_13
REMARK    6  A    between atoms: C_13  and  C_14
REMARK    7  A    between atoms: C_14  and  CA_15
REMARK    8  A    between atoms: CA_15  and  N_17
REMARK    9  A    between atoms: CA_15  and  C_18
REMARK   10  A    between atoms: C_18  and  O_19
REMARK   11  A    between atoms: CA_24  and  C_26
REMARK   12  A    between atoms: C_26  and  O_27
REMARK                            x       y       z     vdW  Elec       q    Type
REMARK                         _______ _______ _______ _____ _____    ______ ____
ROOT
ATOM      1  N   UNL     1       8.920   0.166  23.033  0.00  0.00    -0.302 N 
ATOM      2  H   UNL     1       8.473   0.555  22.210  0.00  0.00    +0.150 HD
ATOM      3  C   UNL     1       9.864   0.946  23.664  0.00  0.00    +0.214 C 
ATOM      4  O   UNL     1      10.416   0.608  24.705  0.00  0.00    -0.276 OA
ENDROOT
BRANCH   1  10
ATOM      5  C   UNL     1       5.375  -4.933  24.573  0.00  0.00    +0.025 C 
ATOM      6  C   UNL     1       6.523  -3.942  24.351  0.00  0.00    +0.042 C 
ATOM      7  CA  UNL     1       7.455  -4.247  23.149  0.00  0.00    +0.201 C 
ATOM      8  N   UNL     1       7.997  -2.958  22.680  0.00  0.00    -0.271 N 
ATOM      9  C   UNL     1       7.166  -1.756  22.892  0.00  0.00    +0.165 C 
ATOM     10  CA  UNL     1       8.369  -1.089  23.609  0.00  0.00    +0.190 C 
ATOM     11  C   UNL     1       9.096  -2.426  23.305  0.00  0.00    +0.240 C 
ATOM     12  O   UNL     1      10.114  -2.961  23.676  0.00  0.00    -0.273 OA
ATOM     13  S   UNL     1       5.810  -2.265  24.015  0.00  0.00    -0.127 S 
ATOM     14  C   UNL     1       7.316  -3.853  25.670  0.00  0.00    +0.025 C 
BRANCH   7  15
ATOM     15  C   UNL     1       6.788  -4.980  21.974  0.00  0.00    +0.327 C 
ATOM     16  OXT UNL     1       5.984  -4.465  21.208  0.00  0.00    -0.249 OA
BRANCH  15  17
ATOM     17  O   UNL     1       7.126  -6.289  21.875  0.00  0.00    -0.479 OA
ATOM     18  H   UNL     1       6.396  -6.806  21.471  0.00  0.00    +0.295 HD
ENDBRANCH  15  17
ENDBRANCH   7  15
ENDBRANCH   1  10
BRANCH   3  19
ATOM     19  C   UNL     1      10.160   2.237  22.917  0.00  0.00    +0.096 C 
BRANCH  19  20
ATOM     20  C   UNL     1       9.817   3.466  23.754  0.00  0.00    +0.011 C 
BRANCH  20  21
ATOM     21  C   UNL     1       8.320   3.790  23.721  0.00  0.00    +0.030 C 
BRANCH  21  22
ATOM     22  CA  UNL     1       7.729   3.759  22.303  0.00  0.00    +0.161 C 
BRANCH  22  23
ATOM     23  N   UNL     1       7.364   5.127  21.835  0.00  0.00    -0.318 NA
ATOM     24  H1  UNL     1       7.614   5.205  20.845  0.00  0.00    +0.119 HD
ATOM     25  H2  UNL     1       6.338   5.186  21.823  0.00  0.00    +0.119 HD
ENDBRANCH  22  23
BRANCH  22  26
ATOM     26  C   UNL     1       6.449   2.907  22.314  0.00  0.00    +0.322 C 
ATOM     27  OXT UNL     1       6.392   1.726  22.613  0.00  0.00    -0.249 OA
BRANCH  26  28
ATOM     28  O   UNL     1       5.363   3.653  21.980  0.00  0.00    -0.480 OA
ATOM     29  H   UNL     1       4.938   3.918  22.834  0.00  0.00    +0.295 HD
ENDBRANCH  26  28
ENDBRANCH  22  26
ENDBRANCH  21  22
ENDBRANCH  20  21
ENDBRANCH  19  20
ENDBRANCH   3  19
TORSDOF 10
ENDMDL
