MODEL 1
REMARK VINA RESULT:      -7.2      0.000      0.000
REMARK  Name = 
REMARK  5 active torsions:
REMARK  status: ('A' for Active; 'I' for Inactive)
REMARK    1  A    between atoms: N_1  and  C_2
REMARK    2  A    between atoms: C_5  and  S_8
REMARK    3  A    between atoms: S_8  and  N_11
REMARK    4  A    between atoms: N_11  and  C_12
REMARK    5  A    between atoms: N_16  and  C_17
REMARK                            x       y       z     vdW  Elec       q    Type
REMARK                         _______ _______ _______ _____ _____    ______ ____
ROOT
ATOM      1  N   UNL     1       8.198  -2.200  24.349  0.00  0.00    -0.199 N 
ATOM      2  H   UNL     1       7.728  -1.385  24.716  0.00  0.00    +0.175 HD
ENDROOT
BRANCH   1   3
ATOM      3  C   UNL     1       8.214  -3.356  25.114  0.00  0.00    +0.141 A 
ATOM      4  N   UNL     1       7.652  -4.619  24.878  0.00  0.00    -0.217 N 
ATOM      5  N   UNL     1       7.817  -5.415  25.975  0.00  0.00    -0.173 NA
ATOM      6  C   UNL     1       8.506  -4.685  26.847  0.00  0.00    +0.137 A 
ATOM      7  C   UNL     1       8.773  -3.395  26.374  0.00  0.00    +0.066 A 
BRANCH   4   8
ATOM      8  C   UNL     1       6.945  -5.129  23.748  0.00  0.00    +0.067 A 
ATOM      9  C   UNL     1       5.556  -5.268  23.729  0.00  0.00    +0.028 A 
ATOM     10  C   UNL     1       4.895  -5.701  22.576  0.00  0.00    +0.002 A 
ATOM     11  C   UNL     1       5.616  -6.043  21.439  0.00  0.00    +0.000 A 
ATOM     12  C   UNL     1       7.004  -5.952  21.452  0.00  0.00    +0.002 A 
ATOM     13  C   UNL     1       7.667  -5.493  22.594  0.00  0.00    +0.028 A 
ENDBRANCH   4   8
ENDBRANCH   1   3
BRANCH   1  14
ATOM     14  S   UNL     1       9.147  -1.992  23.038  0.00  0.00    +0.073 S 
ATOM     15  O   UNL     1      10.409  -2.687  23.188  0.00  0.00    -0.150 OA
ATOM     16  O   UNL     1       8.356  -2.175  21.839  0.00  0.00    -0.150 OA
BRANCH  14  20
ATOM     17  C   UNL     1      10.327   2.432  23.228  0.00  0.00    +0.025 A 
ATOM     18  C   UNL     1      10.117   1.811  21.994  0.00  0.00    +0.024 A 
ATOM     19  C   UNL     1       9.735   0.466  21.927  0.00  0.00    +0.030 A 
ATOM     20  C   UNL     1       9.509  -0.246  23.109  0.00  0.00    +0.109 A 
ATOM     21  C   UNL     1       9.649   0.381  24.347  0.00  0.00    +0.030 A 
ATOM     22  C   UNL     1      10.031   1.725  24.398  0.00  0.00    +0.024 A 
BRANCH  17  23
ATOM     23  N   UNL     1      10.616   3.798  23.286  0.00  0.00    -0.358 N 
ATOM     24  H   UNL     1       9.810   4.390  23.471  0.00  0.00    +0.142 HD
ATOM     25  H   UNL     1      11.158   4.144  22.498  0.00  0.00    +0.142 HD
ENDBRANCH  17  23
ENDBRANCH  14  20
ENDBRANCH   1  14
TORSDOF 5
ENDMDL
MODEL 2
REMARK VINA RESULT:      -7.1      2.731      4.735
REMARK  Name = 
REMARK  5 active torsions:
REMARK  status: ('A' for Active; 'I' for Inactive)
REMARK    1  A    between atoms: N_1  and  C_2
REMARK    2  A    between atoms: C_5  and  S_8
REMARK    3  A    between atoms: S_8  and  N_11
REMARK    4  A    between atoms: N_11  and  C_12
REMARK    5  A    between atoms: N_16  and  C_17
REMARK                            x       y       z     vdW  Elec       q    Type
REMARK                         _______ _______ _______ _____ _____    ______ ____
ROOT
ATOM      1  N   UNL     1       8.179  -2.479  25.364  0.00  0.00    -0.199 N 
ATOM      2  H   UNL     1       8.689  -2.587  26.228  0.00  0.00    +0.175 HD
ENDROOT
BRANCH   1   3
ATOM      3  C   UNL     1       6.824  -2.192  25.424  0.00  0.00    +0.141 A 
ATOM      4  N   UNL     1       6.136  -0.980  25.269  0.00  0.00    -0.217 N 
ATOM      5  N   UNL     1       4.810  -1.159  25.541  0.00  0.00    -0.173 NA
ATOM      6  C   UNL     1       4.670  -2.455  25.806  0.00  0.00    +0.137 A 
ATOM      7  C   UNL     1       5.887  -3.145  25.760  0.00  0.00    +0.066 A 
BRANCH   4   8
ATOM      8  C   UNL     1       6.608   0.324  24.935  0.00  0.00    +0.067 A 
ATOM      9  C   UNL     1       6.400   0.903  23.682  0.00  0.00    +0.028 A 
ATOM     10  C   UNL     1       6.813   2.213  23.419  0.00  0.00    +0.002 A 
ATOM     11  C   UNL     1       7.480   2.947  24.392  0.00  0.00    +0.000 A 
ATOM     12  C   UNL     1       7.736   2.372  25.632  0.00  0.00    +0.002 A 
ATOM     13  C   UNL     1       7.299   1.073  25.908  0.00  0.00    +0.028 A 
ENDBRANCH   4   8
ENDBRANCH   1   3
BRANCH   1  14
ATOM     14  S   UNL     1       8.925  -2.948  23.989  0.00  0.00    +0.073 S 
ATOM     15  O   UNL     1      10.136  -3.688  24.276  0.00  0.00    -0.150 OA
ATOM     16  O   UNL     1       7.945  -3.488  23.072  0.00  0.00    -0.150 OA
BRANCH  14  20
ATOM     17  C   UNL     1       9.999   1.158  22.261  0.00  0.00    +0.025 A 
ATOM     18  C   UNL     1      10.418   0.802  23.546  0.00  0.00    +0.024 A 
ATOM     19  C   UNL     1      10.113  -0.457  24.073  0.00  0.00    +0.030 A 
ATOM     20  C   UNL     1       9.430  -1.388  23.285  0.00  0.00    +0.109 A 
ATOM     21  C   UNL     1       9.066  -1.070  21.976  0.00  0.00    +0.030 A 
ATOM     22  C   UNL     1       9.377   0.193  21.463  0.00  0.00    +0.024 A 
BRANCH  17  23
ATOM     23  N   UNL     1      10.389   2.382  21.709  0.00  0.00    -0.358 N 
ATOM     24  H   UNL     1       9.624   3.032  21.551  0.00  0.00    +0.142 HD
ATOM     25  H   UNL     1      10.981   2.299  20.887  0.00  0.00    +0.142 HD
ENDBRANCH  17  23
ENDBRANCH  14  20
ENDBRANCH   1  14
TORSDOF 5
ENDMDL
MODEL 3
REMARK VINA RESULT:      -7.0      3.024      5.395
REMARK  Name = 
REMARK  5 active torsions:
REMARK  status: ('A' for Active; 'I' for Inactive)
REMARK    1  A    between atoms: N_1  and  C_2
REMARK    2  A    between atoms: C_5  and  S_8
REMARK    3  A    between atoms: S_8  and  N_11
REMARK    4  A    between atoms: N_11  and  C_12
REMARK    5  A    between atoms: N_16  and  C_17
REMARK                            x       y       z     vdW  Elec       q    Type
REMARK                         _______ _______ _______ _____ _____    ______ ____
ROOT
ATOM      1  N   UNL     1       6.111  -0.599  23.843  0.00  0.00    -0.199 N 
ATOM      2  H   UNL     1       5.318  -0.778  23.246  0.00  0.00    +0.175 HD
ENDROOT
BRANCH   1   3
ATOM      3  C   UNL     1       7.174  -1.489  23.820  0.00  0.00    +0.141 A 
ATOM      4  N   UNL     1       8.535  -1.283  23.550  0.00  0.00    -0.217 N 
ATOM      5  N   UNL     1       9.188  -2.481  23.516  0.00  0.00    -0.173 NA
ATOM      6  C   UNL     1       8.271  -3.399  23.808  0.00  0.00    +0.137 A 
ATOM      7  C   UNL     1       7.000  -2.844  23.996  0.00  0.00    +0.066 A 
BRANCH   4   8
ATOM      8  C   UNL     1       9.262  -0.086  23.280  0.00  0.00    +0.067 A 
ATOM      9  C   UNL     1       9.310   0.497  22.012  0.00  0.00    +0.028 A 
ATOM     10  C   UNL     1       9.972   1.711  21.805  0.00  0.00    +0.002 A 
ATOM     11  C   UNL     1      10.633   2.338  22.854  0.00  0.00    +0.000 A 
ATOM     12  C   UNL     1      10.633   1.751  24.116  0.00  0.00    +0.002 A 
ATOM     13  C   UNL     1       9.948   0.551  24.332  0.00  0.00    +0.028 A 
ENDBRANCH   4   8
ENDBRANCH   1   3
BRANCH   1  14
ATOM     14  S   UNL     1       5.940   0.546  24.995  0.00  0.00    +0.073 S 
ATOM     15  O   UNL     1       4.549   0.718  25.361  0.00  0.00    -0.150 OA
ATOM     16  O   UNL     1       6.941   0.348  26.021  0.00  0.00    -0.150 OA
BRANCH  14  20
ATOM     17  C   UNL     1       7.421   4.232  22.710  0.00  0.00    +0.025 A 
ATOM     18  C   UNL     1       6.629   3.275  22.068  0.00  0.00    +0.024 A 
ATOM     19  C   UNL     1       6.154   2.158  22.764  0.00  0.00    +0.030 A 
ATOM     20  C   UNL     1       6.431   2.027  24.128  0.00  0.00    +0.109 A 
ATOM     21  C   UNL     1       7.162   3.009  24.797  0.00  0.00    +0.030 A 
ATOM     22  C   UNL     1       7.630   4.119  24.088  0.00  0.00    +0.024 A 
BRANCH  17  23
ATOM     23  N   UNL     1       7.811   5.390  22.032  0.00  0.00    -0.358 N 
ATOM     24  H   UNL     1       7.281   6.220  22.281  0.00  0.00    +0.142 HD
ATOM     25  H   UNL     1       7.876   5.281  21.023  0.00  0.00    +0.142 HD
ENDBRANCH  17  23
ENDBRANCH  14  20
ENDBRANCH   1  14
TORSDOF 5
ENDMDL
MODEL 4
REMARK VINA RESULT:      -7.0      2.938      5.097
REMARK  Name = 
REMARK  5 active torsions:
REMARK  status: ('A' for Active; 'I' for Inactive)
REMARK    1  A    between atoms: N_1  and  C_2
REMARK    2  A    between atoms: C_5  and  S_8
REMARK    3  A    between atoms: S_8  and  N_11
REMARK    4  A    between atoms: N_11  and  C_12
REMARK    5  A    between atoms: N_16  and  C_17
REMARK                            x       y       z     vdW  Elec       q    Type
REMARK                         _______ _______ _______ _____ _____    ______ ____
ROOT
ATOM      1  N   UNL     1       7.779  -5.271  24.335  0.00  0.00    -0.199 N 
ATOM      2  H   UNL     1       8.785  -5.281  24.401  0.00  0.00    +0.175 HD
ENDROOT
BRANCH   1   3
ATOM      3  C   UNL     1       7.197  -5.099  23.088  0.00  0.00    +0.141 A 
ATOM      4  N   UNL     1       6.984  -3.939  22.330  0.00  0.00    -0.217 N 
ATOM      5  N   UNL     1       6.256  -4.239  21.214  0.00  0.00    -0.173 NA
ATOM      6  C   UNL     1       6.068  -5.555  21.252  0.00  0.00    +0.137 A 
ATOM      7  C   UNL     1       6.620  -6.142  22.397  0.00  0.00    +0.066 A 
BRANCH   4   8
ATOM      8  C   UNL     1       7.357  -2.583  22.573  0.00  0.00    +0.067 A 
ATOM      9  C   UNL     1       6.442  -1.613  22.985  0.00  0.00    +0.028 A 
ATOM     10  C   UNL     1       6.861  -0.313  23.285  0.00  0.00    +0.002 A 
ATOM     11  C   UNL     1       8.195   0.047  23.135  0.00  0.00    +0.000 A 
ATOM     12  C   UNL     1       9.114  -0.894  22.683  0.00  0.00    +0.002 A 
ATOM     13  C   UNL     1       8.703  -2.202  22.410  0.00  0.00    +0.028 A 
ENDBRANCH   4   8
ENDBRANCH   1   3
BRANCH   1  14
ATOM     14  S   UNL     1       6.936  -5.155  25.729  0.00  0.00    +0.073 S 
ATOM     15  O   UNL     1       5.512  -5.265  25.491  0.00  0.00    -0.150 OA
ATOM     16  O   UNL     1       7.569  -5.973  26.741  0.00  0.00    -0.150 OA
BRANCH  14  20
ATOM     17  C   UNL     1       7.696  -0.749  26.737  0.00  0.00    +0.025 A 
ATOM     18  C   UNL     1       6.422  -1.300  26.898  0.00  0.00    +0.024 A 
ATOM     19  C   UNL     1       6.186  -2.650  26.614  0.00  0.00    +0.030 A 
ATOM     20  C   UNL     1       7.248  -3.467  26.216  0.00  0.00    +0.109 A 
ATOM     21  C   UNL     1       8.539  -2.945  26.117  0.00  0.00    +0.030 A 
ATOM     22  C   UNL     1       8.758  -1.595  26.404  0.00  0.00    +0.024 A 
BRANCH  17  23
ATOM     23  N   UNL     1       7.941   0.574  27.112  0.00  0.00    -0.358 N 
ATOM     24  H   UNL     1       7.878   0.745  28.112  0.00  0.00    +0.142 HD
ATOM     25  H   UNL     1       7.411   1.263  26.585  0.00  0.00    +0.142 HD
ENDBRANCH  17  23
ENDBRANCH  14  20
ENDBRANCH   1  14
TORSDOF 5
ENDMDL
MODEL 5
REMARK VINA RESULT:      -6.9      1.946      3.448
REMARK  Name = 
REMARK  5 active torsions:
REMARK  status: ('A' for Active; 'I' for Inactive)
REMARK    1  A    between atoms: N_1  and  C_2
REMARK    2  A    between atoms: C_5  and  S_8
REMARK    3  A    between atoms: S_8  and  N_11
REMARK    4  A    between atoms: N_11  and  C_12
REMARK    5  A    between atoms: N_16  and  C_17
REMARK                            x       y       z     vdW  Elec       q    Type
REMARK                         _______ _______ _______ _____ _____    ______ ____
ROOT
ATOM      1  N   UNL     1       7.300  -2.825  24.016  0.00  0.00    -0.199 N 
ATOM      2  H   UNL     1       6.572  -2.187  24.299  0.00  0.00    +0.175 HD
ENDROOT
BRANCH   1   3
ATOM      3  C   UNL     1       6.942  -3.986  23.348  0.00  0.00    +0.141 A 
ATOM      4  N   UNL     1       6.463  -5.211  23.833  0.00  0.00    -0.217 N 
ATOM      5  N   UNL     1       6.368  -6.111  22.811  0.00  0.00    -0.173 NA
ATOM      6  C   UNL     1       6.728  -5.450  21.716  0.00  0.00    +0.137 A 
ATOM      7  C   UNL     1       7.106  -4.129  21.987  0.00  0.00    +0.066 A 
BRANCH   4   8
ATOM      8  C   UNL     1       6.130  -5.624  25.158  0.00  0.00    +0.067 A 
ATOM      9  C   UNL     1       6.915  -5.302  26.267  0.00  0.00    +0.028 A 
ATOM     10  C   UNL     1       6.515  -5.662  27.557  0.00  0.00    +0.002 A 
ATOM     11  C   UNL     1       5.347  -6.388  27.753  0.00  0.00    +0.000 A 
ATOM     12  C   UNL     1       4.573  -6.756  26.657  0.00  0.00    +0.002 A 
ATOM     13  C   UNL     1       4.956  -6.373  25.368  0.00  0.00    +0.028 A 
ENDBRANCH   4   8
ENDBRANCH   1   3
BRANCH   1  14
ATOM     14  S   UNL     1       8.792  -2.583  24.634  0.00  0.00    +0.073 S 
ATOM     15  O   UNL     1       8.726  -2.214  26.034  0.00  0.00    -0.150 OA
ATOM     16  O   UNL     1       9.668  -3.652  24.206  0.00  0.00    -0.150 OA
BRANCH  14  20
ATOM     17  C   UNL     1       9.949   1.227  22.365  0.00  0.00    +0.025 A 
ATOM     18  C   UNL     1      10.104   1.158  23.752  0.00  0.00    +0.024 A 
ATOM     19  C   UNL     1       9.774  -0.009  24.451  0.00  0.00    +0.030 A 
ATOM     20  C   UNL     1       9.336  -1.134  23.745  0.00  0.00    +0.109 A 
ATOM     21  C   UNL     1       9.242  -1.101  22.354  0.00  0.00    +0.030 A 
ATOM     22  C   UNL     1       9.575   0.072  21.670  0.00  0.00    +0.024 A 
BRANCH  17  23
ATOM     23  N   UNL     1      10.369   2.362  21.667  0.00  0.00    -0.358 N 
ATOM     24  H   UNL     1      11.179   2.212  21.072  0.00  0.00    +0.142 HD
ATOM     25  H   UNL     1      10.483   3.190  22.247  0.00  0.00    +0.142 HD
ENDBRANCH  17  23
ENDBRANCH  14  20
ENDBRANCH   1  14
TORSDOF 5
ENDMDL
MODEL 6
REMARK VINA RESULT:      -6.9      2.423      6.111
REMARK  Name = 
REMARK  5 active torsions:
REMARK  status: ('A' for Active; 'I' for Inactive)
REMARK    1  A    between atoms: N_1  and  C_2
REMARK    2  A    between atoms: C_5  and  S_8
REMARK    3  A    between atoms: S_8  and  N_11
REMARK    4  A    between atoms: N_11  and  C_12
REMARK    5  A    between atoms: N_16  and  C_17
REMARK                            x       y       z     vdW  Elec       q    Type
REMARK                         _______ _______ _______ _____ _____    ______ ____
ROOT
ATOM      1  N   UNL     1       7.183  -1.789  25.747  0.00  0.00    -0.199 N 
ATOM      2  H   UNL     1       7.266  -1.294  26.622  0.00  0.00    +0.175 HD
ENDROOT
BRANCH   1   3
ATOM      3  C   UNL     1       8.238  -2.588  25.333  0.00  0.00    +0.141 A 
ATOM      4  N   UNL     1       9.256  -2.348  24.398  0.00  0.00    -0.217 N 
ATOM      5  N   UNL     1      10.003  -3.478  24.224  0.00  0.00    -0.173 NA
ATOM      6  C   UNL     1       9.496  -4.376  25.064  0.00  0.00    +0.137 A 
ATOM      7  C   UNL     1       8.393  -3.885  25.772  0.00  0.00    +0.066 A 
BRANCH   4   8
ATOM      8  C   UNL     1       9.563  -1.186  23.630  0.00  0.00    +0.067 A 
ATOM      9  C   UNL     1       9.405  -1.136  22.244  0.00  0.00    +0.028 A 
ATOM     10  C   UNL     1       9.645   0.046  21.536  0.00  0.00    +0.002 A 
ATOM     11  C   UNL     1      10.089   1.183  22.200  0.00  0.00    +0.000 A 
ATOM     12  C   UNL     1      10.295   1.141  23.575  0.00  0.00    +0.002 A 
ATOM     13  C   UNL     1      10.028  -0.031  24.289  0.00  0.00    +0.028 A 
ENDBRANCH   4   8
ENDBRANCH   1   3
BRANCH   1  14
ATOM     14  S   UNL     1       5.952  -1.368  24.761  0.00  0.00    +0.073 S 
ATOM     15  O   UNL     1       4.721  -1.193  25.505  0.00  0.00    -0.150 OA
ATOM     16  O   UNL     1       6.399  -0.339  23.847  0.00  0.00    -0.150 OA
BRANCH  14  20
ATOM     17  C   UNL     1       5.658  -5.215  22.290  0.00  0.00    +0.025 A 
ATOM     18  C   UNL     1       5.110  -5.158  23.574  0.00  0.00    +0.024 A 
ATOM     19  C   UNL     1       5.176  -3.981  24.327  0.00  0.00    +0.030 A 
ATOM     20  C   UNL     1       5.748  -2.835  23.767  0.00  0.00    +0.109 A 
ATOM     21  C   UNL     1       6.237  -2.859  22.460  0.00  0.00    +0.030 A 
ATOM     22  C   UNL     1       6.164  -4.043  21.721  0.00  0.00    +0.024 A 
BRANCH  17  23
ATOM     23  N   UNL     1       5.504  -6.366  21.511  0.00  0.00    -0.358 N 
ATOM     24  H   UNL     1       5.949  -7.195  21.896  0.00  0.00    +0.142 HD
ATOM     25  H   UNL     1       5.740  -6.240  20.530  0.00  0.00    +0.142 HD
ENDBRANCH  17  23
ENDBRANCH  14  20
ENDBRANCH   1  14
TORSDOF 5
ENDMDL
MODEL 7
REMARK VINA RESULT:      -6.9      2.854      6.274
REMARK  Name = 
REMARK  5 active torsions:
REMARK  status: ('A' for Active; 'I' for Inactive)
REMARK    1  A    between atoms: N_1  and  C_2
REMARK    2  A    between atoms: C_5  and  S_8
REMARK    3  A    between atoms: S_8  and  N_11
REMARK    4  A    between atoms: N_11  and  C_12
REMARK    5  A    between atoms: N_16  and  C_17
REMARK                            x       y       z     vdW  Elec       q    Type
REMARK                         _______ _______ _______ _____ _____    ______ ____
ROOT
ATOM      1  N   UNL     1       6.935  -2.945  22.106  0.00  0.00    -0.199 N 
ATOM      2  H   UNL     1       6.386  -2.226  21.660  0.00  0.00    +0.175 HD
ENDROOT
BRANCH   1   3
ATOM      3  C   UNL     1       8.149  -2.595  22.679  0.00  0.00    +0.141 A 
ATOM      4  N   UNL     1       8.625  -2.760  23.987  0.00  0.00    -0.217 N 
ATOM      5  N   UNL     1       9.835  -2.143  24.123  0.00  0.00    -0.173 NA
ATOM      6  C   UNL     1      10.125  -1.654  22.921  0.00  0.00    +0.137 A 
ATOM      7  C   UNL     1       9.112  -1.894  21.986  0.00  0.00    +0.066 A 
BRANCH   4   8
ATOM      8  C   UNL     1       8.038  -3.398  25.120  0.00  0.00    +0.067 A 
ATOM      9  C   UNL     1       7.068  -2.781  25.913  0.00  0.00    +0.028 A 
ATOM     10  C   UNL     1       6.463  -3.468  26.970  0.00  0.00    +0.002 A 
ATOM     11  C   UNL     1       6.851  -4.766  27.277  0.00  0.00    +0.000 A 
ATOM     12  C   UNL     1       7.846  -5.383  26.526  0.00  0.00    +0.002 A 
ATOM     13  C   UNL     1       8.433  -4.709  25.451  0.00  0.00    +0.028 A 
ENDBRANCH   4   8
ENDBRANCH   1   3
BRANCH   1  14
ATOM     14  S   UNL     1       6.493  -4.495  21.847  0.00  0.00    +0.073 S 
ATOM     15  O   UNL     1       5.703  -4.621  20.639  0.00  0.00    -0.150 OA
ATOM     16  O   UNL     1       7.631  -5.362  22.063  0.00  0.00    -0.150 OA
BRANCH  14  20
ATOM     17  C   UNL     1       3.487  -5.369  25.194  0.00  0.00    +0.025 A 
ATOM     18  C   UNL     1       4.425  -6.335  24.818  0.00  0.00    +0.024 A 
ATOM     19  C   UNL     1       5.361  -6.069  23.813  0.00  0.00    +0.030 A 
ATOM     20  C   UNL     1       5.391  -4.805  23.216  0.00  0.00    +0.109 A 
ATOM     21  C   UNL     1       4.504  -3.809  23.629  0.00  0.00    +0.030 A 
ATOM     22  C   UNL     1       3.575  -4.091  24.635  0.00  0.00    +0.024 A 
BRANCH  17  23
ATOM     23  N   UNL     1       2.619  -5.612  26.262  0.00  0.00    -0.358 N 
ATOM     24  H   UNL     1       3.010  -5.401  27.176  0.00  0.00    +0.142 HD
ATOM     25  H   UNL     1       2.185  -6.531  26.247  0.00  0.00    +0.142 HD
ENDBRANCH  17  23
ENDBRANCH  14  20
ENDBRANCH   1  14
TORSDOF 5
ENDMDL
MODEL 8
REMARK VINA RESULT:      -6.9      3.850      5.195
REMARK  Name = 
REMARK  5 active torsions:
REMARK  status: ('A' for Active; 'I' for Inactive)
REMARK    1  A    between atoms: N_1  and  C_2
REMARK    2  A    between atoms: C_5  and  S_8
REMARK    3  A    between atoms: S_8  and  N_11
REMARK    4  A    between atoms: N_11  and  C_12
REMARK    5  A    between atoms: N_16  and  C_17
REMARK                            x       y       z     vdW  Elec       q    Type
REMARK                         _______ _______ _______ _____ _____    ______ ____
ROOT
ATOM      1  N   UNL     1       5.682  -6.449  26.390  0.00  0.00    -0.199 N 
ATOM      2  H   UNL     1       6.457  -7.095  26.397  0.00  0.00    +0.175 HD
ENDROOT
BRANCH   1   3
ATOM      3  C   UNL     1       4.621  -6.696  25.532  0.00  0.00    +0.141 A 
ATOM      4  N   UNL     1       4.350  -6.205  24.247  0.00  0.00    -0.217 N 
ATOM      5  N   UNL     1       3.117  -6.627  23.838  0.00  0.00    -0.173 NA
ATOM      6  C   UNL     1       2.659  -7.398  24.819  0.00  0.00    +0.137 A 
ATOM      7  C   UNL     1       3.543  -7.470  25.902  0.00  0.00    +0.066 A 
BRANCH   4   8
ATOM      8  C   UNL     1       5.112  -5.353  23.393  0.00  0.00    +0.067 A 
ATOM      9  C   UNL     1       4.829  -3.994  23.239  0.00  0.00    +0.028 A 
ATOM     10  C   UNL     1       5.646  -3.177  22.451  0.00  0.00    +0.002 A 
ATOM     11  C   UNL     1       6.731  -3.715  21.772  0.00  0.00    +0.000 A 
ATOM     12  C   UNL     1       7.004  -5.075  21.878  0.00  0.00    +0.002 A 
ATOM     13  C   UNL     1       6.207  -5.890  22.687  0.00  0.00    +0.028 A 
ENDBRANCH   4   8
ENDBRANCH   1   3
BRANCH   1  14
ATOM     14  S   UNL     1       5.885  -5.025  27.161  0.00  0.00    +0.073 S 
ATOM     15  O   UNL     1       4.716  -4.181  27.022  0.00  0.00    -0.150 OA
ATOM     16  O   UNL     1       6.455  -5.264  28.470  0.00  0.00    -0.150 OA
BRANCH  14  20
ATOM     17  C   UNL     1       9.088  -3.114  24.498  0.00  0.00    +0.025 A 
ATOM     18  C   UNL     1       8.100  -2.323  25.091  0.00  0.00    +0.024 A 
ATOM     19  C   UNL     1       7.131  -2.895  25.923  0.00  0.00    +0.030 A 
ATOM     20  C   UNL     1       7.186  -4.263  26.206  0.00  0.00    +0.109 A 
ATOM     21  C   UNL     1       8.207  -5.052  25.676  0.00  0.00    +0.030 A 
ATOM     22  C   UNL     1       9.167  -4.466  24.845  0.00  0.00    +0.024 A 
BRANCH  17  23
ATOM     23  N   UNL     1      10.104  -2.520  23.745  0.00  0.00    -0.358 N 
ATOM     24  H   UNL     1       9.881  -1.591  23.398  0.00  0.00    +0.142 HD
ATOM     25  H   UNL     1      10.477  -3.112  23.007  0.00  0.00    +0.142 HD
ENDBRANCH  17  23
ENDBRANCH  14  20
ENDBRANCH   1  14
TORSDOF 5
ENDMDL
MODEL 9
REMARK VINA RESULT:      -6.7      2.624      5.078
REMARK  Name = 
REMARK  5 active torsions:
REMARK  status: ('A' for Active; 'I' for Inactive)
REMARK    1  A    between atoms: N_1  and  C_2
REMARK    2  A    between atoms: C_5  and  S_8
REMARK    3  A    between atoms: S_8  and  N_11
REMARK    4  A    between atoms: N_11  and  C_12
REMARK    5  A    between atoms: N_16  and  C_17
REMARK                            x       y       z     vdW  Elec       q    Type
REMARK                         _______ _______ _______ _____ _____    ______ ____
ROOT
ATOM      1  N   UNL     1       6.412  -0.393  23.459  0.00  0.00    -0.199 N 
ATOM      2  H   UNL     1       5.536  -0.450  22.963  0.00  0.00    +0.175 HD
ENDROOT
BRANCH   1   3
ATOM      3  C   UNL     1       7.574  -0.761  22.797  0.00  0.00    +0.141 A 
ATOM      4  N   UNL     1       8.020  -2.016  22.359  0.00  0.00    -0.217 N 
ATOM      5  N   UNL     1       9.290  -1.914  21.868  0.00  0.00    -0.173 NA
ATOM      6  C   UNL     1       9.603  -0.624  21.951  0.00  0.00    +0.137 A 
ATOM      7  C   UNL     1       8.583   0.139  22.530  0.00  0.00    +0.066 A 
BRANCH   4   8
ATOM      8  C   UNL     1       7.390  -3.296  22.397  0.00  0.00    +0.067 A 
ATOM      9  C   UNL     1       6.109  -3.520  21.890  0.00  0.00    +0.028 A 
ATOM     10  C   UNL     1       5.556  -4.804  21.878  0.00  0.00    +0.002 A 
ATOM     11  C   UNL     1       6.260  -5.876  22.413  0.00  0.00    +0.000 A 
ATOM     12  C   UNL     1       7.520  -5.666  22.963  0.00  0.00    +0.002 A 
ATOM     13  C   UNL     1       8.087  -4.388  22.951  0.00  0.00    +0.028 A 
ENDBRANCH   4   8
ENDBRANCH   1   3
BRANCH   1  14
ATOM     14  S   UNL     1       6.347  -0.168  25.074  0.00  0.00    +0.073 S 
ATOM     15  O   UNL     1       7.375   0.751  25.518  0.00  0.00    -0.150 OA
ATOM     16  O   UNL     1       4.971   0.035  25.475  0.00  0.00    -0.150 OA
BRANCH  14  20
ATOM     17  C   UNL     1       7.550  -4.375  26.434  0.00  0.00    +0.025 A 
ATOM     18  C   UNL     1       8.479  -3.331  26.464  0.00  0.00    +0.024 A 
ATOM     19  C   UNL     1       8.114  -2.039  26.072  0.00  0.00    +0.030 A 
ATOM     20  C   UNL     1       6.792  -1.779  25.697  0.00  0.00    +0.109 A 
ATOM     21  C   UNL     1       5.838  -2.797  25.728  0.00  0.00    +0.030 A 
ATOM     22  C   UNL     1       6.218  -4.083  26.122  0.00  0.00    +0.024 A 
BRANCH  17  23
ATOM     23  N   UNL     1       7.898  -5.640  26.916  0.00  0.00    -0.358 N 
ATOM     24  H   UNL     1       8.527  -6.160  26.310  0.00  0.00    +0.142 HD
ATOM     25  H   UNL     1       7.107  -6.209  27.206  0.00  0.00    +0.142 HD
ENDBRANCH  17  23
ENDBRANCH  14  20
ENDBRANCH   1  14
TORSDOF 5
ENDMDL
