MODEL 1
REMARK VINA RESULT:      -5.8      0.000      0.000
REMARK  Name = 
REMARK  10 active torsions:
REMARK  status: ('A' for Active; 'I' for Inactive)
REMARK    1  A    between atoms: C_1  and  N_2
REMARK    2  A    between atoms: N_2  and  C_3
REMARK    3  A    between atoms: N_2  and  C_4
REMARK    4  A    between atoms: C_4  and  C_5
REMARK    5  A    between atoms: C_5  and  O_6
REMARK    6  A    between atoms: O_6  and  C_7
REMARK    7  A    between atoms: C_7  and  C_9
REMARK    8  A    between atoms: C_9  and  C_10
REMARK    9  A    between atoms: C_9  and  C_16
REMARK   10  A    between atoms: C_16  and  O_17
REMARK                            x       y       z     vdW  Elec       q    Type
REMARK                         _______ _______ _______ _____ _____    ______ ____
ROOT
ATOM      1  C   UNL     1       8.084  -3.764  24.610  0.00  0.00    +0.159 C 
ENDROOT
BRANCH   1   2
ATOM      2  C   UNL     1       7.351  -4.343  23.401  0.00  0.00    -0.031 A 
ATOM      3  C   UNL     1       6.380  -3.558  22.748  0.00  0.00    +0.004 A 
ATOM      4  C   UNL     1       5.740  -4.022  21.600  0.00  0.00    +0.000 A 
ATOM      5  C   UNL     1       6.058  -5.276  21.087  0.00  0.00    +0.000 A 
ATOM      6  C   UNL     1       6.996  -6.074  21.738  0.00  0.00    +0.000 A 
ATOM      7  C   UNL     1       7.633  -5.620  22.897  0.00  0.00    +0.004 A 
ENDBRANCH   1   2
BRANCH   1   8
ATOM      8  C   UNL     1       7.437  -4.097  25.980  0.00  0.00    +0.083 C 
ATOM      9  C   UNL     1       6.846  -5.524  26.029  0.00  0.00    +0.036 C 
ATOM     10  C   UNL     1       5.575  -5.439  26.873  0.00  0.00    +0.003 C 
ATOM     11  C   UNL     1       5.529  -4.028  27.441  0.00  0.00    +0.003 C 
ATOM     12  C   UNL     1       6.298  -3.179  26.435  0.00  0.00    +0.036 C 
BRANCH   8  13
ATOM     13  O   UNL     1       8.454  -4.084  27.008  0.00  0.00    -0.387 OA
ATOM     14  H   UNL     1       8.221  -4.766  27.663  0.00  0.00    +0.210 HD
ENDBRANCH   8  13
ENDBRANCH   1   8
BRANCH   1  15
ATOM     15  C   UNL     1       9.593  -4.010  24.574  0.00  0.00    +0.317 C 
ATOM     16  O   UNL     1      10.201  -4.917  25.130  0.00  0.00    -0.250 OA
BRANCH  15  17
ATOM     17  O   UNL     1      10.216  -2.971  23.942  0.00  0.00    -0.463 OA
BRANCH  17  18
ATOM     18  C   UNL     1       9.642  -1.697  24.262  0.00  0.00    +0.247 C 
BRANCH  18  19
ATOM     19  C   UNL     1       9.478  -0.782  23.042  0.00  0.00    +0.125 C 
BRANCH  19  21
ATOM     20  C   UNL     1       9.974   1.436  22.211  0.00  0.00    +0.104 C 
ATOM     21  N   UNL     1      10.458   0.325  23.033  0.00  0.00    -0.305 NA
ATOM     22  C   UNL     1      10.773   0.808  24.379  0.00  0.00    +0.104 C 
ENDBRANCH  19  21
ENDBRANCH  18  19
ENDBRANCH  17  18
ENDBRANCH  15  17
ENDBRANCH   1  15
TORSDOF 8
ENDMDL
MODEL 2
REMARK VINA RESULT:      -5.7      1.132      1.449
REMARK  Name = 
REMARK  10 active torsions:
REMARK  status: ('A' for Active; 'I' for Inactive)
REMARK    1  A    between atoms: C_1  and  N_2
REMARK    2  A    between atoms: N_2  and  C_3
REMARK    3  A    between atoms: N_2  and  C_4
REMARK    4  A    between atoms: C_4  and  C_5
REMARK    5  A    between atoms: C_5  and  O_6
REMARK    6  A    between atoms: O_6  and  C_7
REMARK    7  A    between atoms: C_7  and  C_9
REMARK    8  A    between atoms: C_9  and  C_10
REMARK    9  A    between atoms: C_9  and  C_16
REMARK   10  A    between atoms: C_16  and  O_17
REMARK                            x       y       z     vdW  Elec       q    Type
REMARK                         _______ _______ _______ _____ _____    ______ ____
ROOT
ATOM      1  C   UNL     1       7.882  -2.869  24.363  0.00  0.00    +0.159 C 
ENDROOT
BRANCH   1   2
ATOM      2  C   UNL     1       7.331  -3.816  23.299  0.00  0.00    -0.031 A 
ATOM      3  C   UNL     1       6.438  -3.315  22.331  0.00  0.00    +0.004 A 
ATOM      4  C   UNL     1       5.968  -4.129  21.302  0.00  0.00    +0.000 A 
ATOM      5  C   UNL     1       6.379  -5.457  21.224  0.00  0.00    +0.000 A 
ATOM      6  C   UNL     1       7.240  -5.974  22.189  0.00  0.00    +0.000 A 
ATOM      7  C   UNL     1       7.706  -5.165  23.231  0.00  0.00    +0.004 A 
ENDBRANCH   1   2
BRANCH   1   8
ATOM      8  C   UNL     1       7.543  -3.267  25.822  0.00  0.00    +0.083 C 
ATOM      9  C   UNL     1       8.360  -4.484  26.313  0.00  0.00    +0.036 C 
ATOM     10  C   UNL     1       7.429  -5.299  27.211  0.00  0.00    +0.003 C 
ATOM     11  C   UNL     1       6.159  -4.477  27.371  0.00  0.00    +0.003 C 
ATOM     12  C   UNL     1       6.082  -3.629  26.108  0.00  0.00    +0.036 C 
BRANCH   8  13
ATOM     13  O   UNL     1       7.915  -2.191  26.714  0.00  0.00    -0.387 OA
ATOM     14  H   UNL     1       8.775  -2.418  27.110  0.00  0.00    +0.210 HD
ENDBRANCH   8  13
ENDBRANCH   1   8
BRANCH   1  15
ATOM     15  C   UNL     1       9.356  -2.521  24.153  0.00  0.00    +0.317 C 
ATOM     16  O   UNL     1      10.275  -3.309  23.964  0.00  0.00    -0.250 OA
BRANCH  15  17
ATOM     17  O   UNL     1       9.550  -1.184  24.357  0.00  0.00    -0.463 OA
BRANCH  17  18
ATOM     18  C   UNL     1      10.260  -0.553  23.284  0.00  0.00    +0.247 C 
BRANCH  18  19
ATOM     19  C   UNL     1       9.441  -0.452  21.991  0.00  0.00    +0.125 C 
BRANCH  19  21
ATOM     20  C   UNL     1       7.846   1.366  21.903  0.00  0.00    +0.104 C 
ATOM     21  N   UNL     1       9.211   0.949  21.577  0.00  0.00    -0.305 NA
ATOM     22  C   UNL     1      10.169   1.877  22.181  0.00  0.00    +0.104 C 
ENDBRANCH  19  21
ENDBRANCH  18  19
ENDBRANCH  17  18
ENDBRANCH  15  17
ENDBRANCH   1  15
TORSDOF 8
ENDMDL
MODEL 3
REMARK VINA RESULT:      -5.6      2.565      6.103
REMARK  Name = 
REMARK  10 active torsions:
REMARK  status: ('A' for Active; 'I' for Inactive)
REMARK    1  A    between atoms: C_1  and  N_2
REMARK    2  A    between atoms: N_2  and  C_3
REMARK    3  A    between atoms: N_2  and  C_4
REMARK    4  A    between atoms: C_4  and  C_5
REMARK    5  A    between atoms: C_5  and  O_6
REMARK    6  A    between atoms: O_6  and  C_7
REMARK    7  A    between atoms: C_7  and  C_9
REMARK    8  A    between atoms: C_9  and  C_10
REMARK    9  A    between atoms: C_9  and  C_16
REMARK   10  A    between atoms: C_16  and  O_17
REMARK                            x       y       z     vdW  Elec       q    Type
REMARK                         _______ _______ _______ _____ _____    ______ ____
ROOT
ATOM      1  C   UNL     1       8.275  -1.683  23.212  0.00  0.00    +0.159 C 
ENDROOT
BRANCH   1   2
ATOM      2  C   UNL     1       7.397  -1.101  24.317  0.00  0.00    -0.031 A 
ATOM      3  C   UNL     1       7.577  -1.546  25.642  0.00  0.00    +0.004 A 
ATOM      4  C   UNL     1       6.845  -0.990  26.689  0.00  0.00    +0.000 A 
ATOM      5  C   UNL     1       5.920   0.018  26.431  0.00  0.00    +0.000 A 
ATOM      6  C   UNL     1       5.712   0.450  25.123  0.00  0.00    +0.000 A 
ATOM      7  C   UNL     1       6.434  -0.113  24.066  0.00  0.00    +0.004 A 
ENDBRANCH   1   2
BRANCH   1   8
ATOM      8  C   UNL     1       9.385  -0.730  22.697  0.00  0.00    +0.083 C 
ATOM      9  C   UNL     1      10.162  -0.046  23.844  0.00  0.00    +0.036 C 
ATOM     10  C   UNL     1      10.482   1.371  23.367  0.00  0.00    +0.003 C 
ATOM     11  C   UNL     1      10.049   1.443  21.911  0.00  0.00    +0.003 C 
ATOM     12  C   UNL     1       8.930   0.415  21.786  0.00  0.00    +0.036 C 
BRANCH   8  13
ATOM     13  O   UNL     1      10.382  -1.495  21.982  0.00  0.00    -0.387 OA
ATOM     14  H   UNL     1      11.180  -1.535  22.539  0.00  0.00    +0.210 HD
ENDBRANCH   8  13
ENDBRANCH   1   8
BRANCH   1  15
ATOM     15  C   UNL     1       8.780  -3.092  23.523  0.00  0.00    +0.317 C 
ATOM     16  O   UNL     1       9.861  -3.391  24.017  0.00  0.00    -0.250 OA
BRANCH  15  17
ATOM     17  O   UNL     1       7.904  -4.017  23.030  0.00  0.00    -0.463 OA
BRANCH  17  18
ATOM     18  C   UNL     1       7.807  -5.189  23.850  0.00  0.00    +0.247 C 
BRANCH  18  19
ATOM     19  C   UNL     1       6.686  -5.109  24.893  0.00  0.00    +0.125 C 
BRANCH  19  21
ATOM     20  C   UNL     1       8.209  -5.004  26.771  0.00  0.00    +0.104 C 
ATOM     21  N   UNL     1       7.074  -5.718  26.184  0.00  0.00    -0.305 NA
ATOM     22  C   UNL     1       5.967  -5.756  27.142  0.00  0.00    +0.104 C 
ENDBRANCH  19  21
ENDBRANCH  18  19
ENDBRANCH  17  18
ENDBRANCH  15  17
ENDBRANCH   1  15
TORSDOF 8
ENDMDL
MODEL 4
REMARK VINA RESULT:      -5.6      2.721      6.303
REMARK  Name = 
REMARK  10 active torsions:
REMARK  status: ('A' for Active; 'I' for Inactive)
REMARK    1  A    between atoms: C_1  and  N_2
REMARK    2  A    between atoms: N_2  and  C_3
REMARK    3  A    between atoms: N_2  and  C_4
REMARK    4  A    between atoms: C_4  and  C_5
REMARK    5  A    between atoms: C_5  and  O_6
REMARK    6  A    between atoms: O_6  and  C_7
REMARK    7  A    between atoms: C_7  and  C_9
REMARK    8  A    between atoms: C_9  and  C_10
REMARK    9  A    between atoms: C_9  and  C_16
REMARK   10  A    between atoms: C_16  and  O_17
REMARK                            x       y       z     vdW  Elec       q    Type
REMARK                         _______ _______ _______ _____ _____    ______ ____
ROOT
ATOM      1  C   UNL     1       8.443  -1.422  23.508  0.00  0.00    +0.159 C 
ENDROOT
BRANCH   1   2
ATOM      2  C   UNL     1       7.813  -0.845  24.774  0.00  0.00    -0.031 A 
ATOM      3  C   UNL     1       8.448  -1.057  26.014  0.00  0.00    +0.004 A 
ATOM      4  C   UNL     1       7.944  -0.488  27.182  0.00  0.00    +0.000 A 
ATOM      5  C   UNL     1       6.797   0.299  27.131  0.00  0.00    +0.000 A 
ATOM      6  C   UNL     1       6.143   0.495  25.918  0.00  0.00    +0.000 A 
ATOM      7  C   UNL     1       6.637  -0.082  24.743  0.00  0.00    +0.004 A 
ENDBRANCH   1   2
BRANCH   1   8
ATOM      8  C   UNL     1       9.410  -0.461  22.769  0.00  0.00    +0.083 C 
ATOM      9  C   UNL     1      10.381   0.262  23.729  0.00  0.00    +0.036 C 
ATOM     10  C   UNL     1      10.570   1.674  23.174  0.00  0.00    +0.003 C 
ATOM     11  C   UNL     1       9.859   1.707  21.830  0.00  0.00    +0.003 C 
ATOM     12  C   UNL     1       8.760   0.656  21.945  0.00  0.00    +0.036 C 
BRANCH   8  13
ATOM     13  O   UNL     1      10.264  -1.222  21.885  0.00  0.00    -0.387 OA
ATOM     14  H   UNL     1      11.183  -1.100  22.184  0.00  0.00    +0.210 HD
ENDBRANCH   8  13
ENDBRANCH   1   8
BRANCH   1  15
ATOM     15  C   UNL     1       9.016  -2.826  23.707  0.00  0.00    +0.317 C 
ATOM     16  O   UNL     1      10.192  -3.118  23.890  0.00  0.00    -0.250 OA
BRANCH  15  17
ATOM     17  O   UNL     1       8.039  -3.758  23.502  0.00  0.00    -0.463 OA
BRANCH  17  18
ATOM     18  C   UNL     1       7.342  -3.575  22.263  0.00  0.00    +0.247 C 
BRANCH  18  19
ATOM     19  C   UNL     1       5.818  -3.662  22.405  0.00  0.00    +0.125 C 
BRANCH  19  21
ATOM     20  C   UNL     1       6.238  -5.631  21.062  0.00  0.00    +0.104 C 
ATOM     21  N   UNL     1       5.282  -4.962  21.946  0.00  0.00    -0.305 NA
ATOM     22  C   UNL     1       4.933  -5.849  23.057  0.00  0.00    +0.104 C 
ENDBRANCH  19  21
ENDBRANCH  18  19
ENDBRANCH  17  18
ENDBRANCH  15  17
ENDBRANCH   1  15
TORSDOF 8
ENDMDL
MODEL 5
REMARK VINA RESULT:      -5.4      2.597      5.545
REMARK  Name = 
REMARK  10 active torsions:
REMARK  status: ('A' for Active; 'I' for Inactive)
REMARK    1  A    between atoms: C_1  and  N_2
REMARK    2  A    between atoms: N_2  and  C_3
REMARK    3  A    between atoms: N_2  and  C_4
REMARK    4  A    between atoms: C_4  and  C_5
REMARK    5  A    between atoms: C_5  and  O_6
REMARK    6  A    between atoms: O_6  and  C_7
REMARK    7  A    between atoms: C_7  and  C_9
REMARK    8  A    between atoms: C_9  and  C_10
REMARK    9  A    between atoms: C_9  and  C_16
REMARK   10  A    between atoms: C_16  and  O_17
REMARK                            x       y       z     vdW  Elec       q    Type
REMARK                         _______ _______ _______ _____ _____    ______ ____
ROOT
ATOM      1  C   UNL     1       8.092  -3.036  24.577  0.00  0.00    +0.159 C 
ENDROOT
BRANCH   1   2
ATOM      2  C   UNL     1       7.189  -3.969  23.772  0.00  0.00    -0.031 A 
ATOM      3  C   UNL     1       5.837  -3.619  23.582  0.00  0.00    +0.004 A 
ATOM      4  C   UNL     1       4.998  -4.406  22.796  0.00  0.00    +0.000 A 
ATOM      5  C   UNL     1       5.494  -5.556  22.188  0.00  0.00    +0.000 A 
ATOM      6  C   UNL     1       6.821  -5.929  22.388  0.00  0.00    +0.000 A 
ATOM      7  C   UNL     1       7.665  -5.150  23.186  0.00  0.00    +0.004 A 
ENDBRANCH   1   2
BRANCH   1   8
ATOM      8  C   UNL     1       8.515  -1.743  23.834  0.00  0.00    +0.083 C 
ATOM      9  C   UNL     1       8.690  -1.959  22.313  0.00  0.00    +0.036 C 
ATOM     10  C   UNL     1       9.867  -1.083  21.883  0.00  0.00    +0.003 C 
ATOM     11  C   UNL     1      10.250  -0.250  23.097  0.00  0.00    +0.003 C 
ATOM     12  C   UNL     1       9.821  -1.089  24.295  0.00  0.00    +0.036 C 
BRANCH   8  13
ATOM     13  O   UNL     1       7.463  -0.757  23.946  0.00  0.00    -0.387 OA
ATOM     14  H   UNL     1       7.006  -0.907  24.793  0.00  0.00    +0.210 HD
ENDBRANCH   8  13
ENDBRANCH   1   8
BRANCH   1  15
ATOM     15  C   UNL     1       7.583  -2.783  25.997  0.00  0.00    +0.317 C 
ATOM     16  O   UNL     1       7.210  -1.713  26.461  0.00  0.00    -0.250 OA
BRANCH  15  17
ATOM     17  O   UNL     1       7.741  -3.910  26.753  0.00  0.00    -0.463 OA
BRANCH  17  18
ATOM     18  C   UNL     1       6.518  -4.356  27.352  0.00  0.00    +0.247 C 
BRANCH  18  19
ATOM     19  C   UNL     1       6.623  -5.750  27.983  0.00  0.00    +0.125 C 
BRANCH  19  21
ATOM     20  C   UNL     1       4.453  -6.791  28.244  0.00  0.00    +0.104 C 
ATOM     21  N   UNL     1       5.651  -6.704  27.406  0.00  0.00    -0.305 NA
ATOM     22  C   UNL     1       5.271  -6.359  26.035  0.00  0.00    +0.104 C 
ENDBRANCH  19  21
ENDBRANCH  18  19
ENDBRANCH  17  18
ENDBRANCH  15  17
ENDBRANCH   1  15
TORSDOF 8
ENDMDL
MODEL 6
REMARK VINA RESULT:      -5.3      2.668      3.931
REMARK  Name = 
REMARK  10 active torsions:
REMARK  status: ('A' for Active; 'I' for Inactive)
REMARK    1  A    between atoms: C_1  and  N_2
REMARK    2  A    between atoms: N_2  and  C_3
REMARK    3  A    between atoms: N_2  and  C_4
REMARK    4  A    between atoms: C_4  and  C_5
REMARK    5  A    between atoms: C_5  and  O_6
REMARK    6  A    between atoms: O_6  and  C_7
REMARK    7  A    between atoms: C_7  and  C_9
REMARK    8  A    between atoms: C_9  and  C_10
REMARK    9  A    between atoms: C_9  and  C_16
REMARK   10  A    between atoms: C_16  and  O_17
REMARK                            x       y       z     vdW  Elec       q    Type
REMARK                         _______ _______ _______ _____ _____    ______ ____
ROOT
ATOM      1  C   UNL     1       6.308  -4.902  23.182  0.00  0.00    +0.159 C 
ENDROOT
BRANCH   1   2
ATOM      2  C   UNL     1       7.205  -4.776  24.412  0.00  0.00    -0.031 A 
ATOM      3  C   UNL     1       8.506  -5.317  24.371  0.00  0.00    +0.004 A 
ATOM      4  C   UNL     1       9.379  -5.161  25.445  0.00  0.00    +0.000 A 
ATOM      5  C   UNL     1       8.968  -4.467  26.579  0.00  0.00    +0.000 A 
ATOM      6  C   UNL     1       7.676  -3.951  26.646  0.00  0.00    +0.000 A 
ATOM      7  C   UNL     1       6.790  -4.113  25.576  0.00  0.00    +0.004 A 
ENDBRANCH   1   2
BRANCH   1   8
ATOM      8  C   UNL     1       4.928  -5.556  23.451  0.00  0.00    +0.083 C 
ATOM      9  C   UNL     1       3.878  -4.544  23.962  0.00  0.00    +0.036 C 
ATOM     10  C   UNL     1       3.016  -5.290  24.982  0.00  0.00    +0.003 C 
ATOM     11  C   UNL     1       3.453  -6.747  24.930  0.00  0.00    +0.003 C 
ATOM     12  C   UNL     1       4.905  -6.702  24.468  0.00  0.00    +0.036 C 
BRANCH   8  13
ATOM     13  O   UNL     1       4.382  -6.057  22.209  0.00  0.00    -0.387 OA
ATOM     14  H   UNL     1       4.523  -7.021  22.191  0.00  0.00    +0.210 HD
ENDBRANCH   8  13
ENDBRANCH   1   8
BRANCH   1  15
ATOM     15  C   UNL     1       6.220  -3.611  22.367  0.00  0.00    +0.317 C 
ATOM     16  O   UNL     1       5.691  -3.472  21.270  0.00  0.00    -0.250 OA
BRANCH  15  17
ATOM     17  O   UNL     1       6.960  -2.633  22.968  0.00  0.00    -0.463 OA
BRANCH  17  18
ATOM     18  C   UNL     1       8.100  -2.239  22.194  0.00  0.00    +0.247 C 
BRANCH  18  19
ATOM     19  C   UNL     1       9.349  -1.976  23.044  0.00  0.00    +0.125 C 
BRANCH  19  21
ATOM     20  C   UNL     1       9.435  -0.143  21.466  0.00  0.00    +0.104 C 
ATOM     21  N   UNL     1      10.154  -0.848  22.528  0.00  0.00    -0.305 NA
ATOM     22  C   UNL     1      10.534   0.099  23.579  0.00  0.00    +0.104 C 
ENDBRANCH  19  21
ENDBRANCH  18  19
ENDBRANCH  17  18
ENDBRANCH  15  17
ENDBRANCH   1  15
TORSDOF 8
ENDMDL
MODEL 7
REMARK VINA RESULT:      -5.3      2.522      5.792
REMARK  Name = 
REMARK  10 active torsions:
REMARK  status: ('A' for Active; 'I' for Inactive)
REMARK    1  A    between atoms: C_1  and  N_2
REMARK    2  A    between atoms: N_2  and  C_3
REMARK    3  A    between atoms: N_2  and  C_4
REMARK    4  A    between atoms: C_4  and  C_5
REMARK    5  A    between atoms: C_5  and  O_6
REMARK    6  A    between atoms: O_6  and  C_7
REMARK    7  A    between atoms: C_7  and  C_9
REMARK    8  A    between atoms: C_9  and  C_10
REMARK    9  A    between atoms: C_9  and  C_16
REMARK   10  A    between atoms: C_16  and  O_17
REMARK                            x       y       z     vdW  Elec       q    Type
REMARK                         _______ _______ _______ _____ _____    ______ ____
ROOT
ATOM      1  C   UNL     1       7.922  -3.668  24.472  0.00  0.00    +0.159 C 
ENDROOT
BRANCH   1   2
ATOM      2  C   UNL     1       8.789  -2.425  24.280  0.00  0.00    -0.031 A 
ATOM      3  C   UNL     1       9.640  -2.348  23.159  0.00  0.00    +0.004 A 
ATOM      4  C   UNL     1      10.393  -1.203  22.910  0.00  0.00    +0.000 A 
ATOM      5  C   UNL     1      10.313  -0.117  23.777  0.00  0.00    +0.000 A 
ATOM      6  C   UNL     1       9.498  -0.189  24.904  0.00  0.00    +0.000 A 
ATOM      7  C   UNL     1       8.748  -1.340  25.167  0.00  0.00    +0.004 A 
ENDBRANCH   1   2
BRANCH   1   8
ATOM      8  C   UNL     1       7.044  -4.040  23.250  0.00  0.00    +0.083 C 
ATOM      9  C   UNL     1       5.582  -4.353  23.640  0.00  0.00    +0.036 C 
ATOM     10  C   UNL     1       5.120  -5.484  22.720  0.00  0.00    +0.003 C 
ATOM     11  C   UNL     1       6.235  -5.698  21.708  0.00  0.00    +0.003 C 
ATOM     12  C   UNL     1       7.503  -5.247  22.425  0.00  0.00    +0.036 C 
BRANCH   8  13
ATOM     13  O   UNL     1       6.952  -2.905  22.359  0.00  0.00    -0.387 OA
ATOM     14  H   UNL     1       6.296  -2.288  22.731  0.00  0.00    +0.210 HD
ENDBRANCH   8  13
ENDBRANCH   1   8
BRANCH   1  15
ATOM     15  C   UNL     1       8.692  -4.855  25.052  0.00  0.00    +0.317 C 
ATOM     16  O   UNL     1       9.800  -5.249  24.706  0.00  0.00    -0.250 OA
BRANCH  15  17
ATOM     17  O   UNL     1       7.901  -5.535  25.934  0.00  0.00    -0.463 OA
BRANCH  17  18
ATOM     18  C   UNL     1       7.350  -4.692  26.954  0.00  0.00    +0.247 C 
BRANCH  18  19
ATOM     19  C   UNL     1       5.896  -5.033  27.304  0.00  0.00    +0.125 C 
BRANCH  19  21
ATOM     20  C   UNL     1       5.193  -6.979  28.560  0.00  0.00    +0.104 C 
ATOM     21  N   UNL     1       5.630  -6.487  27.252  0.00  0.00    -0.305 NA
ATOM     22  C   UNL     1       4.639  -6.841  26.235  0.00  0.00    +0.104 C 
ENDBRANCH  19  21
ENDBRANCH  18  19
ENDBRANCH  17  18
ENDBRANCH  15  17
ENDBRANCH   1  15
TORSDOF 8
ENDMDL
MODEL 8
REMARK VINA RESULT:      -5.3      2.331      5.390
REMARK  Name = 
REMARK  10 active torsions:
REMARK  status: ('A' for Active; 'I' for Inactive)
REMARK    1  A    between atoms: C_1  and  N_2
REMARK    2  A    between atoms: N_2  and  C_3
REMARK    3  A    between atoms: N_2  and  C_4
REMARK    4  A    between atoms: C_4  and  C_5
REMARK    5  A    between atoms: C_5  and  O_6
REMARK    6  A    between atoms: O_6  and  C_7
REMARK    7  A    between atoms: C_7  and  C_9
REMARK    8  A    between atoms: C_9  and  C_10
REMARK    9  A    between atoms: C_9  and  C_16
REMARK   10  A    between atoms: C_16  and  O_17
REMARK                            x       y       z     vdW  Elec       q    Type
REMARK                         _______ _______ _______ _____ _____    ______ ____
ROOT
ATOM      1  C   UNL     1       9.501  -1.221  24.858  0.00  0.00    +0.159 C 
ENDROOT
BRANCH   1   2
ATOM      2  C   UNL     1       9.736  -0.015  23.952  0.00  0.00    -0.031 A 
ATOM      3  C   UNL     1      10.392   1.118  24.474  0.00  0.00    +0.004 A 
ATOM      4  C   UNL     1      10.688   2.210  23.662  0.00  0.00    +0.000 A 
ATOM      5  C   UNL     1      10.332   2.192  22.316  0.00  0.00    +0.000 A 
ATOM      6  C   UNL     1       9.658   1.091  21.792  0.00  0.00    +0.000 A 
ATOM      7  C   UNL     1       9.348  -0.004  22.605  0.00  0.00    +0.004 A 
ENDBRANCH   1   2
BRANCH   1   8
ATOM      8  C   UNL     1       8.457  -0.994  25.982  0.00  0.00    +0.083 C 
ATOM      9  C   UNL     1       7.813  -2.310  26.473  0.00  0.00    +0.036 C 
ATOM     10  C   UNL     1       6.352  -1.988  26.786  0.00  0.00    +0.003 C 
ATOM     11  C   UNL     1       6.203  -0.481  26.642  0.00  0.00    +0.003 C 
ATOM     12  C   UNL     1       7.278  -0.078  25.640  0.00  0.00    +0.036 C 
BRANCH   8  13
ATOM     13  O   UNL     1       9.116  -0.449  27.148  0.00  0.00    -0.387 OA
ATOM     14  H   UNL     1       8.463   0.087  27.634  0.00  0.00    +0.210 HD
ENDBRANCH   8  13
ENDBRANCH   1   8
BRANCH   1  15
ATOM     15  C   UNL     1       9.288  -2.523  24.085  0.00  0.00    +0.317 C 
ATOM     16  O   UNL     1      10.054  -3.477  24.031  0.00  0.00    -0.250 OA
BRANCH  15  17
ATOM     17  O   UNL     1       8.163  -2.426  23.316  0.00  0.00    -0.463 OA
BRANCH  17  18
ATOM     18  C   UNL     1       7.592  -3.701  22.997  0.00  0.00    +0.247 C 
BRANCH  18  19
ATOM     19  C   UNL     1       6.477  -3.622  21.947  0.00  0.00    +0.125 C 
BRANCH  19  21
ATOM     20  C   UNL     1       6.211  -5.784  20.890  0.00  0.00    +0.104 C 
ATOM     21  N   UNL     1       5.669  -4.860  21.888  0.00  0.00    -0.305 NA
ATOM     22  C   UNL     1       5.578  -5.533  23.186  0.00  0.00    +0.104 C 
ENDBRANCH  19  21
ENDBRANCH  18  19
ENDBRANCH  17  18
ENDBRANCH  15  17
ENDBRANCH   1  15
TORSDOF 8
ENDMDL
MODEL 9
REMARK VINA RESULT:      -5.2      3.511      7.775
REMARK  Name = 
REMARK  10 active torsions:
REMARK  status: ('A' for Active; 'I' for Inactive)
REMARK    1  A    between atoms: C_1  and  N_2
REMARK    2  A    between atoms: N_2  and  C_3
REMARK    3  A    between atoms: N_2  and  C_4
REMARK    4  A    between atoms: C_4  and  C_5
REMARK    5  A    between atoms: C_5  and  O_6
REMARK    6  A    between atoms: O_6  and  C_7
REMARK    7  A    between atoms: C_7  and  C_9
REMARK    8  A    between atoms: C_9  and  C_10
REMARK    9  A    between atoms: C_9  and  C_16
REMARK   10  A    between atoms: C_16  and  O_17
REMARK                            x       y       z     vdW  Elec       q    Type
REMARK                         _______ _______ _______ _____ _____    ______ ____
ROOT
ATOM      1  C   UNL     1       9.133   2.233  23.871  0.00  0.00    +0.159 C 
ENDROOT
BRANCH   1   2
ATOM      2  C   UNL     1       9.933   3.534  23.830  0.00  0.00    -0.031 A 
ATOM      3  C   UNL     1       9.378   4.698  24.397  0.00  0.00    +0.004 A 
ATOM      4  C   UNL     1      10.104   5.887  24.442  0.00  0.00    +0.000 A 
ATOM      5  C   UNL     1      11.394   5.933  23.921  0.00  0.00    +0.000 A 
ATOM      6  C   UNL     1      11.945   4.797  23.333  0.00  0.00    +0.000 A 
ATOM      7  C   UNL     1      11.218   3.604  23.273  0.00  0.00    +0.004 A 
ENDBRANCH   1   2
BRANCH   1   8
ATOM      8  C   UNL     1       7.689   2.343  23.318  0.00  0.00    +0.083 C 
ATOM      9  C   UNL     1       7.557   3.405  22.203  0.00  0.00    +0.036 C 
ATOM     10  C   UNL     1       6.187   4.058  22.385  0.00  0.00    +0.003 C 
ATOM     11  C   UNL     1       5.476   3.270  23.474  0.00  0.00    +0.003 C 
ATOM     12  C   UNL     1       6.596   2.695  24.333  0.00  0.00    +0.036 C 
BRANCH   8  13
ATOM     13  O   UNL     1       7.319   1.097  22.685  0.00  0.00    -0.387 OA
ATOM     14  H   UNL     1       7.379   0.394  23.357  0.00  0.00    +0.210 HD
ENDBRANCH   8  13
ENDBRANCH   1   8
BRANCH   1  15
ATOM     15  C   UNL     1       9.905   1.033  23.321  0.00  0.00    +0.317 C 
ATOM     16  O   UNL     1      10.073   0.749  22.140  0.00  0.00    -0.250 OA
BRANCH  15  17
ATOM     17  O   UNL     1      10.274   0.210  24.346  0.00  0.00    -0.463 OA
BRANCH  17  18
ATOM     18  C   UNL     1       9.953  -1.165  24.101  0.00  0.00    +0.247 C 
BRANCH  18  19
ATOM     19  C   UNL     1       8.570  -1.569  24.625  0.00  0.00    +0.125 C 
BRANCH  19  21
ATOM     20  C   UNL     1       8.108  -2.409  22.403  0.00  0.00    +0.104 C 
ATOM     21  N   UNL     1       7.565  -1.671  23.544  0.00  0.00    -0.305 NA
ATOM     22  C   UNL     1       6.320  -2.299  23.992  0.00  0.00    +0.104 C 
ENDBRANCH  19  21
ENDBRANCH  18  19
ENDBRANCH  17  18
ENDBRANCH  15  17
ENDBRANCH   1  15
TORSDOF 8
ENDMDL
