MODEL 1
REMARK VINA RESULT:      -6.9      0.000      0.000
REMARK  Name = 
REMARK  7 active torsions:
REMARK  status: ('A' for Active; 'I' for Inactive)
REMARK    1  A    between atoms: C_1  and  N_2
REMARK    2  A    between atoms: N_2  and  C_3
REMARK    3  A    between atoms: N_2  and  C_4
REMARK    4  A    between atoms: C_7  and  N_8
REMARK    5  A    between atoms: C_11  and  C_15
REMARK    6  A    between atoms: C_16  and  C_17
REMARK    7  A    between atoms: C_19  and  C_20
REMARK                            x       y       z     vdW  Elec       q    Type
REMARK                         _______ _______ _______ _____ _____    ______ ____
ROOT
ATOM      1  N   UNL     1       7.671  -2.780  21.833  0.00  0.00    -0.284 N 
ATOM      2  H   UNL     1       7.473  -2.748  20.842  0.00  0.00    +0.155 HD
ATOM      3  C   UNL     1       6.988  -3.843  22.411  0.00  0.00    +0.220 A 
ATOM      4  N   UNL     1       6.280  -4.588  21.548  0.00  0.00    -0.223 NA
ATOM      5  C   UNL     1       5.690  -5.689  22.034  0.00  0.00    +0.116 A 
ATOM      6  C   UNL     1       5.795  -6.077  23.343  0.00  0.00    +0.049 A 
ATOM      7  C   UNL     1       6.503  -5.236  24.178  0.00  0.00    +0.084 A 
ATOM      8  N   UNL     1       7.107  -4.122  23.722  0.00  0.00    -0.214 NA
ENDROOT
BRANCH   7   9
ATOM      9  C   UNL     1       6.573  -5.461  25.630  0.00  0.00    +0.060 A 
ATOM     10  S   UNL     1       5.159  -6.042  26.445  0.00  0.00    -0.071 S 
ATOM     11  C   UNL     1       5.970  -5.981  27.941  0.00  0.00    +0.076 A 
ATOM     12  C   UNL     1       5.240  -6.356  29.180  0.00  0.00    +0.073 C 
ATOM     13  N   UNL     1       7.218  -5.581  27.890  0.00  0.00    -0.249 NA
ATOM     14  C   UNL     1       7.575  -5.263  26.577  0.00  0.00    +0.055 A 
ATOM     15  C   UNL     1       8.971  -4.773  26.386  0.00  0.00    +0.067 C 
ENDBRANCH   7   9
BRANCH   1  19
ATOM     16  C   UNL     1       9.039   0.888  23.514  0.00  0.00    +0.029 A 
ATOM     17  C   UNL     1       9.922  -0.011  22.896  0.00  0.00    +0.025 A 
ATOM     18  C   UNL     1       9.490  -1.219  22.330  0.00  0.00    +0.025 A 
ATOM     19  C   UNL     1       8.153  -1.596  22.388  0.00  0.00    +0.034 A 
ATOM     20  C   UNL     1       7.258  -0.724  23.010  0.00  0.00    +0.025 A 
ATOM     21  C   UNL     1       7.693   0.495  23.550  0.00  0.00    +0.025 A 
BRANCH  16  23
ATOM     22  C   UNL     1       8.605   2.883  24.923  0.00  0.00    +0.129 C 
ATOM     23  N   UNL     1       9.473   2.089  24.064  0.00  0.00    -0.336 N 
ATOM     24  C   UNL     1      10.765   2.655  23.689  0.00  0.00    +0.129 C 
ENDBRANCH  16  23
ENDBRANCH   1  19
TORSDOF 3
ENDMDL
MODEL 2
REMARK VINA RESULT:      -6.5      2.160      3.913
REMARK  Name = 
REMARK  7 active torsions:
REMARK  status: ('A' for Active; 'I' for Inactive)
REMARK    1  A    between atoms: C_1  and  N_2
REMARK    2  A    between atoms: N_2  and  C_3
REMARK    3  A    between atoms: N_2  and  C_4
REMARK    4  A    between atoms: C_7  and  N_8
REMARK    5  A    between atoms: C_11  and  C_15
REMARK    6  A    between atoms: C_16  and  C_17
REMARK    7  A    between atoms: C_19  and  C_20
REMARK                            x       y       z     vdW  Elec       q    Type
REMARK                         _______ _______ _______ _____ _____    ______ ____
ROOT
ATOM      1  N   UNL     1       8.466  -2.699  26.318  0.00  0.00    -0.284 N 
ATOM      2  H   UNL     1       9.168  -2.788  27.040  0.00  0.00    +0.155 HD
ATOM      3  C   UNL     1       7.669  -3.837  26.298  0.00  0.00    +0.220 A 
ATOM      4  N   UNL     1       7.969  -4.745  27.239  0.00  0.00    -0.223 NA
ATOM      5  C   UNL     1       7.164  -5.812  27.335  0.00  0.00    +0.116 A 
ATOM      6  C   UNL     1       6.065  -5.994  26.539  0.00  0.00    +0.049 A 
ATOM      7  C   UNL     1       5.848  -5.038  25.567  0.00  0.00    +0.084 A 
ATOM      8  N   UNL     1       6.638  -3.955  25.442  0.00  0.00    -0.214 NA
ENDROOT
BRANCH   7   9
ATOM      9  C   UNL     1       4.788  -5.184  24.557  0.00  0.00    +0.060 A 
ATOM     10  S   UNL     1       3.148  -4.885  25.031  0.00  0.00    -0.071 S 
ATOM     11  C   UNL     1       2.600  -5.289  23.471  0.00  0.00    +0.076 A 
ATOM     12  C   UNL     1       1.142  -5.269  23.184  0.00  0.00    +0.073 C 
ATOM     13  N   UNL     1       3.536  -5.612  22.610  0.00  0.00    -0.249 NA
ATOM     14  C   UNL     1       4.793  -5.574  23.219  0.00  0.00    +0.055 A 
ATOM     15  C   UNL     1       5.947  -5.943  22.349  0.00  0.00    +0.067 C 
ENDBRANCH   7   9
BRANCH   1  19
ATOM     16  C   UNL     1       9.210   0.210  23.294  0.00  0.00    +0.029 A 
ATOM     17  C   UNL     1       9.826  -1.051  23.267  0.00  0.00    +0.025 A 
ATOM     18  C   UNL     1       9.588  -2.025  24.248  0.00  0.00    +0.025 A 
ATOM     19  C   UNL     1       8.744  -1.763  25.322  0.00  0.00    +0.034 A 
ATOM     20  C   UNL     1       8.131  -0.511  25.377  0.00  0.00    +0.025 A 
ATOM     21  C   UNL     1       8.352   0.447  24.379  0.00  0.00    +0.025 A 
BRANCH  16  23
ATOM     22  C   UNL     1      10.414   2.231  22.512  0.00  0.00    +0.129 C 
ATOM     23  N   UNL     1       9.442   1.166  22.312  0.00  0.00    -0.336 N 
ATOM     24  C   UNL     1       8.624   1.205  21.104  0.00  0.00    +0.129 C 
ENDBRANCH  16  23
ENDBRANCH   1  19
TORSDOF 3
ENDMDL
MODEL 3
REMARK VINA RESULT:      -6.3      2.557      3.029
REMARK  Name = 
REMARK  7 active torsions:
REMARK  status: ('A' for Active; 'I' for Inactive)
REMARK    1  A    between atoms: C_1  and  N_2
REMARK    2  A    between atoms: N_2  and  C_3
REMARK    3  A    between atoms: N_2  and  C_4
REMARK    4  A    between atoms: C_7  and  N_8
REMARK    5  A    between atoms: C_11  and  C_15
REMARK    6  A    between atoms: C_16  and  C_17
REMARK    7  A    between atoms: C_19  and  C_20
REMARK                            x       y       z     vdW  Elec       q    Type
REMARK                         _______ _______ _______ _____ _____    ______ ____
ROOT
ATOM      1  N   UNL     1       9.569  -2.130  23.170  0.00  0.00    -0.284 N 
ATOM      2  H   UNL     1      10.054  -2.581  22.407  0.00  0.00    +0.155 HD
ATOM      3  C   UNL     1       8.511  -2.928  23.588  0.00  0.00    +0.220 A 
ATOM      4  N   UNL     1       8.403  -4.097  22.938  0.00  0.00    -0.223 NA
ATOM      5  C   UNL     1       7.468  -4.952  23.373  0.00  0.00    +0.116 A 
ATOM      6  C   UNL     1       6.651  -4.688  24.440  0.00  0.00    +0.049 A 
ATOM      7  C   UNL     1       6.793  -3.447  25.028  0.00  0.00    +0.084 A 
ATOM      8  N   UNL     1       7.721  -2.564  24.615  0.00  0.00    -0.214 NA
ENDROOT
BRANCH   7   9
ATOM      9  C   UNL     1       5.886  -2.982  26.089  0.00  0.00    +0.060 A 
ATOM     10  S   UNL     1       5.088  -1.458  25.884  0.00  0.00    -0.071 S 
ATOM     11  C   UNL     1       4.355  -1.611  27.413  0.00  0.00    +0.076 A 
ATOM     12  C   UNL     1       3.480  -0.518  27.913  0.00  0.00    +0.073 C 
ATOM     13  N   UNL     1       4.636  -2.714  28.066  0.00  0.00    -0.249 NA
ATOM     14  C   UNL     1       5.525  -3.503  27.330  0.00  0.00    +0.055 A 
ATOM     15  C   UNL     1       5.941  -4.781  27.974  0.00  0.00    +0.067 C 
ENDBRANCH   7   9
BRANCH   1  19
ATOM     16  C   UNL     1      10.226   2.074  23.406  0.00  0.00    +0.029 A 
ATOM     17  C   UNL     1      10.376   1.243  24.528  0.00  0.00    +0.025 A 
ATOM     18  C   UNL     1      10.172  -0.143  24.469  0.00  0.00    +0.025 A 
ATOM     19  C   UNL     1       9.774  -0.756  23.285  0.00  0.00    +0.034 A 
ATOM     20  C   UNL     1       9.606   0.052  22.160  0.00  0.00    +0.025 A 
ATOM     21  C   UNL     1       9.838   1.434  22.220  0.00  0.00    +0.025 A 
BRANCH  16  23
ATOM     22  C   UNL     1      11.771   4.010  23.289  0.00  0.00    +0.129 C 
ATOM     23  N   UNL     1      10.440   3.446  23.471  0.00  0.00    -0.336 N 
ATOM     24  C   UNL     1       9.361   4.351  23.851  0.00  0.00    +0.129 C 
ENDBRANCH  16  23
ENDBRANCH   1  19
TORSDOF 3
ENDMDL
MODEL 4
REMARK VINA RESULT:      -6.3      3.680      8.956
REMARK  Name = 
REMARK  7 active torsions:
REMARK  status: ('A' for Active; 'I' for Inactive)
REMARK    1  A    between atoms: C_1  and  N_2
REMARK    2  A    between atoms: N_2  and  C_3
REMARK    3  A    between atoms: N_2  and  C_4
REMARK    4  A    between atoms: C_7  and  N_8
REMARK    5  A    between atoms: C_11  and  C_15
REMARK    6  A    between atoms: C_16  and  C_17
REMARK    7  A    between atoms: C_19  and  C_20
REMARK                            x       y       z     vdW  Elec       q    Type
REMARK                         _______ _______ _______ _____ _____    ______ ____
ROOT
ATOM      1  N   UNL     1      10.922   2.194  23.000  0.00  0.00    -0.284 N 
ATOM      2  H   UNL     1      11.933   2.194  23.008  0.00  0.00    +0.155 HD
ATOM      3  C   UNL     1      10.453   3.456  23.342  0.00  0.00    +0.220 A 
ATOM      4  N   UNL     1      11.412   4.370  23.554  0.00  0.00    -0.223 NA
ATOM      5  C   UNL     1      11.015   5.630  23.779  0.00  0.00    +0.116 A 
ATOM      6  C   UNL     1       9.700   6.010  23.786  0.00  0.00    +0.049 A 
ATOM      7  C   UNL     1       8.770   5.004  23.603  0.00  0.00    +0.084 A 
ATOM      8  N   UNL     1       9.135   3.729  23.375  0.00  0.00    -0.214 NA
ENDROOT
BRANCH   7   9
ATOM      9  C   UNL     1       7.325   5.251  23.727  0.00  0.00    +0.060 A 
ATOM     10  S   UNL     1       6.441   4.385  24.940  0.00  0.00    -0.071 S 
ATOM     11  C   UNL     1       4.989   5.115  24.433  0.00  0.00    +0.076 A 
ATOM     12  C   UNL     1       3.716   4.747  25.106  0.00  0.00    +0.073 C 
ATOM     13  N   UNL     1       5.102   5.970  23.444  0.00  0.00    -0.249 NA
ATOM     14  C   UNL     1       6.430   6.047  23.016  0.00  0.00    +0.055 A 
ATOM     15  C   UNL     1       6.691   6.973  21.876  0.00  0.00    +0.067 C 
ENDBRANCH   7   9
BRANCH   1  19
ATOM     16  C   UNL     1       9.147  -1.660  23.391  0.00  0.00    +0.029 A 
ATOM     17  C   UNL     1       9.227  -1.010  22.148  0.00  0.00    +0.025 A 
ATOM     18  C   UNL     1       9.814   0.254  21.998  0.00  0.00    +0.025 A 
ATOM     19  C   UNL     1      10.319   0.940  23.097  0.00  0.00    +0.034 A 
ATOM     20  C   UNL     1      10.239   0.321  24.344  0.00  0.00    +0.025 A 
ATOM     21  C   UNL     1       9.675  -0.955  24.483  0.00  0.00    +0.025 A 
BRANCH  16  23
ATOM     22  C   UNL     1       9.040  -3.852  24.545  0.00  0.00    +0.129 C 
ATOM     23  N   UNL     1       8.573  -2.918  23.530  0.00  0.00    -0.336 N 
ATOM     24  C   UNL     1       7.574  -3.390  22.577  0.00  0.00    +0.129 C 
ENDBRANCH  16  23
ENDBRANCH   1  19
TORSDOF 3
ENDMDL
MODEL 5
REMARK VINA RESULT:      -6.2      2.731      7.426
REMARK  Name = 
REMARK  7 active torsions:
REMARK  status: ('A' for Active; 'I' for Inactive)
REMARK    1  A    between atoms: C_1  and  N_2
REMARK    2  A    between atoms: N_2  and  C_3
REMARK    3  A    between atoms: N_2  and  C_4
REMARK    4  A    between atoms: C_7  and  N_8
REMARK    5  A    between atoms: C_11  and  C_15
REMARK    6  A    between atoms: C_16  and  C_17
REMARK    7  A    between atoms: C_19  and  C_20
REMARK                            x       y       z     vdW  Elec       q    Type
REMARK                         _______ _______ _______ _____ _____    ______ ____
ROOT
ATOM      1  N   UNL     1       8.682  -4.120  23.994  0.00  0.00    -0.284 N 
ATOM      2  H   UNL     1       9.510  -4.681  23.845  0.00  0.00    +0.155 HD
ATOM      3  C   UNL     1       8.932  -2.808  23.611  0.00  0.00    +0.220 A 
ATOM      4  N   UNL     1      10.156  -2.598  23.104  0.00  0.00    -0.223 NA
ATOM      5  C   UNL     1      10.412  -1.375  22.618  0.00  0.00    +0.116 A 
ATOM      6  C   UNL     1       9.488  -0.366  22.606  0.00  0.00    +0.049 A 
ATOM      7  C   UNL     1       8.266  -0.647  23.184  0.00  0.00    +0.084 A 
ATOM      8  N   UNL     1       7.975  -1.863  23.683  0.00  0.00    -0.214 NA
ENDROOT
BRANCH   7   9
ATOM      9  C   UNL     1       7.235   0.387  23.364  0.00  0.00    +0.060 A 
ATOM     10  S   UNL     1       7.214   1.731  22.270  0.00  0.00    -0.071 S 
ATOM     11  C   UNL     1       5.905   2.423  23.110  0.00  0.00    +0.076 A 
ATOM     12  C   UNL     1       5.366   3.734  22.665  0.00  0.00    +0.073 C 
ATOM     13  N   UNL     1       5.462   1.730  24.133  0.00  0.00    -0.249 NA
ATOM     14  C   UNL     1       6.222   0.570  24.303  0.00  0.00    +0.055 A 
ATOM     15  C   UNL     1       5.832  -0.299  25.450  0.00  0.00    +0.067 C 
ENDBRANCH   7   9
BRANCH   1  19
ATOM     16  C   UNL     1       5.929  -5.766  26.800  0.00  0.00    +0.029 A 
ATOM     17  C   UNL     1       5.605  -5.639  25.439  0.00  0.00    +0.025 A 
ATOM     18  C   UNL     1       6.500  -5.108  24.500  0.00  0.00    +0.025 A 
ATOM     19  C   UNL     1       7.752  -4.647  24.889  0.00  0.00    +0.034 A 
ATOM     20  C   UNL     1       8.092  -4.750  26.238  0.00  0.00    +0.025 A 
ATOM     21  C   UNL     1       7.203  -5.307  27.168  0.00  0.00    +0.025 A 
BRANCH  16  23
ATOM     22  C   UNL     1       5.456  -6.591  29.090  0.00  0.00    +0.129 C 
ATOM     23  N   UNL     1       5.041  -6.304  27.723  0.00  0.00    -0.336 N 
ATOM     24  C   UNL     1       3.703  -6.718  27.315  0.00  0.00    +0.129 C 
ENDBRANCH  16  23
ENDBRANCH   1  19
TORSDOF 3
ENDMDL
MODEL 6
REMARK VINA RESULT:      -6.2      1.438      1.680
REMARK  Name = 
REMARK  7 active torsions:
REMARK  status: ('A' for Active; 'I' for Inactive)
REMARK    1  A    between atoms: C_1  and  N_2
REMARK    2  A    between atoms: N_2  and  C_3
REMARK    3  A    between atoms: N_2  and  C_4
REMARK    4  A    between atoms: C_7  and  N_8
REMARK    5  A    between atoms: C_11  and  C_15
REMARK    6  A    between atoms: C_16  and  C_17
REMARK    7  A    between atoms: C_19  and  C_20
REMARK                            x       y       z     vdW  Elec       q    Type
REMARK                         _______ _______ _______ _____ _____    ______ ____
ROOT
ATOM      1  N   UNL     1       8.340  -2.682  22.313  0.00  0.00    -0.284 N 
ATOM      2  H   UNL     1       8.502  -2.879  21.335  0.00  0.00    +0.155 HD
ATOM      3  C   UNL     1       7.415  -3.584  22.824  0.00  0.00    +0.220 A 
ATOM      4  N   UNL     1       6.994  -4.508  21.947  0.00  0.00    -0.223 NA
ATOM      5  C   UNL     1       6.184  -5.468  22.415  0.00  0.00    +0.116 A 
ATOM      6  C   UNL     1       5.796  -5.545  23.726  0.00  0.00    +0.049 A 
ATOM      7  C   UNL     1       6.235  -4.534  24.556  0.00  0.00    +0.084 A 
ATOM      8  N   UNL     1       7.049  -3.554  24.118  0.00  0.00    -0.214 NA
ENDROOT
BRANCH   7   9
ATOM      9  C   UNL     1       5.779  -4.419  25.950  0.00  0.00    +0.060 A 
ATOM     10  S   UNL     1       6.434  -5.510  27.126  0.00  0.00    -0.071 S 
ATOM     11  C   UNL     1       5.449  -4.830  28.337  0.00  0.00    +0.076 A 
ATOM     12  C   UNL     1       5.502  -5.385  29.714  0.00  0.00    +0.073 C 
ATOM     13  N   UNL     1       4.680  -3.840  27.950  0.00  0.00    -0.249 NA
ATOM     14  C   UNL     1       4.843  -3.603  26.582  0.00  0.00    +0.055 A 
ATOM     15  C   UNL     1       4.005  -2.510  26.010  0.00  0.00    +0.067 C 
ENDBRANCH   7   9
BRANCH   1  19
ATOM     16  C   UNL     1       9.338   1.277  23.534  0.00  0.00    +0.029 A 
ATOM     17  C   UNL     1      10.282   0.238  23.567  0.00  0.00    +0.025 A 
ATOM     18  C   UNL     1       9.975  -1.069  23.161  0.00  0.00    +0.025 A 
ATOM     19  C   UNL     1       8.694  -1.401  22.735  0.00  0.00    +0.034 A 
ATOM     20  C   UNL     1       7.735  -0.388  22.707  0.00  0.00    +0.025 A 
ATOM     21  C   UNL     1       8.056   0.922  23.087  0.00  0.00    +0.025 A 
BRANCH  16  23
ATOM     22  C   UNL     1       8.728   3.363  24.727  0.00  0.00    +0.129 C 
ATOM     23  N   UNL     1       9.653   2.573  23.926  0.00  0.00    -0.336 N 
ATOM     24  C   UNL     1      10.862   3.225  23.437  0.00  0.00    +0.129 C 
ENDBRANCH  16  23
ENDBRANCH   1  19
TORSDOF 3
ENDMDL
MODEL 7
REMARK VINA RESULT:      -6.1      2.451      4.528
REMARK  Name = 
REMARK  7 active torsions:
REMARK  status: ('A' for Active; 'I' for Inactive)
REMARK    1  A    between atoms: C_1  and  N_2
REMARK    2  A    between atoms: N_2  and  C_3
REMARK    3  A    between atoms: N_2  and  C_4
REMARK    4  A    between atoms: C_7  and  N_8
REMARK    5  A    between atoms: C_11  and  C_15
REMARK    6  A    between atoms: C_16  and  C_17
REMARK    7  A    between atoms: C_19  and  C_20
REMARK                            x       y       z     vdW  Elec       q    Type
REMARK                         _______ _______ _______ _____ _____    ______ ____
ROOT
ATOM      1  N   UNL     1       7.741  -3.822  27.133  0.00  0.00    -0.284 N 
ATOM      2  H   UNL     1       8.324  -4.054  27.926  0.00  0.00    +0.155 HD
ATOM      3  C   UNL     1       6.777  -4.808  26.960  0.00  0.00    +0.220 A 
ATOM      4  N   UNL     1       6.807  -5.786  27.877  0.00  0.00    -0.223 NA
ATOM      5  C   UNL     1       5.832  -6.704  27.822  0.00  0.00    +0.116 A 
ATOM      6  C   UNL     1       4.824  -6.670  26.896  0.00  0.00    +0.049 A 
ATOM      7  C   UNL     1       4.887  -5.657  25.959  0.00  0.00    +0.084 A 
ATOM      8  N   UNL     1       5.852  -4.720  25.985  0.00  0.00    -0.214 NA
ENDROOT
BRANCH   7   9
ATOM      9  C   UNL     1       3.949  -5.587  24.828  0.00  0.00    +0.060 A 
ATOM     10  S   UNL     1       2.260  -5.400  25.165  0.00  0.00    -0.071 S 
ATOM     11  C   UNL     1       1.898  -5.463  23.503  0.00  0.00    +0.076 A 
ATOM     12  C   UNL     1       0.481  -5.386  23.064  0.00  0.00    +0.073 C 
ATOM     13  N   UNL     1       2.931  -5.593  22.705  0.00  0.00    -0.249 NA
ATOM     14  C   UNL     1       4.112  -5.683  23.447  0.00  0.00    +0.055 A 
ATOM     15  C   UNL     1       5.364  -5.855  22.655  0.00  0.00    +0.067 C 
ENDBRANCH   7   9
BRANCH   1  19
ATOM     16  C   UNL     1       9.484  -1.128  24.330  0.00  0.00    +0.029 A 
ATOM     17  C   UNL     1       8.903  -0.671  25.524  0.00  0.00    +0.025 A 
ATOM     18  C   UNL     1       8.332  -1.543  26.463  0.00  0.00    +0.025 A 
ATOM     19  C   UNL     1       8.287  -2.913  26.229  0.00  0.00    +0.034 A 
ATOM     20  C   UNL     1       8.847  -3.388  25.043  0.00  0.00    +0.025 A 
ATOM     21  C   UNL     1       9.441  -2.514  24.121  0.00  0.00    +0.025 A 
BRANCH  16  23
ATOM     22  C   UNL     1      10.104  -0.585  21.992  0.00  0.00    +0.129 C 
ATOM     23  N   UNL     1      10.059  -0.258  23.410  0.00  0.00    -0.336 N 
ATOM     24  C   UNL     1      10.749   0.947  23.856  0.00  0.00    +0.129 C 
ENDBRANCH  16  23
ENDBRANCH   1  19
TORSDOF 3
ENDMDL
MODEL 8
REMARK VINA RESULT:      -6.1      3.131      7.504
REMARK  Name = 
REMARK  7 active torsions:
REMARK  status: ('A' for Active; 'I' for Inactive)
REMARK    1  A    between atoms: C_1  and  N_2
REMARK    2  A    between atoms: N_2  and  C_3
REMARK    3  A    between atoms: N_2  and  C_4
REMARK    4  A    between atoms: C_7  and  N_8
REMARK    5  A    between atoms: C_11  and  C_15
REMARK    6  A    between atoms: C_16  and  C_17
REMARK    7  A    between atoms: C_19  and  C_20
REMARK                            x       y       z     vdW  Elec       q    Type
REMARK                         _______ _______ _______ _____ _____    ______ ____
ROOT
ATOM      1  N   UNL     1       8.417  -2.667  22.274  0.00  0.00    -0.284 N 
ATOM      2  H   UNL     1       9.286  -3.057  21.935  0.00  0.00    +0.155 HD
ATOM      3  C   UNL     1       8.522  -1.284  22.346  0.00  0.00    +0.220 A 
ATOM      4  N   UNL     1       9.696  -0.791  21.923  0.00  0.00    -0.223 NA
ATOM      5  C   UNL     1       9.812   0.543  21.868  0.00  0.00    +0.116 A 
ATOM      6  C   UNL     1       8.797   1.397  22.206  0.00  0.00    +0.049 A 
ATOM      7  C   UNL     1       7.636   0.814  22.674  0.00  0.00    +0.084 A 
ATOM      8  N   UNL     1       7.486  -0.522  22.742  0.00  0.00    -0.214 NA
ENDROOT
BRANCH   7   9
ATOM      9  C   UNL     1       6.522   1.617  23.201  0.00  0.00    +0.060 A 
ATOM     10  S   UNL     1       6.100   3.084  22.382  0.00  0.00    -0.071 S 
ATOM     11  C   UNL     1       4.891   3.407  23.536  0.00  0.00    +0.076 A 
ATOM     12  C   UNL     1       4.094   4.657  23.425  0.00  0.00    +0.073 C 
ATOM     13  N   UNL     1       4.755   2.505  24.478  0.00  0.00    -0.249 NA
ATOM     14  C   UNL     1       5.692   1.481  24.312  0.00  0.00    +0.055 A 
ATOM     15  C   UNL     1       5.656   0.397  25.336  0.00  0.00    +0.067 C 
ENDBRANCH   7   9
BRANCH   1  19
ATOM     16  C   UNL     1       5.959  -5.398  24.432  0.00  0.00    +0.029 A 
ATOM     17  C   UNL     1       5.779  -5.177  23.057  0.00  0.00    +0.025 A 
ATOM     18  C   UNL     1       6.583  -4.289  22.328  0.00  0.00    +0.025 A 
ATOM     19  C   UNL     1       7.584  -3.555  22.954  0.00  0.00    +0.034 A 
ATOM     20  C   UNL     1       7.773  -3.748  24.323  0.00  0.00    +0.025 A 
ATOM     21  C   UNL     1       6.984  -4.658  25.041  0.00  0.00    +0.025 A 
BRANCH  16  23
ATOM     22  C   UNL     1       4.115  -7.055  24.490  0.00  0.00    +0.129 C 
ATOM     23  N   UNL     1       5.166  -6.289  25.146  0.00  0.00    -0.336 N 
ATOM     24  C   UNL     1       5.276  -6.386  26.598  0.00  0.00    +0.129 C 
ENDBRANCH  16  23
ENDBRANCH   1  19
TORSDOF 3
ENDMDL
MODEL 9
REMARK VINA RESULT:      -6.1      2.957      7.584
REMARK  Name = 
REMARK  7 active torsions:
REMARK  status: ('A' for Active; 'I' for Inactive)
REMARK    1  A    between atoms: C_1  and  N_2
REMARK    2  A    between atoms: N_2  and  C_3
REMARK    3  A    between atoms: N_2  and  C_4
REMARK    4  A    between atoms: C_7  and  N_8
REMARK    5  A    between atoms: C_11  and  C_15
REMARK    6  A    between atoms: C_16  and  C_17
REMARK    7  A    between atoms: C_19  and  C_20
REMARK                            x       y       z     vdW  Elec       q    Type
REMARK                         _______ _______ _______ _____ _____    ______ ____
ROOT
ATOM      1  N   UNL     1       9.399  -2.292  24.301  0.00  0.00    -0.284 N 
ATOM      2  H   UNL     1      10.352  -2.614  24.407  0.00  0.00    +0.155 HD
ATOM      3  C   UNL     1       9.366  -0.904  24.358  0.00  0.00    +0.220 A 
ATOM      4  N   UNL     1      10.568  -0.322  24.489  0.00  0.00    -0.223 NA
ATOM      5  C   UNL     1      10.605   1.016  24.439  0.00  0.00    +0.116 A 
ATOM      6  C   UNL     1       9.492   1.789  24.249  0.00  0.00    +0.049 A 
ATOM      7  C   UNL     1       8.287   1.119  24.166  0.00  0.00    +0.084 A 
ATOM      8  N   UNL     1       8.214  -0.225  24.213  0.00  0.00    -0.214 NA
ENDROOT
BRANCH   7   9
ATOM      9  C   UNL     1       7.003   1.834  24.102  0.00  0.00    +0.060 A 
ATOM     10  S   UNL     1       5.872   1.617  25.397  0.00  0.00    -0.071 S 
ATOM     11  C   UNL     1       4.747   2.625  24.612  0.00  0.00    +0.076 A 
ATOM     12  C   UNL     1       3.417   2.855  25.235  0.00  0.00    +0.073 C 
ATOM     13  N   UNL     1       5.144   3.131  23.468  0.00  0.00    -0.249 NA
ATOM     14  C   UNL     1       6.427   2.675  23.153  0.00  0.00    +0.055 A 
ATOM     15  C   UNL     1       6.989   3.163  21.860  0.00  0.00    +0.067 C 
ENDBRANCH   7   9
BRANCH   1  19
ATOM     16  C   UNL     1       6.335  -5.167  25.012  0.00  0.00    +0.029 A 
ATOM     17  C   UNL     1       6.950  -4.473  26.066  0.00  0.00    +0.025 A 
ATOM     18  C   UNL     1       7.954  -3.518  25.852  0.00  0.00    +0.025 A 
ATOM     19  C   UNL     1       8.412  -3.239  24.569  0.00  0.00    +0.034 A 
ATOM     20  C   UNL     1       7.825  -3.927  23.506  0.00  0.00    +0.025 A 
ATOM     21  C   UNL     1       6.803  -4.861  23.725  0.00  0.00    +0.025 A 
BRANCH  16  23
ATOM     22  C   UNL     1       4.999  -6.551  26.577  0.00  0.00    +0.129 C 
ATOM     23  N   UNL     1       5.333  -6.105  25.231  0.00  0.00    -0.336 N 
ATOM     24  C   UNL     1       4.675  -6.767  24.110  0.00  0.00    +0.129 C 
ENDBRANCH  16  23
ENDBRANCH   1  19
TORSDOF 3
ENDMDL
