MODEL 1
REMARK VINA RESULT:      -7.7      0.000      0.000
REMARK  Name = 
REMARK  4 active torsions:
REMARK  status: ('A' for Active; 'I' for Inactive)
REMARK    1  A    between atoms: O_1  and  C_2
REMARK    2  A    between atoms: C_2  and  C_4
REMARK    3  A    between atoms: N_6  and  C_7
REMARK    4  A    between atoms: C_12  and  N_13
REMARK                            x       y       z     vdW  Elec       q    Type
REMARK                         _______ _______ _______ _____ _____    ______ ____
ROOT
ATOM      1  C   UNL     1       5.969  -5.434  25.844  0.00  0.00    +0.122 A 
ATOM      2  C   UNL     1       6.827  -4.426  26.501  0.00  0.00    +0.203 A 
ATOM      3  O   UNL     1       6.895  -4.380  27.726  0.00  0.00    -0.286 OA
ATOM      4  C   UNL     1       7.554  -3.461  25.645  0.00  0.00    +0.049 A 
ATOM      5  C   UNL     1       7.504  -3.597  24.249  0.00  0.00    +0.055 A 
ATOM      6  C   UNL     1       8.168  -2.629  23.468  0.00  0.00    +0.052 A 
ATOM      7  C   UNL     1       8.858  -1.532  24.023  0.00  0.00    +0.067 A 
ATOM      8  C   UNL     1       8.887  -1.474  25.432  0.00  0.00    +0.145 A 
ATOM      9  F   UNL     1       9.580  -0.512  26.063  0.00  0.00    -0.204 F 
ATOM     10  N   UNL     1       6.778  -4.684  23.678  0.00  0.00    -0.343 N 
ATOM     11  C   UNL     1       8.251  -2.412  26.237  0.00  0.00    +0.054 A 
ATOM     12  C   UNL     1       6.004  -5.484  24.504  0.00  0.00    +0.105 A 
ENDROOT
BRANCH   7  13
ATOM     13  N   UNL     1       9.471  -0.587  23.222  0.00  0.00    -0.325 N 
ATOM     14  C   UNL     1      10.572   0.284  23.661  0.00  0.00    +0.120 C 
ATOM     15  C   UNL     1      10.276   1.747  23.244  0.00  0.00    +0.100 C 
ATOM     16  N   UNL     1       9.960   1.921  21.812  0.00  0.00    -0.313 NA
ATOM     17  H   UNL     1       9.640   2.876  21.657  0.00  0.00    +0.122 HD
ATOM     18  C   UNL     1       8.878   0.990  21.424  0.00  0.00    +0.100 C 
ATOM     19  C   UNL     1       9.199  -0.477  21.777  0.00  0.00    +0.120 C 
ENDBRANCH   7  13
BRANCH  10  20
ATOM     20  C   UNL     1       6.591  -4.790  22.217  0.00  0.00    +0.087 C 
ATOM     21  C   UNL     1       5.830  -5.907  21.547  0.00  0.00    +0.027 C 
ATOM     22  C   UNL     1       7.319  -5.848  21.423  0.00  0.00    +0.027 C 
ENDBRANCH  10  20
BRANCH   1  23
ATOM     23  C   UNL     1       5.081  -6.353  26.584  0.00  0.00    +0.342 C 
ATOM     24  O   UNL     1       3.906  -6.527  26.297  0.00  0.00    -0.245 OA
BRANCH  23  25
ATOM     25  O   UNL     1       5.670  -6.989  27.621  0.00  0.00    -0.477 OA
ATOM     26  H   UNL     1       5.955  -6.391  28.355  0.00  0.00    +0.295 HD
ENDBRANCH  23  25
ENDBRANCH   1  23
TORSDOF 4
ENDMDL
MODEL 2
REMARK VINA RESULT:      -7.1      2.569      3.961
REMARK  Name = 
REMARK  4 active torsions:
REMARK  status: ('A' for Active; 'I' for Inactive)
REMARK    1  A    between atoms: O_1  and  C_2
REMARK    2  A    between atoms: C_2  and  C_4
REMARK    3  A    between atoms: N_6  and  C_7
REMARK    4  A    between atoms: C_12  and  N_13
REMARK                            x       y       z     vdW  Elec       q    Type
REMARK                         _______ _______ _______ _____ _____    ______ ____
ROOT
ATOM      1  C   UNL     1       7.829  -3.799  26.141  0.00  0.00    +0.122 A 
ATOM      2  C   UNL     1       8.577  -3.556  24.890  0.00  0.00    +0.203 A 
ATOM      3  O   UNL     1       9.176  -4.477  24.341  0.00  0.00    -0.286 OA
ATOM      4  C   UNL     1       8.615  -2.176  24.354  0.00  0.00    +0.049 A 
ATOM      5  C   UNL     1       7.856  -1.171  24.974  0.00  0.00    +0.055 A 
ATOM      6  C   UNL     1       7.959   0.140  24.465  0.00  0.00    +0.052 A 
ATOM      7  C   UNL     1       8.795   0.484  23.383  0.00  0.00    +0.067 A 
ATOM      8  C   UNL     1       9.508  -0.581  22.795  0.00  0.00    +0.145 A 
ATOM      9  F   UNL     1      10.275  -0.376  21.712  0.00  0.00    -0.204 F 
ATOM     10  N   UNL     1       7.035  -1.503  26.092  0.00  0.00    -0.343 N 
ATOM     11  C   UNL     1       9.429  -1.889  23.263  0.00  0.00    +0.054 A 
ATOM     12  C   UNL     1       7.130  -2.771  26.643  0.00  0.00    +0.105 A 
ENDROOT
BRANCH   7  13
ATOM     13  N   UNL     1       8.890   1.788  22.934  0.00  0.00    -0.325 N 
ATOM     14  C   UNL     1       9.928   2.738  23.363  0.00  0.00    +0.120 C 
ATOM     15  C   UNL     1       9.270   4.092  23.734  0.00  0.00    +0.100 C 
ATOM     16  N   UNL     1       8.394   4.653  22.685  0.00  0.00    -0.313 NA
ATOM     17  H   UNL     1       7.896   5.457  23.065  0.00  0.00    +0.122 HD
ATOM     18  C   UNL     1       7.404   3.636  22.268  0.00  0.00    +0.100 C 
ATOM     19  C   UNL     1       8.058   2.309  21.833  0.00  0.00    +0.120 C 
ENDBRANCH   7  13
BRANCH  10  20
ATOM     20  C   UNL     1       6.324  -0.456  26.852  0.00  0.00    +0.087 C 
ATOM     21  C   UNL     1       5.183  -0.733  27.798  0.00  0.00    +0.027 C 
ATOM     22  C   UNL     1       4.913  -0.064  26.488  0.00  0.00    +0.027 C 
ENDBRANCH  10  20
BRANCH   1  23
ATOM     23  C   UNL     1       7.837  -5.093  26.854  0.00  0.00    +0.342 C 
ATOM     24  O   UNL     1       7.148  -5.321  27.837  0.00  0.00    -0.245 OA
BRANCH  23  25
ATOM     25  O   UNL     1       8.681  -6.014  26.339  0.00  0.00    -0.477 OA
ATOM     26  H   UNL     1       9.638  -5.771  26.406  0.00  0.00    +0.295 HD
ENDBRANCH  23  25
ENDBRANCH   1  23
TORSDOF 4
ENDMDL
MODEL 3
REMARK VINA RESULT:      -7.1      2.294      3.342
REMARK  Name = 
REMARK  4 active torsions:
REMARK  status: ('A' for Active; 'I' for Inactive)
REMARK    1  A    between atoms: O_1  and  C_2
REMARK    2  A    between atoms: C_2  and  C_4
REMARK    3  A    between atoms: N_6  and  C_7
REMARK    4  A    between atoms: C_12  and  N_13
REMARK                            x       y       z     vdW  Elec       q    Type
REMARK                         _______ _______ _______ _____ _____    ______ ____
ROOT
ATOM      1  C   UNL     1       6.861  -4.485  27.016  0.00  0.00    +0.122 A 
ATOM      2  C   UNL     1       7.893  -4.600  25.965  0.00  0.00    +0.203 A 
ATOM      3  O   UNL     1       8.376  -5.695  25.693  0.00  0.00    -0.286 OA
ATOM      4  C   UNL     1       8.349  -3.361  25.295  0.00  0.00    +0.049 A 
ATOM      5  C   UNL     1       7.718  -2.142  25.587  0.00  0.00    +0.055 A 
ATOM      6  C   UNL     1       8.214  -0.977  24.965  0.00  0.00    +0.052 A 
ATOM      7  C   UNL     1       9.317  -0.983  24.087  0.00  0.00    +0.067 A 
ATOM      8  C   UNL     1       9.884  -2.246  23.821  0.00  0.00    +0.145 A 
ATOM      9  F   UNL     1      10.890  -2.373  22.941  0.00  0.00    -0.204 F 
ATOM     10  N   UNL     1       6.624  -2.122  26.503  0.00  0.00    -0.343 N 
ATOM     11  C   UNL     1       9.420  -3.418  24.408  0.00  0.00    +0.054 A 
ATOM     12  C   UNL     1       6.316  -3.275  27.207  0.00  0.00    +0.105 A 
ENDROOT
BRANCH   7  13
ATOM     13  N   UNL     1       9.792   0.186  23.521  0.00  0.00    -0.325 N 
ATOM     14  C   UNL     1      10.582   1.194  24.245  0.00  0.00    +0.120 C 
ATOM     15  C   UNL     1      10.007   2.606  23.962  0.00  0.00    +0.100 C 
ATOM     16  N   UNL     1       9.861   2.929  22.529  0.00  0.00    -0.313 NA
ATOM     17  H   UNL     1       9.348   3.805  22.438  0.00  0.00    +0.122 HD
ATOM     18  C   UNL     1       9.096   1.859  21.852  0.00  0.00    +0.100 C 
ATOM     19  C   UNL     1       9.705   0.459  22.075  0.00  0.00    +0.120 C 
ENDBRANCH   7  13
BRANCH  10  20
ATOM     20  C   UNL     1       6.018  -0.847  26.937  0.00  0.00    +0.087 C 
ATOM     21  C   UNL     1       4.821  -0.755  27.849  0.00  0.00    +0.027 C 
ATOM     22  C   UNL     1       4.676  -0.411  26.401  0.00  0.00    +0.027 C 
ENDBRANCH  10  20
BRANCH   1  23
ATOM     23  C   UNL     1       6.429  -5.619  27.859  0.00  0.00    +0.342 C 
ATOM     24  O   UNL     1       6.533  -5.628  29.077  0.00  0.00    -0.245 OA
BRANCH  23  25
ATOM     25  O   UNL     1       5.913  -6.664  27.175  0.00  0.00    -0.477 OA
ATOM     26  H   UNL     1       5.962  -7.527  27.654  0.00  0.00    +0.295 HD
ENDBRANCH  23  25
ENDBRANCH   1  23
TORSDOF 4
ENDMDL
MODEL 4
REMARK VINA RESULT:      -6.9      4.128      7.513
REMARK  Name = 
REMARK  4 active torsions:
REMARK  status: ('A' for Active; 'I' for Inactive)
REMARK    1  A    between atoms: O_1  and  C_2
REMARK    2  A    between atoms: C_2  and  C_4
REMARK    3  A    between atoms: N_6  and  C_7
REMARK    4  A    between atoms: C_12  and  N_13
REMARK                            x       y       z     vdW  Elec       q    Type
REMARK                         _______ _______ _______ _____ _____    ______ ____
ROOT
ATOM      1  C   UNL     1       9.663   2.861  23.692  0.00  0.00    +0.122 A 
ATOM      2  C   UNL     1      10.260   1.555  24.040  0.00  0.00    +0.203 A 
ATOM      3  O   UNL     1      11.430   1.490  24.405  0.00  0.00    -0.286 OA
ATOM      4  C   UNL     1       9.423   0.342  23.893  0.00  0.00    +0.049 A 
ATOM      5  C   UNL     1       8.070   0.472  23.543  0.00  0.00    +0.055 A 
ATOM      6  C   UNL     1       7.320  -0.709  23.363  0.00  0.00    +0.052 A 
ATOM      7  C   UNL     1       7.870  -2.000  23.501  0.00  0.00    +0.067 A 
ATOM      8  C   UNL     1       9.228  -2.052  23.879  0.00  0.00    +0.145 A 
ATOM      9  F   UNL     1       9.830  -3.230  24.110  0.00  0.00    -0.204 F 
ATOM     10  N   UNL     1       7.514   1.774  23.366  0.00  0.00    -0.343 N 
ATOM     11  C   UNL     1      10.000  -0.911  24.072  0.00  0.00    +0.054 A 
ATOM     12  C   UNL     1       8.358   2.873  23.381  0.00  0.00    +0.105 A 
ENDROOT
BRANCH   7  13
ATOM     13  N   UNL     1       7.108  -3.133  23.287  0.00  0.00    -0.325 N 
ATOM     14  C   UNL     1       7.383  -4.130  22.241  0.00  0.00    +0.120 C 
ATOM     15  C   UNL     1       6.073  -4.460  21.481  0.00  0.00    +0.100 C 
ATOM     16  N   UNL     1       4.946  -4.855  22.350  0.00  0.00    -0.313 NA
ATOM     17  H   UNL     1       4.098  -4.911  21.788  0.00  0.00    +0.122 HD
ATOM     18  C   UNL     1       4.749  -3.835  23.404  0.00  0.00    +0.100 C 
ATOM     19  C   UNL     1       6.035  -3.552  24.208  0.00  0.00    +0.120 C 
ENDBRANCH   7  13
BRANCH  10  20
ATOM     20  C   UNL     1       6.134   1.951  22.872  0.00  0.00    +0.087 C 
ATOM     21  C   UNL     1       5.508   3.295  22.596  0.00  0.00    +0.027 C 
ATOM     22  C   UNL     1       5.057   2.498  23.778  0.00  0.00    +0.027 C 
ENDBRANCH  10  20
BRANCH   1  23
ATOM     23  C   UNL     1      10.432   4.122  23.653  0.00  0.00    +0.342 C 
ATOM     24  O   UNL     1      10.051   5.157  24.180  0.00  0.00    -0.245 OA
BRANCH  23  25
ATOM     25  O   UNL     1      11.599   4.048  22.975  0.00  0.00    -0.477 OA
ATOM     26  H   UNL     1      12.252   3.413  23.360  0.00  0.00    +0.295 HD
ENDBRANCH  23  25
ENDBRANCH   1  23
TORSDOF 4
ENDMDL
MODEL 5
REMARK VINA RESULT:      -6.9      1.828      2.285
REMARK  Name = 
REMARK  4 active torsions:
REMARK  status: ('A' for Active; 'I' for Inactive)
REMARK    1  A    between atoms: O_1  and  C_2
REMARK    2  A    between atoms: C_2  and  C_4
REMARK    3  A    between atoms: N_6  and  C_7
REMARK    4  A    between atoms: C_12  and  N_13
REMARK                            x       y       z     vdW  Elec       q    Type
REMARK                         _______ _______ _______ _____ _____    ______ ____
ROOT
ATOM      1  C   UNL     1       5.375  -5.966  26.971  0.00  0.00    +0.122 A 
ATOM      2  C   UNL     1       6.741  -5.406  26.920  0.00  0.00    +0.203 A 
ATOM      3  O   UNL     1       7.572  -5.730  27.765  0.00  0.00    -0.286 OA
ATOM      4  C   UNL     1       7.055  -4.423  25.859  0.00  0.00    +0.049 A 
ATOM      5  C   UNL     1       6.099  -4.138  24.873  0.00  0.00    +0.055 A 
ATOM      6  C   UNL     1       6.417  -3.159  23.908  0.00  0.00    +0.052 A 
ATOM      7  C   UNL     1       7.635  -2.449  23.904  0.00  0.00    +0.067 A 
ATOM      8  C   UNL     1       8.558  -2.806  24.909  0.00  0.00    +0.145 A 
ATOM      9  F   UNL     1       9.777  -2.245  24.950  0.00  0.00    -0.204 F 
ATOM     10  N   UNL     1       4.849  -4.825  24.891  0.00  0.00    -0.343 N 
ATOM     11  C   UNL     1       8.284  -3.770  25.873  0.00  0.00    +0.054 A 
ATOM     12  C   UNL     1       4.543  -5.636  25.972  0.00  0.00    +0.105 A 
ENDROOT
BRANCH   7  13
ATOM     13  N   UNL     1       7.896  -1.475  22.959  0.00  0.00    -0.325 N 
ATOM     14  C   UNL     1       8.804  -1.653  21.815  0.00  0.00    +0.120 C 
ATOM     15  C   UNL     1       9.755  -0.432  21.712  0.00  0.00    +0.100 C 
ATOM     16  N   UNL     1       9.068   0.875  21.685  0.00  0.00    -0.313 NA
ATOM     17  H   UNL     1       9.764   1.616  21.762  0.00  0.00    +0.122 HD
ATOM     18  C   UNL     1       8.141   0.973  22.833  0.00  0.00    +0.100 C 
ATOM     19  C   UNL     1       7.148  -0.206  22.902  0.00  0.00    +0.120 C 
ENDBRANCH   7  13
BRANCH  10  20
ATOM     20  C   UNL     1       3.767  -4.463  23.953  0.00  0.00    +0.087 C 
ATOM     21  C   UNL     1       2.315  -4.803  24.175  0.00  0.00    +0.027 C 
ATOM     22  C   UNL     1       3.089  -5.520  23.115  0.00  0.00    +0.027 C 
ENDBRANCH  10  20
BRANCH   1  23
ATOM     23  C   UNL     1       4.893  -6.837  28.062  0.00  0.00    +0.342 C 
ATOM     24  O   UNL     1       3.762  -6.776  28.521  0.00  0.00    -0.245 OA
BRANCH  23  25
ATOM     25  O   UNL     1       5.811  -7.713  28.528  0.00  0.00    -0.477 OA
ATOM     26  H   UNL     1       6.439  -8.048  27.841  0.00  0.00    +0.295 HD
ENDBRANCH  23  25
ENDBRANCH   1  23
TORSDOF 4
ENDMDL
MODEL 6
REMARK VINA RESULT:      -6.9      4.352      7.704
REMARK  Name = 
REMARK  4 active torsions:
REMARK  status: ('A' for Active; 'I' for Inactive)
REMARK    1  A    between atoms: O_1  and  C_2
REMARK    2  A    between atoms: C_2  and  C_4
REMARK    3  A    between atoms: N_6  and  C_7
REMARK    4  A    between atoms: C_12  and  N_13
REMARK                            x       y       z     vdW  Elec       q    Type
REMARK                         _______ _______ _______ _____ _____    ______ ____
ROOT
ATOM      1  C   UNL     1       8.861   3.042  24.701  0.00  0.00    +0.122 A 
ATOM      2  C   UNL     1       9.750   1.981  24.184  0.00  0.00    +0.203 A 
ATOM      3  O   UNL     1      10.720   2.274  23.491  0.00  0.00    -0.286 OA
ATOM      4  C   UNL     1       9.411   0.573  24.490  0.00  0.00    +0.049 A 
ATOM      5  C   UNL     1       8.336   0.289  25.346  0.00  0.00    +0.055 A 
ATOM      6  C   UNL     1       8.013  -1.065  25.573  0.00  0.00    +0.052 A 
ATOM      7  C   UNL     1       8.706  -2.134  24.968  0.00  0.00    +0.067 A 
ATOM      8  C   UNL     1       9.790  -1.774  24.140  0.00  0.00    +0.145 A 
ATOM      9  F   UNL     1      10.562  -2.716  23.576  0.00  0.00    -0.204 F 
ATOM     10  N   UNL     1       7.606   1.365  25.934  0.00  0.00    -0.343 N 
ATOM     11  C   UNL     1      10.144  -0.451  23.897  0.00  0.00    +0.054 A 
ATOM     12  C   UNL     1       7.869   2.661  25.519  0.00  0.00    +0.105 A 
ENDROOT
BRANCH   7  13
ATOM     13  N   UNL     1       8.339  -3.447  25.192  0.00  0.00    -0.325 N 
ATOM     14  C   UNL     1       7.689  -4.308  24.192  0.00  0.00    +0.120 C 
ATOM     15  C   UNL     1       6.476  -5.028  24.835  0.00  0.00    +0.100 C 
ATOM     16  N   UNL     1       6.790  -5.755  26.082  0.00  0.00    -0.313 NA
ATOM     17  H   UNL     1       5.920  -6.072  26.509  0.00  0.00    +0.122 HD
ATOM     18  C   UNL     1       7.478  -4.849  27.027  0.00  0.00    +0.100 C 
ATOM     19  C   UNL     1       8.726  -4.181  26.411  0.00  0.00    +0.120 C 
ENDBRANCH   7  13
BRANCH  10  20
ATOM     20  C   UNL     1       6.391   1.113  26.734  0.00  0.00    +0.087 C 
ATOM     21  C   UNL     1       5.700   2.166  27.564  0.00  0.00    +0.027 C 
ATOM     22  C   UNL     1       6.457   1.069  28.242  0.00  0.00    +0.027 C 
ENDBRANCH  10  20
BRANCH   1  23
ATOM     23  C   UNL     1       9.004   4.468  24.345  0.00  0.00    +0.342 C 
ATOM     24  O   UNL     1       9.036   5.367  25.172  0.00  0.00    -0.245 OA
BRANCH  23  25
ATOM     25  O   UNL     1       9.087   4.710  23.017  0.00  0.00    -0.477 OA
ATOM     26  H   UNL     1       8.423   4.220  22.473  0.00  0.00    +0.295 HD
ENDBRANCH  23  25
ENDBRANCH   1  23
TORSDOF 4
ENDMDL
MODEL 7
REMARK VINA RESULT:      -6.8      3.878      7.435
REMARK  Name = 
REMARK  4 active torsions:
REMARK  status: ('A' for Active; 'I' for Inactive)
REMARK    1  A    between atoms: O_1  and  C_2
REMARK    2  A    between atoms: C_2  and  C_4
REMARK    3  A    between atoms: N_6  and  C_7
REMARK    4  A    between atoms: C_12  and  N_13
REMARK                            x       y       z     vdW  Elec       q    Type
REMARK                         _______ _______ _______ _____ _____    ______ ____
ROOT
ATOM      1  C   UNL     1       8.272   0.890  22.811  0.00  0.00    +0.122 A 
ATOM      2  C   UNL     1       8.579  -0.463  22.305  0.00  0.00    +0.203 A 
ATOM      3  O   UNL     1       9.124  -0.604  21.214  0.00  0.00    -0.286 OA
ATOM      4  C   UNL     1       8.174  -1.626  23.127  0.00  0.00    +0.049 A 
ATOM      5  C   UNL     1       7.620  -1.417  24.399  0.00  0.00    +0.055 A 
ATOM      6  C   UNL     1       7.200  -2.548  25.130  0.00  0.00    +0.052 A 
ATOM      7  C   UNL     1       7.295  -3.864  24.634  0.00  0.00    +0.067 A 
ATOM      8  C   UNL     1       7.885  -4.000  23.360  0.00  0.00    +0.145 A 
ATOM      9  F   UNL     1       8.092  -5.215  22.827  0.00  0.00    -0.204 F 
ATOM     10  N   UNL     1       7.487  -0.085  24.894  0.00  0.00    -0.343 N 
ATOM     11  C   UNL     1       8.318  -2.911  22.611  0.00  0.00    +0.054 A 
ATOM     12  C   UNL     1       7.753   0.977  24.045  0.00  0.00    +0.105 A 
ENDROOT
BRANCH   7  13
ATOM     13  N   UNL     1       6.844  -4.944  25.370  0.00  0.00    -0.325 N 
ATOM     14  C   UNL     1       5.693  -5.779  24.994  0.00  0.00    +0.120 C 
ATOM     15  C   UNL     1       4.771  -5.978  26.225  0.00  0.00    +0.100 C 
ATOM     16  N   UNL     1       5.462  -6.483  27.428  0.00  0.00    -0.313 NA
ATOM     17  H   UNL     1       4.820  -6.446  28.219  0.00  0.00    +0.122 HD
ATOM     18  C   UNL     1       6.632  -5.628  27.727  0.00  0.00    +0.100 C 
ATOM     19  C   UNL     1       7.587  -5.482  26.524  0.00  0.00    +0.120 C 
ENDBRANCH   7  13
BRANCH  10  20
ATOM     20  C   UNL     1       6.792   0.187  26.168  0.00  0.00    +0.087 C 
ATOM     21  C   UNL     1       6.868   1.503  26.901  0.00  0.00    +0.027 C 
ATOM     22  C   UNL     1       7.568   0.305  27.458  0.00  0.00    +0.027 C 
ENDBRANCH  10  20
BRANCH   1  23
ATOM     23  C   UNL     1       8.489   2.122  22.025  0.00  0.00    +0.342 C 
ATOM     24  O   UNL     1       7.629   2.974  21.860  0.00  0.00    -0.245 OA
BRANCH  23  25
ATOM     25  O   UNL     1       9.723   2.233  21.485  0.00  0.00    -0.477 OA
ATOM     26  H   UNL     1      10.253   1.398  21.507  0.00  0.00    +0.295 HD
ENDBRANCH  23  25
ENDBRANCH   1  23
TORSDOF 4
ENDMDL
MODEL 8
REMARK VINA RESULT:      -6.8      2.924      4.332
REMARK  Name = 
REMARK  4 active torsions:
REMARK  status: ('A' for Active; 'I' for Inactive)
REMARK    1  A    between atoms: O_1  and  C_2
REMARK    2  A    between atoms: C_2  and  C_4
REMARK    3  A    between atoms: N_6  and  C_7
REMARK    4  A    between atoms: C_12  and  N_13
REMARK                            x       y       z     vdW  Elec       q    Type
REMARK                         _______ _______ _______ _____ _____    ______ ____
ROOT
ATOM      1  C   UNL     1       8.437  -3.689  25.765  0.00  0.00    +0.122 A 
ATOM      2  C   UNL     1       9.183  -2.967  24.714  0.00  0.00    +0.203 A 
ATOM      3  O   UNL     1      10.070  -3.538  24.085  0.00  0.00    -0.286 OA
ATOM      4  C   UNL     1       8.858  -1.542  24.479  0.00  0.00    +0.049 A 
ATOM      5  C   UNL     1       7.788  -0.952  25.169  0.00  0.00    +0.055 A 
ATOM      6  C   UNL     1       7.543   0.421  24.956  0.00  0.00    +0.052 A 
ATOM      7  C   UNL     1       8.330   1.221  24.102  0.00  0.00    +0.067 A 
ATOM      8  C   UNL     1       9.371   0.554  23.423  0.00  0.00    +0.145 A 
ATOM      9  F   UNL     1      10.133   1.206  22.529  0.00  0.00    -0.204 F 
ATOM     10  N   UNL     1       7.010  -1.745  26.063  0.00  0.00    -0.343 N 
ATOM     11  C   UNL     1       9.641  -0.799  23.601  0.00  0.00    +0.054 A 
ATOM     12  C   UNL     1       7.426  -3.034  26.355  0.00  0.00    +0.105 A 
ENDROOT
BRANCH   7  13
ATOM     13  N   UNL     1       8.075   2.570  23.943  0.00  0.00    -0.325 N 
ATOM     14  C   UNL     1       6.924   3.115  23.206  0.00  0.00    +0.120 C 
ATOM     15  C   UNL     1       7.405   4.230  22.243  0.00  0.00    +0.100 C 
ATOM     16  N   UNL     1       8.211   5.287  22.887  0.00  0.00    -0.313 NA
ATOM     17  H   UNL     1       8.601   5.892  22.165  0.00  0.00    +0.122 HD
ATOM     18  C   UNL     1       9.323   4.673  23.645  0.00  0.00    +0.100 C 
ATOM     19  C   UNL     1       8.842   3.609  24.654  0.00  0.00    +0.120 C 
ENDBRANCH   7  13
BRANCH  10  20
ATOM     20  C   UNL     1       5.961  -1.135  26.905  0.00  0.00    +0.087 C 
ATOM     21  C   UNL     1       4.926  -1.929  27.663  0.00  0.00    +0.027 C 
ATOM     22  C   UNL     1       4.518  -1.139  26.460  0.00  0.00    +0.027 C 
ENDBRANCH  10  20
BRANCH   1  23
ATOM     23  C   UNL     1       8.764  -5.064  26.196  0.00  0.00    +0.342 C 
ATOM     24  O   UNL     1       7.940  -5.832  26.671  0.00  0.00    -0.245 OA
BRANCH  23  25
ATOM     25  O   UNL     1      10.060  -5.410  26.034  0.00  0.00    -0.477 OA
ATOM     26  H   UNL     1      10.362  -6.141  26.627  0.00  0.00    +0.295 HD
ENDBRANCH  23  25
ENDBRANCH   1  23
TORSDOF 4
ENDMDL
MODEL 9
REMARK VINA RESULT:      -6.7      4.877      8.328
REMARK  Name = 
REMARK  4 active torsions:
REMARK  status: ('A' for Active; 'I' for Inactive)
REMARK    1  A    between atoms: O_1  and  C_2
REMARK    2  A    between atoms: C_2  and  C_4
REMARK    3  A    between atoms: N_6  and  C_7
REMARK    4  A    between atoms: C_12  and  N_13
REMARK                            x       y       z     vdW  Elec       q    Type
REMARK                         _______ _______ _______ _____ _____    ______ ____
ROOT
ATOM      1  C   UNL     1       9.691   4.494  24.147  0.00  0.00    +0.122 A 
ATOM      2  C   UNL     1      10.460   3.353  23.610  0.00  0.00    +0.203 A 
ATOM      3  O   UNL     1      11.485   3.551  22.965  0.00  0.00    -0.286 OA
ATOM      4  C   UNL     1       9.935   1.987  23.836  0.00  0.00    +0.049 A 
ATOM      5  C   UNL     1       8.800   1.805  24.641  0.00  0.00    +0.055 A 
ATOM      6  C   UNL     1       8.301   0.494  24.790  0.00  0.00    +0.052 A 
ATOM      7  C   UNL     1       8.877  -0.626  24.158  0.00  0.00    +0.067 A 
ATOM      8  C   UNL     1      10.029  -0.371  23.385  0.00  0.00    +0.145 A 
ATOM      9  F   UNL     1      10.699  -1.378  22.802  0.00  0.00    -0.204 F 
ATOM     10  N   UNL     1       8.188   2.938  25.255  0.00  0.00    -0.343 N 
ATOM     11  C   UNL     1      10.556   0.906  23.219  0.00  0.00    +0.054 A 
ATOM     12  C   UNL     1       8.627   4.207  24.913  0.00  0.00    +0.105 A 
ENDROOT
BRANCH   7  13
ATOM     13  N   UNL     1       8.340  -1.891  24.305  0.00  0.00    -0.325 N 
ATOM     14  C   UNL     1       8.676  -2.811  25.403  0.00  0.00    +0.120 C 
ATOM     15  C   UNL     1       8.975  -4.219  24.826  0.00  0.00    +0.100 C 
ATOM     16  N   UNL     1       7.915  -4.756  23.949  0.00  0.00    -0.313 NA
ATOM     17  H   UNL     1       8.254  -5.609  23.504  0.00  0.00    +0.122 HD
ATOM     18  C   UNL     1       7.594  -3.769  22.895  0.00  0.00    +0.100 C 
ATOM     19  C   UNL     1       7.230  -2.383  23.468  0.00  0.00    +0.120 C 
ENDBRANCH   7  13
BRANCH  10  20
ATOM     20  C   UNL     1       6.920   2.808  26.001  0.00  0.00    +0.087 C 
ATOM     21  C   UNL     1       6.329   3.906  26.849  0.00  0.00    +0.027 C 
ATOM     22  C   UNL     1       6.921   2.700  27.506  0.00  0.00    +0.027 C 
ENDBRANCH  10  20
BRANCH   1  23
ATOM     23  C   UNL     1      10.025   5.905  23.866  0.00  0.00    +0.342 C 
ATOM     24  O   UNL     1       9.205   6.727  23.486  0.00  0.00    -0.245 OA
BRANCH  23  25
ATOM     25  O   UNL     1      11.326   6.222  24.053  0.00  0.00    -0.477 OA
ATOM     26  H   UNL     1      11.743   5.781  24.834  0.00  0.00    +0.295 HD
ENDBRANCH  23  25
ENDBRANCH   1  23
TORSDOF 4
ENDMDL
