MODEL 1
REMARK VINA RESULT:      -6.7      0.000      0.000
REMARK  Name = 
REMARK  7 active torsions:
REMARK  status: ('A' for Active; 'I' for Inactive)
REMARK    1  A    between atoms: C_1  and  N_2
REMARK    2  A    between atoms: N_2  and  C_3
REMARK    3  A    between atoms: N_2  and  C_4
REMARK    4  A    between atoms: C_7  and  N_10
REMARK    5  A    between atoms: N_11  and  C_12
REMARK    6  A    between atoms: C_17  and  C_18
REMARK    7  A    between atoms: C_18  and  O_19
REMARK                            x       y       z     vdW  Elec       q    Type
REMARK                         _______ _______ _______ _____ _____    ______ ____
ROOT
ATOM      1  N   UNL     1       9.033  -1.784  22.514  0.00  0.00    -0.149 NA
ATOM      2  N   UNL     1       8.052  -2.116  23.214  0.00  0.00    -0.148 NA
ENDROOT
BRANCH   1   6
ATOM      3  C   UNL     1      10.170   2.259  23.349  0.00  0.00    +0.029 A 
ATOM      4  C   UNL     1      10.049   1.300  24.369  0.00  0.00    +0.025 A 
ATOM      5  C   UNL     1       9.690  -0.030  24.109  0.00  0.00    +0.031 A 
ATOM      6  C   UNL     1       9.452  -0.469  22.805  0.00  0.00    +0.086 A 
ATOM      7  C   UNL     1       9.561   0.465  21.776  0.00  0.00    +0.031 A 
ATOM      8  C   UNL     1       9.907   1.800  22.047  0.00  0.00    +0.025 A 
BRANCH   3  10
ATOM      9  C   UNL     1       9.452   4.577  23.853  0.00  0.00    +0.129 C 
ATOM     10  N   UNL     1      10.496   3.585  23.626  0.00  0.00    -0.336 N 
ATOM     11  C   UNL     1      11.821   4.088  23.272  0.00  0.00    +0.129 C 
ENDBRANCH   3  10
ENDBRANCH   1   6
BRANCH   2  12
ATOM     12  C   UNL     1       7.520  -3.369  22.832  0.00  0.00    +0.100 A 
ATOM     13  C   UNL     1       7.936  -4.546  23.480  0.00  0.00    +0.086 A 
ATOM     14  C   UNL     1       7.442  -5.796  23.063  0.00  0.00    +0.017 A 
ATOM     15  C   UNL     1       6.551  -5.885  21.995  0.00  0.00    +0.001 A 
ATOM     16  C   UNL     1       6.136  -4.728  21.344  0.00  0.00    +0.002 A 
ATOM     17  C   UNL     1       6.619  -3.482  21.757  0.00  0.00    +0.030 A 
BRANCH  13  18
ATOM     18  C   UNL     1       8.875  -4.560  24.637  0.00  0.00    +0.339 C 
ATOM     19  O   UNL     1       8.631  -5.170  25.666  0.00  0.00    -0.245 OA
BRANCH  18  20
ATOM     20  O   UNL     1      10.046  -3.920  24.440  0.00  0.00    -0.477 OA
ATOM     21  H   UNL     1      10.759  -4.484  24.078  0.00  0.00    +0.295 HD
ENDBRANCH  18  20
ENDBRANCH  13  18
ENDBRANCH   2  12
TORSDOF 5
ENDMDL
MODEL 2
REMARK VINA RESULT:      -6.1      1.235      1.518
REMARK  Name = 
REMARK  7 active torsions:
REMARK  status: ('A' for Active; 'I' for Inactive)
REMARK    1  A    between atoms: C_1  and  N_2
REMARK    2  A    between atoms: N_2  and  C_3
REMARK    3  A    between atoms: N_2  and  C_4
REMARK    4  A    between atoms: C_7  and  N_10
REMARK    5  A    between atoms: N_11  and  C_12
REMARK    6  A    between atoms: C_17  and  C_18
REMARK    7  A    between atoms: C_18  and  O_19
REMARK                            x       y       z     vdW  Elec       q    Type
REMARK                         _______ _______ _______ _____ _____    ______ ____
ROOT
ATOM      1  N   UNL     1       8.273  -1.656  22.287  0.00  0.00    -0.149 NA
ATOM      2  N   UNL     1       7.335  -2.166  22.936  0.00  0.00    -0.148 NA
ENDROOT
BRANCH   1   6
ATOM      3  C   UNL     1       8.507   2.586  22.824  0.00  0.00    +0.029 A 
ATOM      4  C   UNL     1       7.510   1.817  23.447  0.00  0.00    +0.025 A 
ATOM      5  C   UNL     1       7.429   0.426  23.292  0.00  0.00    +0.031 A 
ATOM      6  C   UNL     1       8.360  -0.266  22.513  0.00  0.00    +0.086 A 
ATOM      7  C   UNL     1       9.355   0.476  21.880  0.00  0.00    +0.031 A 
ATOM      8  C   UNL     1       9.421   1.872  22.029  0.00  0.00    +0.025 A 
BRANCH   3  10
ATOM      9  C   UNL     1       9.491   4.595  23.891  0.00  0.00    +0.129 C 
ATOM     10  N   UNL     1       8.556   3.972  22.962  0.00  0.00    -0.336 N 
ATOM     11  C   UNL     1       7.418   4.779  22.527  0.00  0.00    +0.129 C 
ENDBRANCH   3  10
ENDBRANCH   1   6
BRANCH   2  12
ATOM     12  C   UNL     1       7.133  -3.527  22.607  0.00  0.00    +0.100 A 
ATOM     13  C   UNL     1       7.825  -4.536  23.300  0.00  0.00    +0.086 A 
ATOM     14  C   UNL     1       7.660  -5.885  22.936  0.00  0.00    +0.017 A 
ATOM     15  C   UNL     1       6.826  -6.236  21.876  0.00  0.00    +0.001 A 
ATOM     16  C   UNL     1       6.139  -5.246  21.182  0.00  0.00    +0.002 A 
ATOM     17  C   UNL     1       6.294  -3.903  21.543  0.00  0.00    +0.030 A 
BRANCH  13  18
ATOM     18  C   UNL     1       8.732  -4.270  24.452  0.00  0.00    +0.339 C 
ATOM     19  O   UNL     1       8.539  -4.750  25.558  0.00  0.00    -0.245 OA
BRANCH  18  20
ATOM     20  O   UNL     1       9.823  -3.527  24.172  0.00  0.00    -0.477 OA
ATOM     21  H   UNL     1      10.657  -4.037  24.120  0.00  0.00    +0.295 HD
ENDBRANCH  18  20
ENDBRANCH  13  18
ENDBRANCH   2  12
TORSDOF 5
ENDMDL
MODEL 3
REMARK VINA RESULT:      -6.0      2.988      7.823
REMARK  Name = 
REMARK  7 active torsions:
REMARK  status: ('A' for Active; 'I' for Inactive)
REMARK    1  A    between atoms: C_1  and  N_2
REMARK    2  A    between atoms: N_2  and  C_3
REMARK    3  A    between atoms: N_2  and  C_4
REMARK    4  A    between atoms: C_7  and  N_10
REMARK    5  A    between atoms: N_11  and  C_12
REMARK    6  A    between atoms: C_17  and  C_18
REMARK    7  A    between atoms: C_18  and  O_19
REMARK                            x       y       z     vdW  Elec       q    Type
REMARK                         _______ _______ _______ _____ _____    ______ ____
ROOT
ATOM      1  N   UNL     1      10.391   1.227  24.605  0.00  0.00    -0.149 NA
ATOM      2  N   UNL     1       9.992   1.874  23.613  0.00  0.00    -0.148 NA
ENDROOT
BRANCH   1   6
ATOM      3  C   UNL     1       9.084  -2.850  24.542  0.00  0.00    +0.029 A 
ATOM      4  C   UNL     1       8.751  -1.985  25.597  0.00  0.00    +0.025 A 
ATOM      5  C   UNL     1       9.160  -0.644  25.625  0.00  0.00    +0.031 A 
ATOM      6  C   UNL     1       9.912  -0.100  24.581  0.00  0.00    +0.086 A 
ATOM      7  C   UNL     1      10.260  -0.941  23.525  0.00  0.00    +0.031 A 
ATOM      8  C   UNL     1       9.858  -2.288  23.512  0.00  0.00    +0.025 A 
BRANCH   3  10
ATOM      9  C   UNL     1       9.454  -5.182  25.294  0.00  0.00    +0.129 C 
ATOM     10  N   UNL     1       8.697  -4.189  24.543  0.00  0.00    -0.336 N 
ATOM     11  C   UNL     1       7.824  -4.686  23.482  0.00  0.00    +0.129 C 
ENDBRANCH   3  10
ENDBRANCH   1   6
BRANCH   2  12
ATOM     12  C   UNL     1      10.331   3.244  23.695  0.00  0.00    +0.100 A 
ATOM     13  C   UNL     1       9.377   4.190  24.112  0.00  0.00    +0.086 A 
ATOM     14  C   UNL     1       9.704   5.558  24.144  0.00  0.00    +0.017 A 
ATOM     15  C   UNL     1      10.967   5.995  23.748  0.00  0.00    +0.001 A 
ATOM     16  C   UNL     1      11.917   5.068  23.331  0.00  0.00    +0.002 A 
ATOM     17  C   UNL     1      11.600   3.706  23.302  0.00  0.00    +0.030 A 
BRANCH  13  18
ATOM     18  C   UNL     1       8.004   3.828  24.565  0.00  0.00    +0.339 C 
ATOM     19  O   UNL     1       7.002   4.235  23.997  0.00  0.00    -0.245 OA
BRANCH  18  20
ATOM     20  O   UNL     1       7.944   2.958  25.594  0.00  0.00    -0.477 OA
ATOM     21  H   UNL     1       8.387   3.266  26.411  0.00  0.00    +0.295 HD
ENDBRANCH  18  20
ENDBRANCH  13  18
ENDBRANCH   2  12
TORSDOF 5
ENDMDL
MODEL 4
REMARK VINA RESULT:      -5.9      2.168      3.047
REMARK  Name = 
REMARK  7 active torsions:
REMARK  status: ('A' for Active; 'I' for Inactive)
REMARK    1  A    between atoms: C_1  and  N_2
REMARK    2  A    between atoms: N_2  and  C_3
REMARK    3  A    between atoms: N_2  and  C_4
REMARK    4  A    between atoms: C_7  and  N_10
REMARK    5  A    between atoms: N_11  and  C_12
REMARK    6  A    between atoms: C_17  and  C_18
REMARK    7  A    between atoms: C_18  and  O_19
REMARK                            x       y       z     vdW  Elec       q    Type
REMARK                         _______ _______ _______ _____ _____    ______ ____
ROOT
ATOM      1  N   UNL     1       9.644  -0.620  24.954  0.00  0.00    -0.149 NA
ATOM      2  N   UNL     1       8.490  -1.091  25.044  0.00  0.00    -0.148 NA
ENDROOT
BRANCH   1   6
ATOM      3  C   UNL     1       9.556   3.553  23.998  0.00  0.00    +0.029 A 
ATOM      4  C   UNL     1       8.513   2.937  24.710  0.00  0.00    +0.025 A 
ATOM      5  C   UNL     1       8.535   1.574  25.042  0.00  0.00    +0.031 A 
ATOM      6  C   UNL     1       9.617   0.765  24.688  0.00  0.00    +0.086 A 
ATOM      7  C   UNL     1      10.661   1.353  23.975  0.00  0.00    +0.031 A 
ATOM      8  C   UNL     1      10.625   2.716  23.634  0.00  0.00    +0.025 A 
BRANCH   3  10
ATOM      9  C   UNL     1      10.669   5.761  23.828  0.00  0.00    +0.129 C 
ATOM     10  N   UNL     1       9.506   4.900  23.647  0.00  0.00    -0.336 N 
ATOM     11  C   UNL     1       8.210   5.561  23.511  0.00  0.00    +0.129 C 
ENDBRANCH   3  10
ENDBRANCH   1   6
BRANCH   2  12
ATOM     12  C   UNL     1       8.493  -2.500  25.156  0.00  0.00    +0.100 A 
ATOM     13  C   UNL     1       8.269  -3.304  24.024  0.00  0.00    +0.086 A 
ATOM     14  C   UNL     1       8.223  -4.705  24.150  0.00  0.00    +0.017 A 
ATOM     15  C   UNL     1       8.380  -5.311  25.395  0.00  0.00    +0.001 A 
ATOM     16  C   UNL     1       8.599  -4.525  26.522  0.00  0.00    +0.002 A 
ATOM     17  C   UNL     1       8.651  -3.132  26.403  0.00  0.00    +0.030 A 
BRANCH  13  18
ATOM     18  C   UNL     1       8.100  -2.759  22.648  0.00  0.00    +0.339 C 
ATOM     19  O   UNL     1       7.096  -2.966  21.984  0.00  0.00    -0.245 OA
BRANCH  18  20
ATOM     20  O   UNL     1       9.094  -1.955  22.217  0.00  0.00    -0.477 OA
ATOM     21  H   UNL     1       9.277  -1.190  22.799  0.00  0.00    +0.295 HD
ENDBRANCH  18  20
ENDBRANCH  13  18
ENDBRANCH   2  12
TORSDOF 5
ENDMDL
MODEL 5
REMARK VINA RESULT:      -5.8      2.772      3.535
REMARK  Name = 
REMARK  7 active torsions:
REMARK  status: ('A' for Active; 'I' for Inactive)
REMARK    1  A    between atoms: C_1  and  N_2
REMARK    2  A    between atoms: N_2  and  C_3
REMARK    3  A    between atoms: N_2  and  C_4
REMARK    4  A    between atoms: C_7  and  N_10
REMARK    5  A    between atoms: N_11  and  C_12
REMARK    6  A    between atoms: C_17  and  C_18
REMARK    7  A    between atoms: C_18  and  O_19
REMARK                            x       y       z     vdW  Elec       q    Type
REMARK                         _______ _______ _______ _____ _____    ______ ____
ROOT
ATOM      1  N   UNL     1       7.291  -4.065  24.276  0.00  0.00    -0.149 NA
ATOM      2  N   UNL     1       6.375  -3.804  25.085  0.00  0.00    -0.148 NA
ENDROOT
BRANCH   1   6
ATOM      3  C   UNL     1       9.453  -0.492  23.331  0.00  0.00    +0.029 A 
ATOM      4  C   UNL     1       9.676  -1.195  24.527  0.00  0.00    +0.025 A 
ATOM      5  C   UNL     1       8.986  -2.374  24.843  0.00  0.00    +0.031 A 
ATOM      6  C   UNL     1       8.046  -2.915  23.963  0.00  0.00    +0.086 A 
ATOM      7  C   UNL     1       7.802  -2.231  22.773  0.00  0.00    +0.031 A 
ATOM      8  C   UNL     1       8.489  -1.043  22.469  0.00  0.00    +0.025 A 
BRANCH   3  10
ATOM      9  C   UNL     1      10.794   1.446  24.099  0.00  0.00    +0.129 C 
ATOM     10  N   UNL     1      10.123   0.695  23.044  0.00  0.00    -0.336 N 
ATOM     11  C   UNL     1       9.811   1.419  21.814  0.00  0.00    +0.129 C 
ENDBRANCH   3  10
ENDBRANCH   1   6
BRANCH   2  12
ATOM     12  C   UNL     1       5.514  -4.906  25.293  0.00  0.00    +0.100 A 
ATOM     13  C   UNL     1       5.706  -5.761  26.393  0.00  0.00    +0.086 A 
ATOM     14  C   UNL     1       4.878  -6.885  26.568  0.00  0.00    +0.017 A 
ATOM     15  C   UNL     1       3.871  -7.174  25.649  0.00  0.00    +0.001 A 
ATOM     16  C   UNL     1       3.674  -6.336  24.556  0.00  0.00    +0.002 A 
ATOM     17  C   UNL     1       4.490  -5.215  24.379  0.00  0.00    +0.030 A 
BRANCH  13  18
ATOM     18  C   UNL     1       6.745  -5.538  27.437  0.00  0.00    +0.339 C 
ATOM     19  O   UNL     1       6.458  -5.287  28.598  0.00  0.00    -0.245 OA
BRANCH  18  20
ATOM     20  O   UNL     1       8.020  -5.710  27.033  0.00  0.00    -0.477 OA
ATOM     21  H   UNL     1       8.542  -6.324  27.589  0.00  0.00    +0.295 HD
ENDBRANCH  18  20
ENDBRANCH  13  18
ENDBRANCH   2  12
TORSDOF 5
ENDMDL
MODEL 6
REMARK VINA RESULT:      -5.6      2.837      7.361
REMARK  Name = 
REMARK  7 active torsions:
REMARK  status: ('A' for Active; 'I' for Inactive)
REMARK    1  A    between atoms: C_1  and  N_2
REMARK    2  A    between atoms: N_2  and  C_3
REMARK    3  A    between atoms: N_2  and  C_4
REMARK    4  A    between atoms: C_7  and  N_10
REMARK    5  A    between atoms: N_11  and  C_12
REMARK    6  A    between atoms: C_17  and  C_18
REMARK    7  A    between atoms: C_18  and  O_19
REMARK                            x       y       z     vdW  Elec       q    Type
REMARK                         _______ _______ _______ _____ _____    ______ ____
ROOT
ATOM      1  N   UNL     1       6.643  -2.149  22.979  0.00  0.00    -0.149 NA
ATOM      2  N   UNL     1       7.069  -1.235  23.718  0.00  0.00    -0.148 NA
ENDROOT
BRANCH   1   6
ATOM      3  C   UNL     1       5.137  -5.526  25.137  0.00  0.00    +0.029 A 
ATOM      4  C   UNL     1       6.509  -5.226  25.101  0.00  0.00    +0.025 A 
ATOM      5  C   UNL     1       7.015  -4.116  24.409  0.00  0.00    +0.031 A 
ATOM      6  C   UNL     1       6.163  -3.240  23.733  0.00  0.00    +0.086 A 
ATOM      7  C   UNL     1       4.798  -3.521  23.749  0.00  0.00    +0.031 A 
ATOM      8  C   UNL     1       4.300  -4.644  24.433  0.00  0.00    +0.025 A 
BRANCH   3  10
ATOM      9  C   UNL     1       3.571  -7.444  25.231  0.00  0.00    +0.129 C 
ATOM     10  N   UNL     1       4.652  -6.651  25.801  0.00  0.00    -0.336 N 
ATOM     11  C   UNL     1       4.898  -6.802  27.234  0.00  0.00    +0.129 C 
ENDBRANCH   3  10
ENDBRANCH   1   6
BRANCH   2  12
ATOM     12  C   UNL     1       7.694  -0.200  22.985  0.00  0.00    +0.100 A 
ATOM     13  C   UNL     1       9.065  -0.273  22.678  0.00  0.00    +0.086 A 
ATOM     14  C   UNL     1       9.694   0.783  21.992  0.00  0.00    +0.017 A 
ATOM     15  C   UNL     1       8.974   1.918  21.624  0.00  0.00    +0.001 A 
ATOM     16  C   UNL     1       7.618   2.002  21.926  0.00  0.00    +0.002 A 
ATOM     17  C   UNL     1       6.986   0.953  22.602  0.00  0.00    +0.030 A 
BRANCH  13  18
ATOM     18  C   UNL     1       9.922  -1.444  23.016  0.00  0.00    +0.339 C 
ATOM     19  O   UNL     1      10.787  -1.858  22.260  0.00  0.00    -0.245 OA
BRANCH  18  20
ATOM     20  O   UNL     1       9.733  -1.965  24.246  0.00  0.00    -0.477 OA
ATOM     21  H   UNL     1       8.842  -2.343  24.393  0.00  0.00    +0.295 HD
ENDBRANCH  18  20
ENDBRANCH  13  18
ENDBRANCH   2  12
TORSDOF 5
ENDMDL
MODEL 7
REMARK VINA RESULT:      -5.6      2.857      7.454
REMARK  Name = 
REMARK  7 active torsions:
REMARK  status: ('A' for Active; 'I' for Inactive)
REMARK    1  A    between atoms: C_1  and  N_2
REMARK    2  A    between atoms: N_2  and  C_3
REMARK    3  A    between atoms: N_2  and  C_4
REMARK    4  A    between atoms: C_7  and  N_10
REMARK    5  A    between atoms: N_11  and  C_12
REMARK    6  A    between atoms: C_17  and  C_18
REMARK    7  A    between atoms: C_18  and  O_19
REMARK                            x       y       z     vdW  Elec       q    Type
REMARK                         _______ _______ _______ _____ _____    ______ ____
ROOT
ATOM      1  N   UNL     1       8.500  -1.763  25.239  0.00  0.00    -0.149 NA
ATOM      2  N   UNL     1       7.995  -1.131  24.287  0.00  0.00    -0.148 NA
ENDROOT
BRANCH   1   6
ATOM      3  C   UNL     1       6.152  -5.237  26.108  0.00  0.00    +0.029 A 
ATOM      4  C   UNL     1       7.452  -5.079  26.618  0.00  0.00    +0.025 A 
ATOM      5  C   UNL     1       8.227  -3.940  26.353  0.00  0.00    +0.031 A 
ATOM      6  C   UNL     1       7.727  -2.894  25.575  0.00  0.00    +0.086 A 
ATOM      7  C   UNL     1       6.441  -3.032  25.053  0.00  0.00    +0.031 A 
ATOM      8  C   UNL     1       5.676  -4.182  25.311  0.00  0.00    +0.025 A 
BRANCH   3  10
ATOM      9  C   UNL     1       4.556  -6.960  25.317  0.00  0.00    +0.129 C 
ATOM     10  N   UNL     1       5.406  -6.388  26.354  0.00  0.00    -0.336 N 
ATOM     11  C   UNL     1       5.122  -6.781  27.732  0.00  0.00    +0.129 C 
ENDBRANCH   3  10
ENDBRANCH   1   6
BRANCH   2  12
ATOM     12  C   UNL     1       8.668   0.087  24.036  0.00  0.00    +0.100 A 
ATOM     13  C   UNL     1       9.647   0.164  23.028  0.00  0.00    +0.086 A 
ATOM     14  C   UNL     1      10.350   1.365  22.815  0.00  0.00    +0.017 A 
ATOM     15  C   UNL     1      10.100   2.483  23.608  0.00  0.00    +0.001 A 
ATOM     16  C   UNL     1       9.136   2.417  24.610  0.00  0.00    +0.002 A 
ATOM     17  C   UNL     1       8.430   1.228  24.823  0.00  0.00    +0.030 A 
BRANCH  13  18
ATOM     18  C   UNL     1       9.983  -0.968  22.120  0.00  0.00    +0.339 C 
ATOM     19  O   UNL     1      10.665  -1.914  22.482  0.00  0.00    -0.245 OA
BRANCH  18  20
ATOM     20  O   UNL     1       9.418  -0.916  20.896  0.00  0.00    -0.477 OA
ATOM     21  H   UNL     1       8.464  -0.694  20.899  0.00  0.00    +0.295 HD
ENDBRANCH  18  20
ENDBRANCH  13  18
ENDBRANCH   2  12
TORSDOF 5
ENDMDL
MODEL 8
REMARK VINA RESULT:      -5.5      2.411      3.311
REMARK  Name = 
REMARK  7 active torsions:
REMARK  status: ('A' for Active; 'I' for Inactive)
REMARK    1  A    between atoms: C_1  and  N_2
REMARK    2  A    between atoms: N_2  and  C_3
REMARK    3  A    between atoms: N_2  and  C_4
REMARK    4  A    between atoms: C_7  and  N_10
REMARK    5  A    between atoms: N_11  and  C_12
REMARK    6  A    between atoms: C_17  and  C_18
REMARK    7  A    between atoms: C_18  and  O_19
REMARK                            x       y       z     vdW  Elec       q    Type
REMARK                         _______ _______ _______ _____ _____    ______ ____
ROOT
ATOM      1  N   UNL     1       7.890  -0.419  24.171  0.00  0.00    -0.149 NA
ATOM      2  N   UNL     1       8.286  -1.124  23.219  0.00  0.00    -0.148 NA
ENDROOT
BRANCH   1   6
ATOM      3  C   UNL     1       8.187   3.746  23.220  0.00  0.00    +0.029 A 
ATOM      4  C   UNL     1       7.778   2.798  22.266  0.00  0.00    +0.025 A 
ATOM      5  C   UNL     1       7.663   1.433  22.567  0.00  0.00    +0.031 A 
ATOM      6  C   UNL     1       7.937   0.954  23.850  0.00  0.00    +0.086 A 
ATOM      7  C   UNL     1       8.351   1.875  24.812  0.00  0.00    +0.031 A 
ATOM      8  C   UNL     1       8.477   3.239  24.498  0.00  0.00    +0.025 A 
BRANCH   3  10
ATOM      9  C   UNL     1       9.251   5.944  23.637  0.00  0.00    +0.129 C 
ATOM     10  N   UNL     1       8.327   5.094  22.898  0.00  0.00    -0.336 N 
ATOM     11  C   UNL     1       7.274   5.766  22.139  0.00  0.00    +0.129 C 
ENDBRANCH   3  10
ENDBRANCH   1   6
BRANCH   2  12
ATOM     12  C   UNL     1       8.392  -2.490  23.571  0.00  0.00    +0.100 A 
ATOM     13  C   UNL     1       7.422  -3.413  23.140  0.00  0.00    +0.086 A 
ATOM     14  C   UNL     1       7.504  -4.761  23.535  0.00  0.00    +0.017 A 
ATOM     15  C   UNL     1       8.533  -5.194  24.370  0.00  0.00    +0.001 A 
ATOM     16  C   UNL     1       9.496  -4.288  24.805  0.00  0.00    +0.002 A 
ATOM     17  C   UNL     1       9.423  -2.948  24.411  0.00  0.00    +0.030 A 
BRANCH  13  18
ATOM     18  C   UNL     1       6.290  -3.057  22.240  0.00  0.00    +0.339 C 
ATOM     19  O   UNL     1       5.898  -3.806  21.359  0.00  0.00    -0.245 OA
BRANCH  18  20
ATOM     20  O   UNL     1       5.677  -1.886  22.514  0.00  0.00    -0.477 OA
ATOM     21  H   UNL     1       5.364  -1.801  23.438  0.00  0.00    +0.295 HD
ENDBRANCH  18  20
ENDBRANCH  13  18
ENDBRANCH   2  12
TORSDOF 5
ENDMDL
MODEL 9
REMARK VINA RESULT:      -5.5      2.588      7.370
REMARK  Name = 
REMARK  7 active torsions:
REMARK  status: ('A' for Active; 'I' for Inactive)
REMARK    1  A    between atoms: C_1  and  N_2
REMARK    2  A    between atoms: N_2  and  C_3
REMARK    3  A    between atoms: N_2  and  C_4
REMARK    4  A    between atoms: C_7  and  N_10
REMARK    5  A    between atoms: N_11  and  C_12
REMARK    6  A    between atoms: C_17  and  C_18
REMARK    7  A    between atoms: C_18  and  O_19
REMARK                            x       y       z     vdW  Elec       q    Type
REMARK                         _______ _______ _______ _____ _____    ______ ____
ROOT
ATOM      1  N   UNL     1       8.116  -1.961  23.216  0.00  0.00    -0.149 NA
ATOM      2  N   UNL     1       7.606  -0.842  22.993  0.00  0.00    -0.148 NA
ENDROOT
BRANCH   1   6
ATOM      3  C   UNL     1       5.200  -5.078  23.564  0.00  0.00    +0.029 A 
ATOM      4  C   UNL     1       4.846  -3.721  23.661  0.00  0.00    +0.025 A 
ATOM      5  C   UNL     1       5.788  -2.690  23.536  0.00  0.00    +0.031 A 
ATOM      6  C   UNL     1       7.133  -2.970  23.288  0.00  0.00    +0.086 A 
ATOM      7  C   UNL     1       7.510  -4.309  23.194  0.00  0.00    +0.031 A 
ATOM      8  C   UNL     1       6.563  -5.338  23.335  0.00  0.00    +0.025 A 
BRANCH   3  10
ATOM      9  C   UNL     1       2.957  -6.009  23.073  0.00  0.00    +0.129 C 
ATOM     10  N   UNL     1       4.259  -6.093  23.722  0.00  0.00    -0.336 N 
ATOM     11  C   UNL     1       4.378  -7.015  24.849  0.00  0.00    +0.129 C 
ENDBRANCH   3  10
ENDBRANCH   1   6
BRANCH   2  12
ATOM     12  C   UNL     1       8.554   0.204  23.069  0.00  0.00    +0.100 A 
ATOM     13  C   UNL     1       8.850   0.807  24.305  0.00  0.00    +0.086 A 
ATOM     14  C   UNL     1       9.756   1.882  24.369  0.00  0.00    +0.017 A 
ATOM     15  C   UNL     1      10.357   2.372  23.211  0.00  0.00    +0.001 A 
ATOM     16  C   UNL     1      10.068   1.786  21.983  0.00  0.00    +0.002 A 
ATOM     17  C   UNL     1       9.172   0.714  21.914  0.00  0.00    +0.030 A 
BRANCH  13  18
ATOM     18  C   UNL     1       8.272   0.353  25.601  0.00  0.00    +0.339 C 
ATOM     19  O   UNL     1       7.529   1.058  26.266  0.00  0.00    -0.245 OA
BRANCH  18  20
ATOM     20  O   UNL     1       8.560  -0.918  25.951  0.00  0.00    -0.477 OA
ATOM     21  H   UNL     1       9.419  -1.027  26.409  0.00  0.00    +0.295 HD
ENDBRANCH  18  20
ENDBRANCH  13  18
ENDBRANCH   2  12
TORSDOF 5
ENDMDL
