MODEL 1
REMARK VINA RESULT:      -5.2      0.000      0.000
REMARK  Name = 
REMARK  9 active torsions:
REMARK  status: ('A' for Active; 'I' for Inactive)
REMARK    1  A    between atoms: N_1  and  C_2
REMARK    2  A    between atoms: C_4  and  O_6
REMARK    3  A    between atoms: C_8  and  C_10
REMARK    4  A    between atoms: C_10  and  O_11
REMARK    5  A    between atoms: C_12  and  O_14
REMARK    6  A    between atoms: O_14  and  P_15
REMARK    7  A    between atoms: P_15  and  O_16
REMARK    8  A    between atoms: P_15  and  O_17
REMARK    9  A    between atoms: C_19  and  O_21
REMARK                            x       y       z     vdW  Elec       q    Type
REMARK                         _______ _______ _______ _____ _____    ______ ____
ROOT
ATOM      1  C   UNL     1       9.872  -0.647  22.771  0.00  0.00    +0.139 C 
ATOM      2  C   UNL     1       9.977  -0.998  24.272  0.00  0.00    +0.168 C 
ATOM      3  C   UNL     1       9.061  -2.164  24.656  0.00  0.00    +0.191 C 
ATOM      4  C   UNL     1       7.613  -1.927  24.136  0.00  0.00    +0.178 C 
ATOM      5  O   UNL     1       7.567  -1.546  22.768  0.00  0.00    -0.342 OA
ATOM      6  C   UNL     1       8.372  -0.422  22.415  0.00  0.00    +0.267 C 
ENDROOT
BRANCH   1   7
ATOM      7  N   UNL     1      10.524  -1.676  21.938  0.00  0.00    -0.321 NA
ATOM      8  H   UNL     1      10.904  -1.238  21.093  0.00  0.00    +0.119 HD
ATOM      9  H   UNL     1      11.319  -2.076  22.435  0.00  0.00    +0.119 HD
ENDBRANCH   1   7
BRANCH   2  10
ATOM     10  O   UNL     1       9.617   0.176  25.026  0.00  0.00    -0.387 OA
ATOM     11  H   UNL     1       9.883   0.951  24.495  0.00  0.00    +0.210 HD
ENDBRANCH   2  10
BRANCH   6  12
ATOM     12  O   UNL     1       7.848   0.775  22.970  0.00  0.00    -0.366 OA
ATOM     13  H   UNL     1       8.403   1.506  22.637  0.00  0.00    +0.213 HD
ENDBRANCH   6  12
BRANCH   3  14
ATOM     14  O   UNL     1       9.571  -3.426  24.145  0.00  0.00    -0.278 OA
BRANCH  14  15
ATOM     15  P   UNL     1       8.900  -4.669  25.143  0.00  0.00    +0.473 P 
ATOM     16  O   UNL     1       8.298  -5.782  26.036  0.00  0.00    -0.228 OA
BRANCH  15  17
ATOM     17  O   UNL     1      10.414  -5.284  25.111  0.00  0.00    -0.303 OA
ATOM     18  H   UNL     1      10.900  -4.838  25.829  0.00  0.00    +0.222 HD
ENDBRANCH  15  17
BRANCH  15  19
ATOM     19  O   UNL     1       8.458  -5.369  23.728  0.00  0.00    -0.303 OA
ATOM     20  H   UNL     1       8.969  -5.011  22.980  0.00  0.00    +0.222 HD
ENDBRANCH  15  19
ENDBRANCH  14  15
ENDBRANCH   3  14
BRANCH   4  21
ATOM     21  C   UNL     1       6.737  -1.071  25.070  0.00  0.00    +0.190 C 
BRANCH  21  22
ATOM     22  O   UNL     1       5.563  -0.694  24.352  0.00  0.00    -0.392 OA
ATOM     23  H   UNL     1       5.191  -1.500  23.951  0.00  0.00    +0.210 HD
ENDBRANCH  21  22
ENDBRANCH   4  21
TORSDOF 9
ENDMDL
MODEL 2
REMARK VINA RESULT:      -5.1      1.873      2.889
REMARK  Name = 
REMARK  9 active torsions:
REMARK  status: ('A' for Active; 'I' for Inactive)
REMARK    1  A    between atoms: N_1  and  C_2
REMARK    2  A    between atoms: C_4  and  O_6
REMARK    3  A    between atoms: C_8  and  C_10
REMARK    4  A    between atoms: C_10  and  O_11
REMARK    5  A    between atoms: C_12  and  O_14
REMARK    6  A    between atoms: O_14  and  P_15
REMARK    7  A    between atoms: P_15  and  O_16
REMARK    8  A    between atoms: P_15  and  O_17
REMARK    9  A    between atoms: C_19  and  O_21
REMARK                            x       y       z     vdW  Elec       q    Type
REMARK                         _______ _______ _______ _____ _____    ______ ____
ROOT
ATOM      1  C   UNL     1       8.196  -0.991  25.570  0.00  0.00    +0.139 C 
ATOM      2  C   UNL     1       7.665  -2.211  24.786  0.00  0.00    +0.168 C 
ATOM      3  C   UNL     1       8.787  -2.967  24.066  0.00  0.00    +0.191 C 
ATOM      4  C   UNL     1       9.673  -1.990  23.240  0.00  0.00    +0.178 C 
ATOM      5  O   UNL     1      10.088  -0.851  23.981  0.00  0.00    -0.342 OA
ATOM      6  C   UNL     1       9.042  -0.107  24.604  0.00  0.00    +0.267 C 
ENDROOT
BRANCH   1   7
ATOM      7  N   UNL     1       8.935  -1.415  26.775  0.00  0.00    -0.321 NA
ATOM      8  H   UNL     1       8.562  -0.923  27.592  0.00  0.00    +0.119 HD
ATOM      9  H   UNL     1       8.786  -2.408  26.945  0.00  0.00    +0.119 HD
ENDBRANCH   1   7
BRANCH   2  10
ATOM     10  O   UNL     1       6.702  -1.734  23.825  0.00  0.00    -0.387 OA
ATOM     11  H   UNL     1       7.194  -1.518  23.009  0.00  0.00    +0.210 HD
ENDBRANCH   2  10
BRANCH   6  12
ATOM     12  O   UNL     1       8.250   0.566  23.637  0.00  0.00    -0.366 OA
ATOM     13  H   UNL     1       8.247   0.006  22.837  0.00  0.00    +0.213 HD
ENDBRANCH   6  12
BRANCH   3  14
ATOM     14  O   UNL     1       9.610  -3.709  25.008  0.00  0.00    -0.278 OA
BRANCH  14  15
ATOM     15  P   UNL     1       8.594  -4.928  25.696  0.00  0.00    +0.473 P 
ATOM     16  O   UNL     1       7.684  -6.019  26.312  0.00  0.00    -0.228 OA
BRANCH  15  17
ATOM     17  O   UNL     1       9.402  -4.590  27.076  0.00  0.00    -0.303 OA
ATOM     18  H   UNL     1       9.824  -5.423  27.351  0.00  0.00    +0.222 HD
ENDBRANCH  15  17
BRANCH  15  19
ATOM     19  O   UNL     1       9.725  -5.979  25.149  0.00  0.00    -0.303 OA
ATOM     20  H   UNL     1       9.581  -6.874  25.504  0.00  0.00    +0.222 HD
ENDBRANCH  15  19
ENDBRANCH  14  15
ENDBRANCH   3  14
BRANCH   4  21
ATOM     21  C   UNL     1       9.128  -1.677  21.834  0.00  0.00    +0.190 C 
BRANCH  21  22
ATOM     22  O   UNL     1       9.881  -0.587  21.301  0.00  0.00    -0.392 OA
ATOM     23  H   UNL     1       9.538   0.231  21.703  0.00  0.00    +0.210 HD
ENDBRANCH  21  22
ENDBRANCH   4  21
TORSDOF 9
ENDMDL
MODEL 3
REMARK VINA RESULT:      -5.1      2.581      4.569
REMARK  Name = 
REMARK  9 active torsions:
REMARK  status: ('A' for Active; 'I' for Inactive)
REMARK    1  A    between atoms: N_1  and  C_2
REMARK    2  A    between atoms: C_4  and  O_6
REMARK    3  A    between atoms: C_8  and  C_10
REMARK    4  A    between atoms: C_10  and  O_11
REMARK    5  A    between atoms: C_12  and  O_14
REMARK    6  A    between atoms: O_14  and  P_15
REMARK    7  A    between atoms: P_15  and  O_16
REMARK    8  A    between atoms: P_15  and  O_17
REMARK    9  A    between atoms: C_19  and  O_21
REMARK                            x       y       z     vdW  Elec       q    Type
REMARK                         _______ _______ _______ _____ _____    ______ ____
ROOT
ATOM      1  C   UNL     1       8.939  -5.455  25.436  0.00  0.00    +0.139 C 
ATOM      2  C   UNL     1       8.259  -4.883  24.172  0.00  0.00    +0.168 C 
ATOM      3  C   UNL     1       8.413  -3.362  24.074  0.00  0.00    +0.191 C 
ATOM      4  C   UNL     1       8.001  -2.675  25.408  0.00  0.00    +0.178 C 
ATOM      5  O   UNL     1       8.601  -3.271  26.550  0.00  0.00    -0.342 OA
ATOM      6  C   UNL     1       8.410  -4.680  26.680  0.00  0.00    +0.267 C 
ENDROOT
BRANCH   1   7
ATOM      7  N   UNL     1      10.409  -5.425  25.309  0.00  0.00    -0.321 NA
ATOM      8  H   UNL     1      10.730  -6.302  24.888  0.00  0.00    +0.119 HD
ATOM      9  H   UNL     1      10.689  -4.681  24.671  0.00  0.00    +0.119 HD
ENDBRANCH   1   7
BRANCH   2  10
ATOM     10  O   UNL     1       6.862  -5.232  24.226  0.00  0.00    -0.387 OA
ATOM     11  H   UNL     1       6.672  -5.515  25.141  0.00  0.00    +0.210 HD
ENDBRANCH   2  10
BRANCH   6  12
ATOM     12  O   UNL     1       7.058  -4.985  26.986  0.00  0.00    -0.366 OA
ATOM     13  H   UNL     1       6.838  -5.804  26.502  0.00  0.00    +0.213 HD
ENDBRANCH   6  12
BRANCH   3  14
ATOM     14  O   UNL     1       9.774  -2.991  23.723  0.00  0.00    -0.278 OA
BRANCH  14  15
ATOM     15  P   UNL     1       9.714  -1.348  23.185  0.00  0.00    +0.473 P 
ATOM     16  O   UNL     1       9.660   0.123  22.704  0.00  0.00    -0.228 OA
BRANCH  15  17
ATOM     17  O   UNL     1       8.417  -1.851  22.325  0.00  0.00    -0.303 OA
ATOM     18  H   UNL     1       8.745  -2.545  21.726  0.00  0.00    +0.222 HD
ENDBRANCH  15  17
BRANCH  15  19
ATOM     19  O   UNL     1      10.799  -1.827  22.055  0.00  0.00    -0.303 OA
ATOM     20  H   UNL     1      10.356  -2.213  21.278  0.00  0.00    +0.222 HD
ENDBRANCH  15  19
ENDBRANCH  14  15
ENDBRANCH   3  14
BRANCH   4  21
ATOM     21  C   UNL     1       6.490  -2.407  25.542  0.00  0.00    +0.190 C 
BRANCH  21  22
ATOM     22  O   UNL     1       5.946  -2.277  24.229  0.00  0.00    -0.392 OA
ATOM     23  H   UNL     1       6.690  -2.166  23.611  0.00  0.00    +0.210 HD
ENDBRANCH  21  22
ENDBRANCH   4  21
TORSDOF 9
ENDMDL
MODEL 4
REMARK VINA RESULT:      -5.1      2.652      3.392
REMARK  Name = 
REMARK  9 active torsions:
REMARK  status: ('A' for Active; 'I' for Inactive)
REMARK    1  A    between atoms: N_1  and  C_2
REMARK    2  A    between atoms: C_4  and  O_6
REMARK    3  A    between atoms: C_8  and  C_10
REMARK    4  A    between atoms: C_10  and  O_11
REMARK    5  A    between atoms: C_12  and  O_14
REMARK    6  A    between atoms: O_14  and  P_15
REMARK    7  A    between atoms: P_15  and  O_16
REMARK    8  A    between atoms: P_15  and  O_17
REMARK    9  A    between atoms: C_19  and  O_21
REMARK                            x       y       z     vdW  Elec       q    Type
REMARK                         _______ _______ _______ _____ _____    ______ ____
ROOT
ATOM      1  C   UNL     1       9.299   2.683  22.954  0.00  0.00    +0.139 C 
ATOM      2  C   UNL     1       9.235   1.536  23.987  0.00  0.00    +0.168 C 
ATOM      3  C   UNL     1       8.281   0.420  23.550  0.00  0.00    +0.191 C 
ATOM      4  C   UNL     1       6.900   1.002  23.129  0.00  0.00    +0.178 C 
ATOM      5  O   UNL     1       7.008   2.094  22.226  0.00  0.00    -0.342 OA
ATOM      6  C   UNL     1       7.848   3.166  22.655  0.00  0.00    +0.267 C 
ENDROOT
BRANCH   1   7
ATOM      7  N   UNL     1      10.040   2.270  21.746  0.00  0.00    -0.321 NA
ATOM      8  H   UNL     1      10.520   3.082  21.348  0.00  0.00    +0.119 HD
ATOM      9  H   UNL     1      10.767   1.600  21.995  0.00  0.00    +0.119 HD
ENDBRANCH   1   7
BRANCH   2  10
ATOM     10  O   UNL     1       8.793   2.094  25.240  0.00  0.00    -0.387 OA
ATOM     11  H   UNL     1       9.108   1.498  25.946  0.00  0.00    +0.210 HD
ENDBRANCH   2  10
BRANCH   6  12
ATOM     12  O   UNL     1       7.265   3.867  23.743  0.00  0.00    -0.366 OA
ATOM     13  H   UNL     1       7.696   4.742  23.777  0.00  0.00    +0.213 HD
ENDBRANCH   6  12
BRANCH   3  14
ATOM     14  O   UNL     1       8.846  -0.359  22.459  0.00  0.00    -0.278 OA
BRANCH  14  15
ATOM     15  P   UNL     1       9.575  -1.754  23.175  0.00  0.00    +0.473 P 
ATOM     16  O   UNL     1      10.227  -3.003  23.817  0.00  0.00    -0.228 OA
BRANCH  15  17
ATOM     17  O   UNL     1      10.550  -1.714  21.864  0.00  0.00    -0.303 OA
ATOM     18  H   UNL     1       9.974  -1.883  21.096  0.00  0.00    +0.222 HD
ENDBRANCH  15  17
BRANCH  15  19
ATOM     19  O   UNL     1       8.387  -2.589  22.416  0.00  0.00    -0.303 OA
ATOM     20  H   UNL     1       8.271  -2.286  21.497  0.00  0.00    +0.222 HD
ENDBRANCH  15  19
ENDBRANCH  14  15
ENDBRANCH   3  14
BRANCH   4  21
ATOM     21  C   UNL     1       5.926   1.230  24.299  0.00  0.00    +0.190 C 
BRANCH  21  22
ATOM     22  O   UNL     1       4.796   1.946  23.800  0.00  0.00    -0.392 OA
ATOM     23  H   UNL     1       4.236   2.179  24.561  0.00  0.00    +0.210 HD
ENDBRANCH  21  22
ENDBRANCH   4  21
TORSDOF 9
ENDMDL
MODEL 5
REMARK VINA RESULT:      -5.0      2.634      5.214
REMARK  Name = 
REMARK  9 active torsions:
REMARK  status: ('A' for Active; 'I' for Inactive)
REMARK    1  A    between atoms: N_1  and  C_2
REMARK    2  A    between atoms: C_4  and  O_6
REMARK    3  A    between atoms: C_8  and  C_10
REMARK    4  A    between atoms: C_10  and  O_11
REMARK    5  A    between atoms: C_12  and  O_14
REMARK    6  A    between atoms: O_14  and  P_15
REMARK    7  A    between atoms: P_15  and  O_16
REMARK    8  A    between atoms: P_15  and  O_17
REMARK    9  A    between atoms: C_19  and  O_21
REMARK                            x       y       z     vdW  Elec       q    Type
REMARK                         _______ _______ _______ _____ _____    ______ ____
ROOT
ATOM      1  C   UNL     1       9.042  -2.025  22.580  0.00  0.00    +0.139 C 
ATOM      2  C   UNL     1       7.792  -1.131  22.732  0.00  0.00    +0.168 C 
ATOM      3  C   UNL     1       8.145   0.273  23.234  0.00  0.00    +0.191 C 
ATOM      4  C   UNL     1       9.056   0.199  24.493  0.00  0.00    +0.178 C 
ATOM      5  O   UNL     1      10.160  -0.681  24.332  0.00  0.00    -0.342 OA
ATOM      6  C   UNL     1       9.833  -2.009  23.923  0.00  0.00    +0.267 C 
ENDROOT
BRANCH   1   7
ATOM      7  N   UNL     1       9.853  -1.612  21.418  0.00  0.00    -0.321 NA
ATOM      8  H   UNL     1      10.843  -1.774  21.621  0.00  0.00    +0.119 HD
ATOM      9  H   UNL     1       9.627  -2.192  20.611  0.00  0.00    +0.119 HD
ENDBRANCH   1   7
BRANCH   2  10
ATOM     10  O   UNL     1       6.899  -1.774  23.664  0.00  0.00    -0.387 OA
ATOM     11  H   UNL     1       6.022  -1.818  23.237  0.00  0.00    +0.210 HD
ENDBRANCH   2  10
BRANCH   6  12
ATOM     12  O   UNL     1       9.169  -2.714  24.961  0.00  0.00    -0.366 OA
ATOM     13  H   UNL     1       8.401  -2.170  25.224  0.00  0.00    +0.213 HD
ENDBRANCH   6  12
BRANCH   3  14
ATOM     14  O   UNL     1       8.795   1.056  22.195  0.00  0.00    -0.278 OA
BRANCH  14  15
ATOM     15  P   UNL     1       9.386   2.492  22.958  0.00  0.00    +0.473 P 
ATOM     16  O   UNL     1       9.915   3.777  23.641  0.00  0.00    -0.228 OA
BRANCH  15  17
ATOM     17  O   UNL     1       8.220   3.236  22.086  0.00  0.00    -0.303 OA
ATOM     18  H   UNL     1       7.936   4.003  22.617  0.00  0.00    +0.222 HD
ENDBRANCH  15  17
BRANCH  15  19
ATOM     19  O   UNL     1      10.480   2.517  21.740  0.00  0.00    -0.303 OA
ATOM     20  H   UNL     1      11.339   2.868  22.040  0.00  0.00    +0.222 HD
ENDBRANCH  15  19
ENDBRANCH  14  15
ENDBRANCH   3  14
BRANCH   4  21
ATOM     21  C   UNL     1       8.291   0.034  25.819  0.00  0.00    +0.190 C 
BRANCH  21  22
ATOM     22  O   UNL     1       9.231  -0.337  26.828  0.00  0.00    -0.392 OA
ATOM     23  H   UNL     1      10.077  -0.529  26.387  0.00  0.00    +0.210 HD
ENDBRANCH  21  22
ENDBRANCH   4  21
TORSDOF 9
ENDMDL
MODEL 6
REMARK VINA RESULT:      -5.0      2.978      4.528
REMARK  Name = 
REMARK  9 active torsions:
REMARK  status: ('A' for Active; 'I' for Inactive)
REMARK    1  A    between atoms: N_1  and  C_2
REMARK    2  A    between atoms: C_4  and  O_6
REMARK    3  A    between atoms: C_8  and  C_10
REMARK    4  A    between atoms: C_10  and  O_11
REMARK    5  A    between atoms: C_12  and  O_14
REMARK    6  A    between atoms: O_14  and  P_15
REMARK    7  A    between atoms: P_15  and  O_16
REMARK    8  A    between atoms: P_15  and  O_17
REMARK    9  A    between atoms: C_19  and  O_21
REMARK                            x       y       z     vdW  Elec       q    Type
REMARK                         _______ _______ _______ _____ _____    ______ ____
ROOT
ATOM      1  C   UNL     1       6.939  -2.239  24.675  0.00  0.00    +0.139 C 
ATOM      2  C   UNL     1       7.748  -3.167  23.741  0.00  0.00    +0.168 C 
ATOM      3  C   UNL     1       7.662  -4.634  24.172  0.00  0.00    +0.191 C 
ATOM      4  C   UNL     1       7.981  -4.788  25.688  0.00  0.00    +0.178 C 
ATOM      5  O   UNL     1       7.261  -3.874  26.504  0.00  0.00    -0.342 OA
ATOM      6  C   UNL     1       7.385  -2.499  26.145  0.00  0.00    +0.267 C 
ENDROOT
BRANCH   1   7
ATOM      7  N   UNL     1       5.488  -2.409  24.465  0.00  0.00    -0.321 NA
ATOM      8  H   UNL     1       5.216  -3.359  24.732  0.00  0.00    +0.119 HD
ATOM      9  H   UNL     1       4.971  -1.779  25.077  0.00  0.00    +0.119 HD
ENDBRANCH   1   7
BRANCH   2  10
ATOM     10  O   UNL     1       9.121  -2.729  23.766  0.00  0.00    -0.387 OA
ATOM     11  H   UNL     1       9.629  -3.406  24.252  0.00  0.00    +0.210 HD
ENDBRANCH   2  10
BRANCH   6  12
ATOM     12  O   UNL     1       8.693  -2.017  26.417  0.00  0.00    -0.366 OA
ATOM     13  H   UNL     1       8.630  -1.472  27.225  0.00  0.00    +0.213 HD
ENDBRANCH   6  12
BRANCH   3  14
ATOM     14  O   UNL     1       6.352  -5.193  23.881  0.00  0.00    -0.278 OA
BRANCH  14  15
ATOM     15  P   UNL     1       6.202  -5.225  22.158  0.00  0.00    +0.473 P 
ATOM     16  O   UNL     1       6.068  -5.253  20.615  0.00  0.00    -0.228 OA
BRANCH  15  17
ATOM     17  O   UNL     1       4.729  -4.573  22.439  0.00  0.00    -0.303 OA
ATOM     18  H   UNL     1       4.192  -4.773  21.652  0.00  0.00    +0.222 HD
ENDBRANCH  15  17
BRANCH  15  19
ATOM     19  O   UNL     1       5.693  -6.767  22.373  0.00  0.00    -0.303 OA
ATOM     20  H   UNL     1       4.916  -6.807  22.959  0.00  0.00    +0.222 HD
ENDBRANCH  15  19
ENDBRANCH  14  15
ENDBRANCH   3  14
BRANCH   4  21
ATOM     21  C   UNL     1       9.483  -4.892  26.012  0.00  0.00    +0.190 C 
BRANCH  21  22
ATOM     22  O   UNL     1      10.148  -5.411  24.860  0.00  0.00    -0.392 OA
ATOM     23  H   UNL     1       9.669  -5.094  24.075  0.00  0.00    +0.210 HD
ENDBRANCH  21  22
ENDBRANCH   4  21
TORSDOF 9
ENDMDL
MODEL 7
REMARK VINA RESULT:      -5.0      3.574      4.589
REMARK  Name = 
REMARK  9 active torsions:
REMARK  status: ('A' for Active; 'I' for Inactive)
REMARK    1  A    between atoms: N_1  and  C_2
REMARK    2  A    between atoms: C_4  and  O_6
REMARK    3  A    between atoms: C_8  and  C_10
REMARK    4  A    between atoms: C_10  and  O_11
REMARK    5  A    between atoms: C_12  and  O_14
REMARK    6  A    between atoms: O_14  and  P_15
REMARK    7  A    between atoms: P_15  and  O_16
REMARK    8  A    between atoms: P_15  and  O_17
REMARK    9  A    between atoms: C_19  and  O_21
REMARK                            x       y       z     vdW  Elec       q    Type
REMARK                         _______ _______ _______ _____ _____    ______ ____
ROOT
ATOM      1  C   UNL     1       8.276  -4.388  25.308  0.00  0.00    +0.139 C 
ATOM      2  C   UNL     1       7.025  -4.001  26.126  0.00  0.00    +0.168 C 
ATOM      3  C   UNL     1       5.867  -4.980  25.907  0.00  0.00    +0.191 C 
ATOM      4  C   UNL     1       5.614  -5.209  24.388  0.00  0.00    +0.178 C 
ATOM      5  O   UNL     1       6.801  -5.502  23.663  0.00  0.00    -0.342 OA
ATOM      6  C   UNL     1       7.863  -4.561  23.815  0.00  0.00    +0.267 C 
ENDROOT
BRANCH   1   7
ATOM      7  N   UNL     1       8.934  -5.581  25.875  0.00  0.00    -0.321 NA
ATOM      8  H   UNL     1       8.424  -6.420  25.583  0.00  0.00    +0.119 HD
ATOM      9  H   UNL     1       9.877  -5.672  25.498  0.00  0.00    +0.119 HD
ENDBRANCH   1   7
BRANCH   2  10
ATOM     10  O   UNL     1       6.627  -2.675  25.724  0.00  0.00    -0.387 OA
ATOM     11  H   UNL     1       7.256  -2.050  26.132  0.00  0.00    +0.210 HD
ENDBRANCH   2  10
BRANCH   6  12
ATOM     12  O   UNL     1       7.546  -3.328  23.185  0.00  0.00    -0.366 OA
ATOM     13  H   UNL     1       7.288  -2.708  23.894  0.00  0.00    +0.213 HD
ENDBRANCH   6  12
BRANCH   3  14
ATOM     14  O   UNL     1       6.121  -6.252  26.566  0.00  0.00    -0.278 OA
BRANCH  14  15
ATOM     15  P   UNL     1       5.987  -5.960  28.265  0.00  0.00    +0.473 P 
ATOM     16  O   UNL     1       5.867  -5.700  29.787  0.00  0.00    -0.228 OA
BRANCH  15  17
ATOM     17  O   UNL     1       7.545  -6.455  28.305  0.00  0.00    -0.303 OA
ATOM     18  H   UNL     1       7.664  -7.031  27.528  0.00  0.00    +0.222 HD
ENDBRANCH  15  17
BRANCH  15  19
ATOM     19  O   UNL     1       5.378  -7.480  28.333  0.00  0.00    -0.303 OA
ATOM     20  H   UNL     1       4.542  -7.506  28.833  0.00  0.00    +0.222 HD
ENDBRANCH  15  19
ENDBRANCH  14  15
ENDBRANCH   3  14
BRANCH   4  21
ATOM     21  C   UNL     1       4.704  -4.154  23.732  0.00  0.00    +0.190 C 
BRANCH  21  22
ATOM     22  O   UNL     1       4.772  -4.332  22.317  0.00  0.00    -0.392 OA
ATOM     23  H   UNL     1       5.650  -4.032  22.024  0.00  0.00    +0.210 HD
ENDBRANCH  21  22
ENDBRANCH   4  21
TORSDOF 9
ENDMDL
MODEL 8
REMARK VINA RESULT:      -5.0      2.307      3.442
REMARK  Name = 
REMARK  9 active torsions:
REMARK  status: ('A' for Active; 'I' for Inactive)
REMARK    1  A    between atoms: N_1  and  C_2
REMARK    2  A    between atoms: C_4  and  O_6
REMARK    3  A    between atoms: C_8  and  C_10
REMARK    4  A    between atoms: C_10  and  O_11
REMARK    5  A    between atoms: C_12  and  O_14
REMARK    6  A    between atoms: O_14  and  P_15
REMARK    7  A    between atoms: P_15  and  O_16
REMARK    8  A    between atoms: P_15  and  O_17
REMARK    9  A    between atoms: C_19  and  O_21
REMARK                            x       y       z     vdW  Elec       q    Type
REMARK                         _______ _______ _______ _____ _____    ______ ____
ROOT
ATOM      1  C   UNL     1       9.673  -1.600  24.240  0.00  0.00    +0.139 C 
ATOM      2  C   UNL     1       8.213  -1.099  24.173  0.00  0.00    +0.168 C 
ATOM      3  C   UNL     1       7.712  -0.972  22.731  0.00  0.00    +0.191 C 
ATOM      4  C   UNL     1       8.723  -0.170  21.861  0.00  0.00    +0.178 C 
ATOM      5  O   UNL     1      10.062  -0.625  21.999  0.00  0.00    -0.342 OA
ATOM      6  C   UNL     1      10.555  -0.688  23.336  0.00  0.00    +0.267 C 
ENDROOT
BRANCH   1   7
ATOM      7  N   UNL     1       9.759  -3.032  23.888  0.00  0.00    -0.321 NA
ATOM      8  H   UNL     1      10.184  -3.546  24.665  0.00  0.00    +0.119 HD
ATOM      9  H   UNL     1       8.824  -3.418  23.766  0.00  0.00    +0.119 HD
ENDBRANCH   1   7
BRANCH   2  10
ATOM     10  O   UNL     1       8.158   0.186  24.825  0.00  0.00    -0.387 OA
ATOM     11  H   UNL     1       9.074   0.426  25.064  0.00  0.00    +0.210 HD
ENDBRANCH   2  10
BRANCH   6  12
ATOM     12  O   UNL     1      10.733   0.614  23.875  0.00  0.00    -0.366 OA
ATOM     13  H   UNL     1      11.184   0.503  24.735  0.00  0.00    +0.213 HD
ENDBRANCH   6  12
BRANCH   3  14
ATOM     14  O   UNL     1       7.475  -2.279  22.139  0.00  0.00    -0.278 OA
BRANCH  14  15
ATOM     15  P   UNL     1       6.062  -2.918  22.907  0.00  0.00    +0.473 P 
ATOM     16  O   UNL     1       4.798  -3.490  23.595  0.00  0.00    -0.228 OA
BRANCH  15  17
ATOM     17  O   UNL     1       6.986  -4.249  23.127  0.00  0.00    -0.303 OA
ATOM     18  H   UNL     1       6.547  -4.768  23.825  0.00  0.00    +0.222 HD
ENDBRANCH  15  17
BRANCH  15  19
ATOM     19  O   UNL     1       5.604  -3.341  21.392  0.00  0.00    -0.303 OA
ATOM     20  H   UNL     1       4.856  -3.965  21.408  0.00  0.00    +0.222 HD
ENDBRANCH  15  19
ENDBRANCH  14  15
ENDBRANCH   3  14
BRANCH   4  21
ATOM     21  C   UNL     1       8.553   1.358  21.940  0.00  0.00    +0.190 C 
BRANCH  21  22
ATOM     22  O   UNL     1       9.722   1.962  21.385  0.00  0.00    -0.392 OA
ATOM     23  H   UNL     1       9.535   2.910  21.265  0.00  0.00    +0.210 HD
ENDBRANCH  21  22
ENDBRANCH   4  21
TORSDOF 9
ENDMDL
MODEL 9
REMARK VINA RESULT:      -5.0      3.286      4.456
REMARK  Name = 
REMARK  9 active torsions:
REMARK  status: ('A' for Active; 'I' for Inactive)
REMARK    1  A    between atoms: N_1  and  C_2
REMARK    2  A    between atoms: C_4  and  O_6
REMARK    3  A    between atoms: C_8  and  C_10
REMARK    4  A    between atoms: C_10  and  O_11
REMARK    5  A    between atoms: C_12  and  O_14
REMARK    6  A    between atoms: O_14  and  P_15
REMARK    7  A    between atoms: P_15  and  O_16
REMARK    8  A    between atoms: P_15  and  O_17
REMARK    9  A    between atoms: C_19  and  O_21
REMARK                            x       y       z     vdW  Elec       q    Type
REMARK                         _______ _______ _______ _____ _____    ______ ____
ROOT
ATOM      1  C   UNL     1       5.589  -5.690  21.929  0.00  0.00    +0.139 C 
ATOM      2  C   UNL     1       6.363  -4.354  21.983  0.00  0.00    +0.168 C 
ATOM      3  C   UNL     1       6.983  -4.103  23.361  0.00  0.00    +0.191 C 
ATOM      4  C   UNL     1       5.928  -4.296  24.489  0.00  0.00    +0.178 C 
ATOM      5  O   UNL     1       5.197  -5.509  24.366  0.00  0.00    -0.342 OA
ATOM      6  C   UNL     1       4.565  -5.721  23.104  0.00  0.00    +0.267 C 
ENDROOT
BRANCH   1   7
ATOM      7  N   UNL     1       6.514  -6.840  21.928  0.00  0.00    -0.321 NA
ATOM      8  H   UNL     1       6.233  -7.502  22.658  0.00  0.00    +0.119 HD
ATOM      9  H   UNL     1       6.445  -7.343  21.044  0.00  0.00    +0.119 HD
ENDBRANCH   1   7
BRANCH   2  10
ATOM     10  O   UNL     1       5.439  -3.295  21.662  0.00  0.00    -0.387 OA
ATOM     11  H   UNL     1       5.818  -2.804  20.908  0.00  0.00    +0.210 HD
ENDBRANCH   2  10
BRANCH   6  12
ATOM     12  O   UNL     1       3.485  -4.819  22.916  0.00  0.00    -0.366 OA
ATOM     13  H   UNL     1       3.122  -4.996  22.027  0.00  0.00    +0.213 HD
ENDBRANCH   6  12
BRANCH   3  14
ATOM     14  O   UNL     1       8.124  -4.975  23.593  0.00  0.00    -0.278 OA
BRANCH  14  15
ATOM     15  P   UNL     1       8.658  -4.668  25.209  0.00  0.00    +0.473 P 
ATOM     16  O   UNL     1       9.136  -4.394  26.656  0.00  0.00    -0.228 OA
BRANCH  15  17
ATOM     17  O   UNL     1       9.419  -3.386  24.538  0.00  0.00    -0.303 OA
ATOM     18  H   UNL     1       9.783  -3.703  23.692  0.00  0.00    +0.222 HD
ENDBRANCH  15  17
BRANCH  15  19
ATOM     19  O   UNL     1       9.864  -5.720  24.858  0.00  0.00    -0.303 OA
ATOM     20  H   UNL     1      10.712  -5.430  25.241  0.00  0.00    +0.222 HD
ENDBRANCH  15  19
ENDBRANCH  14  15
ENDBRANCH   3  14
BRANCH   4  21
ATOM     21  C   UNL     1       5.066  -3.052  24.769  0.00  0.00    +0.190 C 
BRANCH  21  22
ATOM     22  O   UNL     1       5.779  -1.906  24.304  0.00  0.00    -0.392 OA
ATOM     23  H   UNL     1       5.800  -1.258  25.030  0.00  0.00    +0.210 HD
ENDBRANCH  21  22
ENDBRANCH   4  21
TORSDOF 9
ENDMDL
