MODEL 1
REMARK VINA RESULT:      -7.3      0.000      0.000
REMARK  Name = 
REMARK  8 active torsions:
REMARK  status: ('A' for Active; 'I' for Inactive)
REMARK    1  A    between atoms: C_1  and  C_2
REMARK    2  A    between atoms: C_2  and  C_3
REMARK    3  A    between atoms: C_6  and  C_7
REMARK    4  A    between atoms: C_6  and  C_8
REMARK    5  A    between atoms: C_13  and  N_14
REMARK    6  A    between atoms: C_15  and  C_17
REMARK    7  A    between atoms: C_20  and  C_23
REMARK    8  A    between atoms: C_23  and  O_24
REMARK                            x       y       z     vdW  Elec       q    Type
REMARK                         _______ _______ _______ _____ _____    ______ ____
ROOT
ATOM      1  C   UNL     1       5.037  -4.624  22.848  0.00  0.00    +0.016 C 
ATOM      2  C   UNL     1       6.484  -4.826  23.350  0.00  0.00    -0.010 C 
ATOM      3  C   UNL     1       7.177  -3.459  23.424  0.00  0.00    -0.038 A 
ATOM      4  C   UNL     1       7.542  -2.821  22.226  0.00  0.00    +0.006 A 
ATOM      5  C   UNL     1       8.184  -1.581  22.215  0.00  0.00    +0.023 A 
ATOM      6  C   UNL     1       8.480  -0.924  23.401  0.00  0.00    +0.034 A 
ATOM      7  C   UNL     1       8.108  -1.539  24.603  0.00  0.00    +0.027 A 
ATOM      8  C   UNL     1       7.439  -2.792  24.644  0.00  0.00    -0.036 A 
ATOM      9  C   UNL     1       7.052  -3.402  26.000  0.00  0.00    -0.009 C 
ATOM     10  C   UNL     1       8.335  -3.897  26.704  0.00  0.00    +0.016 C 
ATOM     11  C   UNL     1       6.359  -2.367  26.917  0.00  0.00    +0.016 C 
ATOM     12  C   UNL     1       6.060  -4.577  25.839  0.00  0.00    +0.012 C 
ATOM     13  C   UNL     1       6.471  -5.526  24.726  0.00  0.00    +0.012 C 
ATOM     14  C   UNL     1       7.205  -5.785  22.373  0.00  0.00    +0.016 C 
ENDROOT
BRANCH   6  15
ATOM     15  N   UNL     1       9.119   0.341  23.457  0.00  0.00    -0.281 N 
ATOM     16  H   UNL     1      10.092   0.327  23.726  0.00  0.00    +0.155 HD
ATOM     17  C   UNL     1       8.508   1.571  23.266  0.00  0.00    +0.248 C 
ATOM     18  O   UNL     1       7.329   1.762  22.989  0.00  0.00    -0.270 OA
BRANCH  17  19
ATOM     19  C   UNL     1       9.356   2.784  23.451  0.00  0.00    +0.037 A 
ATOM     20  C   UNL     1      10.730   2.648  23.195  0.00  0.00    +0.014 A 
ATOM     21  C   UNL     1      11.602   3.720  23.385  0.00  0.00    +0.016 A 
ATOM     22  C   UNL     1      11.110   4.948  23.835  0.00  0.00    +0.059 A 
ATOM     23  C   UNL     1       9.743   5.085  24.121  0.00  0.00    +0.016 A 
ATOM     24  C   UNL     1       8.866   4.007  23.924  0.00  0.00    +0.014 A 
BRANCH  22  25
ATOM     25  C   UNL     1      12.088   6.047  24.044  0.00  0.00    +0.337 C 
ATOM     26  O   UNL     1      12.013   6.831  24.974  0.00  0.00    -0.245 OA
BRANCH  25  27
ATOM     27  O   UNL     1      13.091   6.066  23.143  0.00  0.00    -0.477 OA
ATOM     28  H   UNL     1      13.579   6.906  23.081  0.00  0.00    +0.295 HD
ENDBRANCH  25  27
ENDBRANCH  22  25
ENDBRANCH  17  19
ENDBRANCH   6  15
TORSDOF 4
ENDMDL
MODEL 2
REMARK VINA RESULT:      -7.0      1.100      2.753
REMARK  Name = 
REMARK  8 active torsions:
REMARK  status: ('A' for Active; 'I' for Inactive)
REMARK    1  A    between atoms: C_1  and  C_2
REMARK    2  A    between atoms: C_2  and  C_3
REMARK    3  A    between atoms: C_6  and  C_7
REMARK    4  A    between atoms: C_6  and  C_8
REMARK    5  A    between atoms: C_13  and  N_14
REMARK    6  A    between atoms: C_15  and  C_17
REMARK    7  A    between atoms: C_20  and  C_23
REMARK    8  A    between atoms: C_23  and  O_24
REMARK                            x       y       z     vdW  Elec       q    Type
REMARK                         _______ _______ _______ _____ _____    ______ ____
ROOT
ATOM      1  C   UNL     1       6.804  -5.430  26.877  0.00  0.00    +0.016 C 
ATOM      2  C   UNL     1       5.846  -4.428  26.193  0.00  0.00    -0.010 C 
ATOM      3  C   UNL     1       6.648  -3.195  25.756  0.00  0.00    -0.038 A 
ATOM      4  C   UNL     1       7.097  -2.298  26.740  0.00  0.00    +0.006 A 
ATOM      5  C   UNL     1       7.823  -1.150  26.418  0.00  0.00    +0.023 A 
ATOM      6  C   UNL     1       8.139  -0.857  25.099  0.00  0.00    +0.034 A 
ATOM      7  C   UNL     1       7.715  -1.751  24.108  0.00  0.00    +0.027 A 
ATOM      8  C   UNL     1       6.988  -2.935  24.409  0.00  0.00    -0.036 A 
ATOM      9  C   UNL     1       6.563  -3.874  23.269  0.00  0.00    -0.009 C 
ATOM     10  C   UNL     1       5.425  -3.201  22.471  0.00  0.00    +0.016 C 
ATOM     11  C   UNL     1       7.733  -4.165  22.300  0.00  0.00    +0.016 C 
ATOM     12  C   UNL     1       6.086  -5.244  23.802  0.00  0.00    +0.012 C 
ATOM     13  C   UNL     1       5.150  -5.102  24.991  0.00  0.00    +0.012 C 
ATOM     14  C   UNL     1       4.731  -4.062  27.201  0.00  0.00    +0.016 C 
ENDROOT
BRANCH   6  15
ATOM     15  N   UNL     1       8.884   0.285  24.707  0.00  0.00    -0.281 N 
ATOM     16  H   UNL     1       9.886   0.167  24.687  0.00  0.00    +0.155 HD
ATOM     17  C   UNL     1       8.365   1.543  24.442  0.00  0.00    +0.248 C 
ATOM     18  O   UNL     1       7.181   1.863  24.474  0.00  0.00    -0.270 OA
BRANCH  17  19
ATOM     19  C   UNL     1       9.340   2.625  24.120  0.00  0.00    +0.037 A 
ATOM     20  C   UNL     1      10.601   2.227  23.647  0.00  0.00    +0.014 A 
ATOM     21  C   UNL     1      11.588   3.171  23.364  0.00  0.00    +0.016 A 
ATOM     22  C   UNL     1      11.328   4.531  23.552  0.00  0.00    +0.059 A 
ATOM     23  C   UNL     1      10.081   4.936  24.054  0.00  0.00    +0.016 A 
ATOM     24  C   UNL     1       9.086   3.985  24.333  0.00  0.00    +0.014 A 
BRANCH  22  25
ATOM     25  C   UNL     1      12.425   5.489  23.260  0.00  0.00    +0.337 C 
ATOM     26  O   UNL     1      12.909   5.621  22.150  0.00  0.00    -0.245 OA
BRANCH  25  27
ATOM     27  O   UNL     1      12.800   6.232  24.321  0.00  0.00    -0.477 OA
ATOM     28  H   UNL     1      13.271   7.057  24.107  0.00  0.00    +0.295 HD
ENDBRANCH  25  27
ENDBRANCH  22  25
ENDBRANCH  17  19
ENDBRANCH   6  15
TORSDOF 4
ENDMDL
MODEL 3
REMARK VINA RESULT:      -7.0      4.012      9.675
REMARK  Name = 
REMARK  8 active torsions:
REMARK  status: ('A' for Active; 'I' for Inactive)
REMARK    1  A    between atoms: C_1  and  C_2
REMARK    2  A    between atoms: C_2  and  C_3
REMARK    3  A    between atoms: C_6  and  C_7
REMARK    4  A    between atoms: C_6  and  C_8
REMARK    5  A    between atoms: C_13  and  N_14
REMARK    6  A    between atoms: C_15  and  C_17
REMARK    7  A    between atoms: C_20  and  C_23
REMARK    8  A    between atoms: C_23  and  O_24
REMARK                            x       y       z     vdW  Elec       q    Type
REMARK                         _______ _______ _______ _____ _____    ______ ____
ROOT
ATOM      1  C   UNL     1       7.493   3.697  22.947  0.00  0.00    +0.016 C 
ATOM      2  C   UNL     1       8.288   2.777  23.901  0.00  0.00    -0.010 C 
ATOM      3  C   UNL     1       7.635   1.389  23.910  0.00  0.00    -0.038 A 
ATOM      4  C   UNL     1       6.403   1.226  24.566  0.00  0.00    +0.006 A 
ATOM      5  C   UNL     1       5.753  -0.009  24.624  0.00  0.00    +0.023 A 
ATOM      6  C   UNL     1       6.304  -1.129  24.019  0.00  0.00    +0.034 A 
ATOM      7  C   UNL     1       7.523  -0.980  23.346  0.00  0.00    +0.027 A 
ATOM      8  C   UNL     1       8.198   0.268  23.257  0.00  0.00    -0.036 A 
ATOM      9  C   UNL     1       9.528   0.358  22.493  0.00  0.00    -0.009 C 
ATOM     10  C   UNL     1      10.625  -0.344  23.323  0.00  0.00    +0.016 C 
ATOM     11  C   UNL     1       9.443  -0.332  21.112  0.00  0.00    +0.016 C 
ATOM     12  C   UNL     1       9.937   1.825  22.224  0.00  0.00    +0.012 C 
ATOM     13  C   UNL     1       9.763   2.703  23.453  0.00  0.00    +0.012 C 
ATOM     14  C   UNL     1       8.285   3.423  25.307  0.00  0.00    +0.016 C 
ENDROOT
BRANCH   6  15
ATOM     15  N   UNL     1       5.690  -2.408  24.031  0.00  0.00    -0.281 N 
ATOM     16  H   UNL     1       4.862  -2.501  23.460  0.00  0.00    +0.155 HD
ATOM     17  C   UNL     1       6.073  -3.487  24.814  0.00  0.00    +0.248 C 
ATOM     18  O   UNL     1       7.017  -3.520  25.596  0.00  0.00    -0.270 OA
BRANCH  17  19
ATOM     19  C   UNL     1       5.235  -4.718  24.726  0.00  0.00    +0.037 A 
ATOM     20  C   UNL     1       4.256  -4.754  23.719  0.00  0.00    +0.014 A 
ATOM     21  C   UNL     1       3.399  -5.848  23.595  0.00  0.00    +0.016 A 
ATOM     22  C   UNL     1       3.510  -6.925  24.477  0.00  0.00    +0.059 A 
ATOM     23  C   UNL     1       4.465  -6.885  25.505  0.00  0.00    +0.016 A 
ATOM     24  C   UNL     1       5.330  -5.786  25.627  0.00  0.00    +0.014 A 
BRANCH  22  25
ATOM     25  C   UNL     1       2.554  -8.051  24.313  0.00  0.00    +0.337 C 
ATOM     26  O   UNL     1       1.749  -8.107  23.400  0.00  0.00    -0.245 OA
BRANCH  25  27
ATOM     27  O   UNL     1       2.693  -9.025  25.234  0.00  0.00    -0.477 OA
ATOM     28  H   UNL     1       1.872  -9.489  25.477  0.00  0.00    +0.295 HD
ENDBRANCH  25  27
ENDBRANCH  22  25
ENDBRANCH  17  19
ENDBRANCH   6  15
TORSDOF 4
ENDMDL
MODEL 4
REMARK VINA RESULT:      -7.0      4.212      9.642
REMARK  Name = 
REMARK  8 active torsions:
REMARK  status: ('A' for Active; 'I' for Inactive)
REMARK    1  A    between atoms: C_1  and  C_2
REMARK    2  A    between atoms: C_2  and  C_3
REMARK    3  A    between atoms: C_6  and  C_7
REMARK    4  A    between atoms: C_6  and  C_8
REMARK    5  A    between atoms: C_13  and  N_14
REMARK    6  A    between atoms: C_15  and  C_17
REMARK    7  A    between atoms: C_20  and  C_23
REMARK    8  A    between atoms: C_23  and  O_24
REMARK                            x       y       z     vdW  Elec       q    Type
REMARK                         _______ _______ _______ _____ _____    ______ ____
ROOT
ATOM      1  C   UNL     1      10.876   1.181  24.186  0.00  0.00    +0.016 C 
ATOM      2  C   UNL     1       9.598   1.543  23.397  0.00  0.00    -0.010 C 
ATOM      3  C   UNL     1       8.632   0.352  23.446  0.00  0.00    -0.038 A 
ATOM      4  C   UNL     1       8.933  -0.794  22.690  0.00  0.00    +0.006 A 
ATOM      5  C   UNL     1       8.097  -1.912  22.677  0.00  0.00    +0.023 A 
ATOM      6  C   UNL     1       6.930  -1.934  23.427  0.00  0.00    +0.034 A 
ATOM      7  C   UNL     1       6.624  -0.807  24.200  0.00  0.00    +0.027 A 
ATOM      8  C   UNL     1       7.465   0.339  24.244  0.00  0.00    -0.036 A 
ATOM      9  C   UNL     1       7.069   1.536  25.122  0.00  0.00    -0.009 C 
ATOM     10  C   UNL     1       5.872   2.258  24.466  0.00  0.00    +0.016 C 
ATOM     11  C   UNL     1       6.653   1.091  26.544  0.00  0.00    +0.016 C 
ATOM     12  C   UNL     1       8.242   2.528  25.302  0.00  0.00    +0.012 C 
ATOM     13  C   UNL     1       8.955   2.815  23.991  0.00  0.00    +0.012 C 
ATOM     14  C   UNL     1      10.009   1.891  21.947  0.00  0.00    +0.016 C 
ENDROOT
BRANCH   6  15
ATOM     15  N   UNL     1       6.044  -3.042  23.467  0.00  0.00    -0.281 N 
ATOM     16  H   UNL     1       5.298  -3.029  22.788  0.00  0.00    +0.155 HD
ATOM     17  C   UNL     1       6.068  -4.069  24.398  0.00  0.00    +0.248 C 
ATOM     18  O   UNL     1       6.872  -4.202  25.315  0.00  0.00    -0.270 OA
BRANCH  17  19
ATOM     19  C   UNL     1       4.990  -5.096  24.301  0.00  0.00    +0.037 A 
ATOM     20  C   UNL     1       5.082  -6.200  25.163  0.00  0.00    +0.014 A 
ATOM     21  C   UNL     1       4.141  -7.229  25.108  0.00  0.00    +0.016 A 
ATOM     22  C   UNL     1       3.092  -7.167  24.188  0.00  0.00    +0.059 A 
ATOM     23  C   UNL     1       3.010  -6.081  23.302  0.00  0.00    +0.016 A 
ATOM     24  C   UNL     1       3.954  -5.044  23.361  0.00  0.00    +0.014 A 
BRANCH  22  25
ATOM     25  C   UNL     1       2.135  -8.303  24.157  0.00  0.00    +0.337 C 
ATOM     26  O   UNL     1       1.264  -8.411  23.311  0.00  0.00    -0.245 OA
BRANCH  25  27
ATOM     27  O   UNL     1       2.349  -9.225  25.116  0.00  0.00    -0.477 OA
ATOM     28  H   UNL     1       1.547  -9.582  25.538  0.00  0.00    +0.295 HD
ENDBRANCH  25  27
ENDBRANCH  22  25
ENDBRANCH  17  19
ENDBRANCH   6  15
TORSDOF 4
ENDMDL
MODEL 5
REMARK VINA RESULT:      -6.9      0.949      1.416
REMARK  Name = 
REMARK  8 active torsions:
REMARK  status: ('A' for Active; 'I' for Inactive)
REMARK    1  A    between atoms: C_1  and  C_2
REMARK    2  A    between atoms: C_2  and  C_3
REMARK    3  A    between atoms: C_6  and  C_7
REMARK    4  A    between atoms: C_6  and  C_8
REMARK    5  A    between atoms: C_13  and  N_14
REMARK    6  A    between atoms: C_15  and  C_17
REMARK    7  A    between atoms: C_20  and  C_23
REMARK    8  A    between atoms: C_23  and  O_24
REMARK                            x       y       z     vdW  Elec       q    Type
REMARK                         _______ _______ _______ _____ _____    ______ ____
ROOT
ATOM      1  C   UNL     1       4.055  -5.169  23.196  0.00  0.00    +0.016 C 
ATOM      2  C   UNL     1       5.548  -5.451  23.475  0.00  0.00    -0.010 C 
ATOM      3  C   UNL     1       6.309  -4.119  23.496  0.00  0.00    -0.038 A 
ATOM      4  C   UNL     1       6.527  -3.446  22.282  0.00  0.00    +0.006 A 
ATOM      5  C   UNL     1       7.219  -2.235  22.221  0.00  0.00    +0.023 A 
ATOM      6  C   UNL     1       7.712  -1.641  23.374  0.00  0.00    +0.034 A 
ATOM      7  C   UNL     1       7.488  -2.290  24.595  0.00  0.00    +0.027 A 
ATOM      8  C   UNL     1       6.773  -3.515  24.688  0.00  0.00    -0.036 A 
ATOM      9  C   UNL     1       6.557  -4.164  26.063  0.00  0.00    -0.009 C 
ATOM     10  C   UNL     1       7.903  -4.742  26.556  0.00  0.00    +0.016 C 
ATOM     11  C   UNL     1       6.052  -3.141  27.108  0.00  0.00    +0.016 C 
ATOM     12  C   UNL     1       5.498  -5.289  26.007  0.00  0.00    +0.012 C 
ATOM     13  C   UNL     1       5.699  -6.207  24.813  0.00  0.00    +0.012 C 
ATOM     14  C   UNL     1       6.075  -6.397  22.371  0.00  0.00    +0.016 C 
ENDROOT
BRANCH   6  15
ATOM     15  N   UNL     1       8.412  -0.407  23.382  0.00  0.00    -0.281 N 
ATOM     16  H   UNL     1       9.414  -0.472  23.274  0.00  0.00    +0.155 HD
ATOM     17  C   UNL     1       7.856   0.842  23.612  0.00  0.00    +0.248 C 
ATOM     18  O   UNL     1       6.671   1.085  23.814  0.00  0.00    -0.270 OA
BRANCH  17  19
ATOM     19  C   UNL     1       8.793   2.003  23.654  0.00  0.00    +0.037 A 
ATOM     20  C   UNL     1       8.246   3.251  23.994  0.00  0.00    +0.014 A 
ATOM     21  C   UNL     1       9.042   4.397  24.013  0.00  0.00    +0.016 A 
ATOM     22  C   UNL     1      10.399   4.310  23.693  0.00  0.00    +0.059 A 
ATOM     23  C   UNL     1      10.947   3.071  23.323  0.00  0.00    +0.016 A 
ATOM     24  C   UNL     1      10.147   1.918  23.309  0.00  0.00    +0.014 A 
BRANCH  22  25
ATOM     25  C   UNL     1      11.192   5.567  23.705  0.00  0.00    +0.337 C 
ATOM     26  O   UNL     1      11.068   6.418  24.568  0.00  0.00    -0.245 OA
BRANCH  25  27
ATOM     27  O   UNL     1      12.092   5.656  22.706  0.00  0.00    -0.477 OA
ATOM     28  H   UNL     1      12.687   6.425  22.749  0.00  0.00    +0.295 HD
ENDBRANCH  25  27
ENDBRANCH  22  25
ENDBRANCH  17  19
ENDBRANCH   6  15
TORSDOF 4
ENDMDL
MODEL 6
REMARK VINA RESULT:      -6.7      1.918      3.248
REMARK  Name = 
REMARK  8 active torsions:
REMARK  status: ('A' for Active; 'I' for Inactive)
REMARK    1  A    between atoms: C_1  and  C_2
REMARK    2  A    between atoms: C_2  and  C_3
REMARK    3  A    between atoms: C_6  and  C_7
REMARK    4  A    between atoms: C_6  and  C_8
REMARK    5  A    between atoms: C_13  and  N_14
REMARK    6  A    between atoms: C_15  and  C_17
REMARK    7  A    between atoms: C_20  and  C_23
REMARK    8  A    between atoms: C_23  and  O_24
REMARK                            x       y       z     vdW  Elec       q    Type
REMARK                         _______ _______ _______ _____ _____    ______ ____
ROOT
ATOM      1  C   UNL     1       4.274  -5.554  26.213  0.00  0.00    +0.016 C 
ATOM      2  C   UNL     1       3.953  -4.922  24.839  0.00  0.00    -0.010 C 
ATOM      3  C   UNL     1       4.801  -3.656  24.666  0.00  0.00    -0.038 A 
ATOM      4  C   UNL     1       4.473  -2.514  25.416  0.00  0.00    +0.006 A 
ATOM      5  C   UNL     1       5.193  -1.323  25.304  0.00  0.00    +0.023 A 
ATOM      6  C   UNL     1       6.278  -1.228  24.445  0.00  0.00    +0.034 A 
ATOM      7  C   UNL     1       6.631  -2.363  23.703  0.00  0.00    +0.027 A 
ATOM      8  C   UNL     1       5.925  -3.593  23.809  0.00  0.00    -0.036 A 
ATOM      9  C   UNL     1       6.375  -4.799  22.971  0.00  0.00    -0.009 C 
ATOM     10  C   UNL     1       6.002  -4.543  21.494  0.00  0.00    +0.016 C 
ATOM     11  C   UNL     1       7.903  -5.020  23.059  0.00  0.00    +0.016 C 
ATOM     12  C   UNL     1       5.715  -6.112  23.454  0.00  0.00    +0.012 C 
ATOM     13  C   UNL     1       4.227  -5.943  23.714  0.00  0.00    +0.012 C 
ATOM     14  C   UNL     1       2.438  -4.611  24.794  0.00  0.00    +0.016 C 
ENDROOT
BRANCH   6  15
ATOM     15  N   UNL     1       7.058  -0.052  24.294  0.00  0.00    -0.281 N 
ATOM     16  H   UNL     1       6.749   0.587  23.577  0.00  0.00    +0.155 HD
ATOM     17  C   UNL     1       8.231   0.238  24.974  0.00  0.00    +0.248 C 
ATOM     18  O   UNL     1       8.766  -0.455  25.832  0.00  0.00    -0.270 OA
BRANCH  17  19
ATOM     19  C   UNL     1       8.934   1.500  24.601  0.00  0.00    +0.037 A 
ATOM     20  C   UNL     1       8.299   2.707  24.936  0.00  0.00    +0.014 A 
ATOM     21  C   UNL     1       8.865   3.933  24.585  0.00  0.00    +0.016 A 
ATOM     22  C   UNL     1      10.078   3.969  23.893  0.00  0.00    +0.059 A 
ATOM     23  C   UNL     1      10.705   2.767  23.529  0.00  0.00    +0.016 A 
ATOM     24  C   UNL     1      10.137   1.534  23.887  0.00  0.00    +0.014 A 
BRANCH  22  25
ATOM     25  C   UNL     1      10.621   5.302  23.524  0.00  0.00    +0.337 C 
ATOM     26  O   UNL     1      11.813   5.554  23.525  0.00  0.00    -0.245 OA
BRANCH  25  27
ATOM     27  O   UNL     1       9.680   6.188  23.140  0.00  0.00    -0.477 OA
ATOM     28  H   UNL     1       9.817   7.101  23.449  0.00  0.00    +0.295 HD
ENDBRANCH  25  27
ENDBRANCH  22  25
ENDBRANCH  17  19
ENDBRANCH   6  15
TORSDOF 4
ENDMDL
MODEL 7
REMARK VINA RESULT:      -6.4      3.303      9.075
REMARK  Name = 
REMARK  8 active torsions:
REMARK  status: ('A' for Active; 'I' for Inactive)
REMARK    1  A    between atoms: C_1  and  C_2
REMARK    2  A    between atoms: C_2  and  C_3
REMARK    3  A    between atoms: C_6  and  C_7
REMARK    4  A    between atoms: C_6  and  C_8
REMARK    5  A    between atoms: C_13  and  N_14
REMARK    6  A    between atoms: C_15  and  C_17
REMARK    7  A    between atoms: C_20  and  C_23
REMARK    8  A    between atoms: C_23  and  O_24
REMARK                            x       y       z     vdW  Elec       q    Type
REMARK                         _______ _______ _______ _____ _____    ______ ____
ROOT
ATOM      1  C   UNL     1       9.261   6.189  23.348  0.00  0.00    +0.016 C 
ATOM      2  C   UNL     1       7.727   6.002  23.312  0.00  0.00    -0.010 C 
ATOM      3  C   UNL     1       7.412   4.501  23.290  0.00  0.00    -0.038 A 
ATOM      4  C   UNL     1       7.661   3.775  22.113  0.00  0.00    +0.006 A 
ATOM      5  C   UNL     1       7.390   2.408  22.016  0.00  0.00    +0.023 A 
ATOM      6  C   UNL     1       6.868   1.710  23.095  0.00  0.00    +0.034 A 
ATOM      7  C   UNL     1       6.630   2.415  24.281  0.00  0.00    +0.027 A 
ATOM      8  C   UNL     1       6.912   3.802  24.414  0.00  0.00    -0.036 A 
ATOM      9  C   UNL     1       6.634   4.508  25.750  0.00  0.00    -0.009 C 
ATOM     10  C   UNL     1       5.106   4.650  25.927  0.00  0.00    +0.016 C 
ATOM     11  C   UNL     1       7.193   3.706  26.949  0.00  0.00    +0.016 C 
ATOM     12  C   UNL     1       7.297   5.903  25.811  0.00  0.00    +0.012 C 
ATOM     13  C   UNL     1       7.083   6.696  24.532  0.00  0.00    +0.012 C 
ATOM     14  C   UNL     1       7.183   6.722  22.055  0.00  0.00    +0.016 C 
ENDROOT
BRANCH   6  15
ATOM     15  N   UNL     1       6.582   0.320  23.065  0.00  0.00    -0.281 N 
ATOM     16  H   UNL     1       5.612   0.077  22.923  0.00  0.00    +0.155 HD
ATOM     17  C   UNL     1       7.489  -0.702  23.297  0.00  0.00    +0.248 C 
ATOM     18  O   UNL     1       8.685  -0.573  23.536  0.00  0.00    -0.270 OA
BRANCH  17  19
ATOM     19  C   UNL     1       6.955  -2.095  23.294  0.00  0.00    +0.037 A 
ATOM     20  C   UNL     1       7.786  -3.096  22.767  0.00  0.00    +0.014 A 
ATOM     21  C   UNL     1       7.348  -4.418  22.684  0.00  0.00    +0.016 A 
ATOM     22  C   UNL     1       6.068  -4.758  23.131  0.00  0.00    +0.059 A 
ATOM     23  C   UNL     1       5.220  -3.759  23.632  0.00  0.00    +0.016 A 
ATOM     24  C   UNL     1       5.663  -2.430  23.719  0.00  0.00    +0.014 A 
BRANCH  22  25
ATOM     25  C   UNL     1       5.646  -6.176  22.995  0.00  0.00    +0.337 C 
ATOM     26  O   UNL     1       4.943  -6.739  23.816  0.00  0.00    -0.245 OA
BRANCH  25  27
ATOM     27  O   UNL     1       6.069  -6.767  21.859  0.00  0.00    -0.477 OA
ATOM     28  H   UNL     1       6.574  -6.194  21.255  0.00  0.00    +0.295 HD
ENDBRANCH  25  27
ENDBRANCH  22  25
ENDBRANCH  17  19
ENDBRANCH   6  15
TORSDOF 4
ENDMDL
MODEL 8
REMARK VINA RESULT:      -6.4      4.636      9.885
REMARK  Name = 
REMARK  8 active torsions:
REMARK  status: ('A' for Active; 'I' for Inactive)
REMARK    1  A    between atoms: C_1  and  C_2
REMARK    2  A    between atoms: C_2  and  C_3
REMARK    3  A    between atoms: C_6  and  C_7
REMARK    4  A    between atoms: C_6  and  C_8
REMARK    5  A    between atoms: C_13  and  N_14
REMARK    6  A    between atoms: C_15  and  C_17
REMARK    7  A    between atoms: C_20  and  C_23
REMARK    8  A    between atoms: C_23  and  O_24
REMARK                            x       y       z     vdW  Elec       q    Type
REMARK                         _______ _______ _______ _____ _____    ______ ____
ROOT
ATOM      1  C   UNL     1      10.727   0.145  23.893  0.00  0.00    +0.016 C 
ATOM      2  C   UNL     1       9.418   0.461  23.134  0.00  0.00    -0.010 C 
ATOM      3  C   UNL     1       8.388  -0.631  23.450  0.00  0.00    -0.038 A 
ATOM      4  C   UNL     1       8.562  -1.907  22.887  0.00  0.00    +0.006 A 
ATOM      5  C   UNL     1       7.660  -2.948  23.122  0.00  0.00    +0.023 A 
ATOM      6  C   UNL     1       6.553  -2.757  23.936  0.00  0.00    +0.034 A 
ATOM      7  C   UNL     1       6.374  -1.496  24.518  0.00  0.00    +0.027 A 
ATOM      8  C   UNL     1       7.285  -0.424  24.310  0.00  0.00    -0.036 A 
ATOM      9  C   UNL     1       7.029   0.930  24.989  0.00  0.00    -0.009 C 
ATOM     10  C   UNL     1       5.833   1.616  24.294  0.00  0.00    +0.016 C 
ATOM     11  C   UNL     1       6.693   0.764  26.490  0.00  0.00    +0.016 C 
ATOM     12  C   UNL     1       8.270   1.850  24.920  0.00  0.00    +0.012 C 
ATOM     13  C   UNL     1       8.900   1.858  23.537  0.00  0.00    +0.012 C 
ATOM     14  C   UNL     1       9.741   0.527  21.623  0.00  0.00    +0.016 C 
ENDROOT
BRANCH   6  15
ATOM     15  N   UNL     1       5.607  -3.775  24.223  0.00  0.00    -0.281 N 
ATOM     16  H   UNL     1       5.591  -4.099  25.179  0.00  0.00    +0.155 HD
ATOM     17  C   UNL     1       4.787  -4.407  23.301  0.00  0.00    +0.248 C 
ATOM     18  O   UNL     1       4.725  -4.170  22.099  0.00  0.00    -0.270 OA
BRANCH  17  19
ATOM     19  C   UNL     1       3.920  -5.509  23.809  0.00  0.00    +0.037 A 
ATOM     20  C   UNL     1       4.101  -5.898  25.146  0.00  0.00    +0.014 A 
ATOM     21  C   UNL     1       3.363  -6.950  25.690  0.00  0.00    +0.016 A 
ATOM     22  C   UNL     1       2.430  -7.629  24.902  0.00  0.00    +0.059 A 
ATOM     23  C   UNL     1       2.265  -7.267  23.556  0.00  0.00    +0.016 A 
ATOM     24  C   UNL     1       3.004  -6.205  23.011  0.00  0.00    +0.014 A 
BRANCH  22  25
ATOM     25  C   UNL     1       1.692  -8.758  25.526  0.00  0.00    +0.337 C 
ATOM     26  O   UNL     1       0.720  -8.596  26.242  0.00  0.00    -0.245 OA
BRANCH  25  27
ATOM     27  O   UNL     1       2.165  -9.974  25.188  0.00  0.00    -0.477 OA
ATOM     28  H   UNL     1       1.921 -10.284  24.299  0.00  0.00    +0.295 HD
ENDBRANCH  25  27
ENDBRANCH  22  25
ENDBRANCH  17  19
ENDBRANCH   6  15
TORSDOF 4
ENDMDL
MODEL 9
REMARK VINA RESULT:      -6.4      2.878      9.177
REMARK  Name = 
REMARK  8 active torsions:
REMARK  status: ('A' for Active; 'I' for Inactive)
REMARK    1  A    between atoms: C_1  and  C_2
REMARK    2  A    between atoms: C_2  and  C_3
REMARK    3  A    between atoms: C_6  and  C_7
REMARK    4  A    between atoms: C_6  and  C_8
REMARK    5  A    between atoms: C_13  and  N_14
REMARK    6  A    between atoms: C_15  and  C_17
REMARK    7  A    between atoms: C_20  and  C_23
REMARK    8  A    between atoms: C_23  and  O_24
REMARK                            x       y       z     vdW  Elec       q    Type
REMARK                         _______ _______ _______ _____ _____    ______ ____
ROOT
ATOM      1  C   UNL     1      11.116   5.752  25.191  0.00  0.00    +0.016 C 
ATOM      2  C   UNL     1      10.589   5.479  23.764  0.00  0.00    -0.010 C 
ATOM      3  C   UNL     1       9.952   4.084  23.730  0.00  0.00    -0.038 A 
ATOM      4  C   UNL     1      10.790   2.957  23.778  0.00  0.00    +0.006 A 
ATOM      5  C   UNL     1      10.284   1.656  23.742  0.00  0.00    +0.023 A 
ATOM      6  C   UNL     1       8.917   1.429  23.666  0.00  0.00    +0.034 A 
ATOM      7  C   UNL     1       8.066   2.541  23.634  0.00  0.00    +0.027 A 
ATOM      8  C   UNL     1       8.554   3.876  23.687  0.00  0.00    -0.036 A 
ATOM      9  C   UNL     1       7.560   5.047  23.658  0.00  0.00    -0.009 C 
ATOM     10  C   UNL     1       6.970   5.162  22.235  0.00  0.00    +0.016 C 
ATOM     11  C   UNL     1       6.396   4.836  24.655  0.00  0.00    +0.016 C 
ATOM     12  C   UNL     1       8.235   6.382  24.051  0.00  0.00    +0.012 C 
ATOM     13  C   UNL     1       9.575   6.571  23.360  0.00  0.00    +0.012 C 
ATOM     14  C   UNL     1      11.777   5.593  22.781  0.00  0.00    +0.016 C 
ENDROOT
BRANCH   6  15
ATOM     15  N   UNL     1       8.339   0.133  23.637  0.00  0.00    -0.281 N 
ATOM     16  H   UNL     1       7.815  -0.129  24.460  0.00  0.00    +0.155 HD
ATOM     17  C   UNL     1       8.505  -0.810  22.635  0.00  0.00    +0.248 C 
ATOM     18  O   UNL     1       9.151  -0.668  21.602  0.00  0.00    -0.270 OA
BRANCH  17  19
ATOM     19  C   UNL     1       7.867  -2.142  22.846  0.00  0.00    +0.037 A 
ATOM     20  C   UNL     1       6.537  -2.287  22.419  0.00  0.00    +0.014 A 
ATOM     21  C   UNL     1       5.851  -3.486  22.619  0.00  0.00    +0.016 A 
ATOM     22  C   UNL     1       6.487  -4.558  23.249  0.00  0.00    +0.059 A 
ATOM     23  C   UNL     1       7.806  -4.411  23.706  0.00  0.00    +0.016 A 
ATOM     24  C   UNL     1       8.498  -3.207  23.500  0.00  0.00    +0.014 A 
BRANCH  22  25
ATOM     25  C   UNL     1       5.698  -5.800  23.458  0.00  0.00    +0.337 C 
ATOM     26  O   UNL     1       5.404  -6.218  24.564  0.00  0.00    -0.245 OA
BRANCH  25  27
ATOM     27  O   UNL     1       5.297  -6.392  22.315  0.00  0.00    -0.477 OA
ATOM     28  H   UNL     1       4.717  -7.166  22.428  0.00  0.00    +0.295 HD
ENDBRANCH  25  27
ENDBRANCH  22  25
ENDBRANCH  17  19
ENDBRANCH   6  15
TORSDOF 4
ENDMDL
