MODEL 1
REMARK VINA RESULT:      -8.0      0.000      0.000
REMARK  Name = 
REMARK  8 active torsions:
REMARK  status: ('A' for Active; 'I' for Inactive)
REMARK    1  A    between atoms: C_1  and  C_2
REMARK    2  A    between atoms: C_2  and  C_3
REMARK    3  A    between atoms: C_3  and  C_4
REMARK    4  A    between atoms: C_4  and  C_5
REMARK    5  A    between atoms: N_14  and  C_15
REMARK    6  A    between atoms: C_15  and  C_16
REMARK    7  A    between atoms: C_19  and  C_22
REMARK    8  A    between atoms: C_27  and  C_28
REMARK                            x       y       z     vdW  Elec       q    Type
REMARK                         _______ _______ _______ _____ _____    ______ ____
ROOT
ATOM      1  C   UNL     1       7.121   0.102  25.424  0.00  0.00    -0.008 A 
ATOM      2  C   UNL     1       6.600   0.151  24.130  0.00  0.00    +0.008 A 
ATOM      3  C   UNL     1       6.395  -1.025  23.403  0.00  0.00    +0.009 A 
ATOM      4  C   UNL     1       6.656  -2.290  23.959  0.00  0.00    -0.017 A 
ATOM      5  C   UNL     1       6.964  -2.321  25.327  0.00  0.00    +0.009 A 
ATOM      6  C   UNL     1       7.249  -1.148  26.036  0.00  0.00    +0.008 A 
ENDROOT
BRANCH   4   7
ATOM      7  C   UNL     1       6.673  -3.511  23.101  0.00  0.00    -0.007 A 
ATOM      8  C   UNL     1       7.420  -4.689  23.400  0.00  0.00    +0.030 A 
ATOM      9  C   UNL     1       7.392  -5.783  22.507  0.00  0.00    +0.012 A 
ATOM     10  C   UNL     1       6.681  -5.725  21.312  0.00  0.00    +0.001 A 
ATOM     11  C   UNL     1       5.965  -4.583  21.000  0.00  0.00    +0.001 A 
ATOM     12  C   UNL     1       5.954  -3.496  21.885  0.00  0.00    +0.009 A 
BRANCH   8  13
ATOM     13  C   UNL     1       8.233  -4.864  24.600  0.00  0.00    +0.205 A 
ATOM     14  N   UNL     1       9.561  -4.492  24.645  0.00  0.00    -0.108 NA
ATOM     15  N   UNL     1      10.034  -4.897  25.815  0.00  0.00    -0.049 NA
ATOM     16  N   UNL     1       8.988  -5.480  26.414  0.00  0.00    -0.176 N 
ATOM     17  H   UNL     1       9.084  -5.977  27.297  0.00  0.00    +0.214 HD
ATOM     18  N   UNL     1       7.823  -5.409  25.758  0.00  0.00    -0.133 NA
ENDBRANCH   8  13
ENDBRANCH   4   7
BRANCH   1  19
ATOM     19  C   UNL     1       7.564   1.355  26.132  0.00  0.00    +0.270 C 
BRANCH  19  21
ATOM     20  C   UNL     1       9.369   2.159  24.534  0.00  0.00    +0.292 C 
ATOM     21  N   UNL     1       8.263   2.313  25.281  0.00  0.00    -0.153 N 
ATOM     22  C   UNL     1       7.797   3.581  25.059  0.00  0.00    +0.356 C 
ATOM     23  O   UNL     1       6.938   4.191  25.678  0.00  0.00    -0.242 OA
ATOM     24  C   UNL     1       8.504   4.037  23.793  0.00  0.00    +0.249 C 
ATOM     25  C   UNL     1       8.932   5.499  23.737  0.00  0.00    +0.069 C 
ATOM     26  C   UNL     1       8.147   6.118  22.574  0.00  0.00    +0.005 C 
ATOM     27  C   UNL     1       6.969   5.185  22.348  0.00  0.00    +0.005 C 
ATOM     28  C   UNL     1       7.571   3.813  22.594  0.00  0.00    +0.069 C 
ATOM     29  N   UNL     1       9.648   3.100  23.690  0.00  0.00    -0.069 NA
BRANCH  20  30
ATOM     30  C   UNL     1      10.272   0.952  24.644  0.00  0.00    +0.128 C 
BRANCH  30  31
ATOM     31  C   UNL     1      10.546   0.326  23.280  0.00  0.00    +0.012 C 
BRANCH  31  33
ATOM     32  C   UNL     1       9.587  -1.593  21.947  0.00  0.00    +0.004 C 
ATOM     33  C   UNL     1      10.173  -1.156  23.280  0.00  0.00    -0.003 C 
ENDBRANCH  31  33
ENDBRANCH  30  31
ENDBRANCH  20  30
ENDBRANCH  19  21
ENDBRANCH   1  19
TORSDOF 7
ENDMDL
MODEL 2
REMARK VINA RESULT:      -7.9      2.311      7.967
REMARK  Name = 
REMARK  8 active torsions:
REMARK  status: ('A' for Active; 'I' for Inactive)
REMARK    1  A    between atoms: C_1  and  C_2
REMARK    2  A    between atoms: C_2  and  C_3
REMARK    3  A    between atoms: C_3  and  C_4
REMARK    4  A    between atoms: C_4  and  C_5
REMARK    5  A    between atoms: N_14  and  C_15
REMARK    6  A    between atoms: C_15  and  C_16
REMARK    7  A    between atoms: C_19  and  C_22
REMARK    8  A    between atoms: C_27  and  C_28
REMARK                            x       y       z     vdW  Elec       q    Type
REMARK                         _______ _______ _______ _____ _____    ______ ____
ROOT
ATOM      1  C   UNL     1       9.766  -1.064  23.622  0.00  0.00    -0.008 A 
ATOM      2  C   UNL     1       9.660  -0.376  22.413  0.00  0.00    +0.008 A 
ATOM      3  C   UNL     1       9.769   1.018  22.378  0.00  0.00    +0.009 A 
ATOM      4  C   UNL     1      10.035   1.765  23.539  0.00  0.00    -0.017 A 
ATOM      5  C   UNL     1      10.356   1.036  24.694  0.00  0.00    +0.009 A 
ATOM      6  C   UNL     1      10.170  -0.350  24.754  0.00  0.00    +0.008 A 
ENDROOT
BRANCH   4   7
ATOM      7  C   UNL     1       9.901   3.252  23.536  0.00  0.00    -0.007 A 
ATOM      8  C   UNL     1       8.658   3.943  23.426  0.00  0.00    +0.030 A 
ATOM      9  C   UNL     1       8.641   5.356  23.404  0.00  0.00    +0.012 A 
ATOM     10  C   UNL     1       9.818   6.095  23.446  0.00  0.00    +0.001 A 
ATOM     11  C   UNL     1      11.033   5.439  23.537  0.00  0.00    +0.001 A 
ATOM     12  C   UNL     1      11.073   4.039  23.590  0.00  0.00    +0.009 A 
BRANCH   8  13
ATOM     13  C   UNL     1       7.357   3.286  23.337  0.00  0.00    +0.205 A 
ATOM     14  N   UNL     1       6.723   2.765  24.446  0.00  0.00    -0.108 NA
ATOM     15  N   UNL     1       5.642   2.135  24.009  0.00  0.00    -0.049 NA
ATOM     16  N   UNL     1       5.669   2.306  22.682  0.00  0.00    -0.176 N 
ATOM     17  H   UNL     1       5.007   1.839  22.066  0.00  0.00    +0.214 HD
ATOM     18  N   UNL     1       6.650   3.088  22.212  0.00  0.00    -0.133 NA
ENDBRANCH   8  13
ENDBRANCH   4   7
BRANCH   1  19
ATOM     19  C   UNL     1       9.424  -2.528  23.716  0.00  0.00    +0.270 C 
BRANCH  19  21
ATOM     20  C   UNL     1       6.923  -2.957  23.853  0.00  0.00    +0.292 C 
ATOM     21  N   UNL     1       8.152  -2.808  24.375  0.00  0.00    -0.153 N 
ATOM     22  C   UNL     1       8.053  -3.048  25.719  0.00  0.00    +0.356 C 
ATOM     23  O   UNL     1       8.882  -2.831  26.589  0.00  0.00    -0.242 OA
ATOM     24  C   UNL     1       6.718  -3.754  25.888  0.00  0.00    +0.249 C 
ATOM     25  C   UNL     1       5.910  -3.401  27.133  0.00  0.00    +0.069 C 
ATOM     26  C   UNL     1       5.801  -4.700  27.941  0.00  0.00    +0.005 C 
ATOM     27  C   UNL     1       6.930  -5.580  27.432  0.00  0.00    +0.005 C 
ATOM     28  C   UNL     1       6.960  -5.269  25.946  0.00  0.00    +0.069 C 
ATOM     29  N   UNL     1       6.003  -3.431  24.630  0.00  0.00    -0.069 NA
BRANCH  20  30
ATOM     30  C   UNL     1       6.590  -2.600  22.421  0.00  0.00    +0.128 C 
BRANCH  30  31
ATOM     31  C   UNL     1       6.064  -3.804  21.647  0.00  0.00    +0.012 C 
BRANCH  31  33
ATOM     32  C   UNL     1       6.422  -6.256  22.136  0.00  0.00    +0.004 C 
ATOM     33  C   UNL     1       7.069  -4.955  21.688  0.00  0.00    -0.003 C 
ENDBRANCH  31  33
ENDBRANCH  30  31
ENDBRANCH  20  30
ENDBRANCH  19  21
ENDBRANCH   1  19
TORSDOF 7
ENDMDL
MODEL 3
REMARK VINA RESULT:      -7.8      3.318      4.608
REMARK  Name = 
REMARK  8 active torsions:
REMARK  status: ('A' for Active; 'I' for Inactive)
REMARK    1  A    between atoms: C_1  and  C_2
REMARK    2  A    between atoms: C_2  and  C_3
REMARK    3  A    between atoms: C_3  and  C_4
REMARK    4  A    between atoms: C_4  and  C_5
REMARK    5  A    between atoms: N_14  and  C_15
REMARK    6  A    between atoms: C_15  and  C_16
REMARK    7  A    between atoms: C_19  and  C_22
REMARK    8  A    between atoms: C_27  and  C_28
REMARK                            x       y       z     vdW  Elec       q    Type
REMARK                         _______ _______ _______ _____ _____    ______ ____
ROOT
ATOM      1  C   UNL     1       8.551  -3.302  25.291  0.00  0.00    -0.008 A 
ATOM      2  C   UNL     1       7.602  -2.563  25.998  0.00  0.00    +0.008 A 
ATOM      3  C   UNL     1       6.387  -3.144  26.374  0.00  0.00    +0.009 A 
ATOM      4  C   UNL     1       6.099  -4.493  26.100  0.00  0.00    -0.017 A 
ATOM      5  C   UNL     1       7.153  -5.267  25.590  0.00  0.00    +0.009 A 
ATOM      6  C   UNL     1       8.338  -4.675  25.138  0.00  0.00    +0.008 A 
ENDROOT
BRANCH   4   7
ATOM      7  C   UNL     1       4.718  -5.030  26.278  0.00  0.00    -0.007 A 
ATOM      8  C   UNL     1       4.316  -5.859  27.367  0.00  0.00    +0.030 A 
ATOM      9  C   UNL     1       2.989  -6.341  27.429  0.00  0.00    +0.012 A 
ATOM     10  C   UNL     1       2.068  -6.056  26.427  0.00  0.00    +0.001 A 
ATOM     11  C   UNL     1       2.447  -5.266  25.357  0.00  0.00    +0.001 A 
ATOM     12  C   UNL     1       3.749  -4.753  25.288  0.00  0.00    +0.009 A 
BRANCH   8  13
ATOM     13  C   UNL     1       5.194  -6.261  28.462  0.00  0.00    +0.205 A 
ATOM     14  N   UNL     1       5.549  -5.391  29.472  0.00  0.00    -0.108 NA
ATOM     15  N   UNL     1       6.443  -6.018  30.223  0.00  0.00    -0.049 NA
ATOM     16  N   UNL     1       6.581  -7.219  29.646  0.00  0.00    -0.176 N 
ATOM     17  H   UNL     1       7.286  -7.885  29.953  0.00  0.00    +0.214 HD
ATOM     18  N   UNL     1       5.768  -7.467  28.610  0.00  0.00    -0.133 NA
ENDBRANCH   8  13
ENDBRANCH   4   7
BRANCH   1  19
ATOM     19  C   UNL     1       9.756  -2.637  24.678  0.00  0.00    +0.270 C 
BRANCH  19  21
ATOM     20  C   UNL     1       8.564  -1.406  22.802  0.00  0.00    +0.292 C 
ATOM     21  N   UNL     1       9.444  -1.504  23.812  0.00  0.00    -0.153 N 
ATOM     22  C   UNL     1      10.005  -0.267  23.983  0.00  0.00    +0.356 C 
ATOM     23  O   UNL     1      10.981   0.034  24.652  0.00  0.00    -0.242 OA
ATOM     24  C   UNL     1       9.081   0.683  23.240  0.00  0.00    +0.249 C 
ATOM     25  C   UNL     1       9.741   1.835  22.490  0.00  0.00    +0.069 C 
ATOM     26  C   UNL     1       9.226   3.116  23.157  0.00  0.00    +0.005 C 
ATOM     27  C   UNL     1       8.731   2.680  24.526  0.00  0.00    +0.005 C 
ATOM     28  C   UNL     1       8.113   1.322  24.246  0.00  0.00    +0.069 C 
ATOM     29  N   UNL     1       8.315  -0.220  22.347  0.00  0.00    -0.069 NA
BRANCH  20  30
ATOM     30  C   UNL     1       7.871  -2.606  22.197  0.00  0.00    +0.128 C 
BRANCH  30  31
ATOM     31  C   UNL     1       6.371  -2.591  22.475  0.00  0.00    +0.012 C 
BRANCH  31  33
ATOM     32  C   UNL     1       6.816  -4.996  21.847  0.00  0.00    +0.004 C 
ATOM     33  C   UNL     1       5.762  -3.972  22.236  0.00  0.00    -0.003 C 
ENDBRANCH  31  33
ENDBRANCH  30  31
ENDBRANCH  20  30
ENDBRANCH  19  21
ENDBRANCH   1  19
TORSDOF 7
ENDMDL
MODEL 4
REMARK VINA RESULT:      -7.8      2.536      3.131
REMARK  Name = 
REMARK  8 active torsions:
REMARK  status: ('A' for Active; 'I' for Inactive)
REMARK    1  A    between atoms: C_1  and  C_2
REMARK    2  A    between atoms: C_2  and  C_3
REMARK    3  A    between atoms: C_3  and  C_4
REMARK    4  A    between atoms: C_4  and  C_5
REMARK    5  A    between atoms: N_14  and  C_15
REMARK    6  A    between atoms: C_15  and  C_16
REMARK    7  A    between atoms: C_19  and  C_22
REMARK    8  A    between atoms: C_27  and  C_28
REMARK                            x       y       z     vdW  Elec       q    Type
REMARK                         _______ _______ _______ _____ _____    ______ ____
ROOT
ATOM      1  C   UNL     1       7.700  -1.159  25.860  0.00  0.00    -0.008 A 
ATOM      2  C   UNL     1       8.310  -2.367  26.202  0.00  0.00    +0.008 A 
ATOM      3  C   UNL     1       7.637  -3.578  26.018  0.00  0.00    +0.009 A 
ATOM      4  C   UNL     1       6.355  -3.629  25.443  0.00  0.00    -0.017 A 
ATOM      5  C   UNL     1       5.861  -2.429  24.907  0.00  0.00    +0.009 A 
ATOM      6  C   UNL     1       6.492  -1.206  25.160  0.00  0.00    +0.008 A 
ENDROOT
BRANCH   4   7
ATOM      7  C   UNL     1       5.550  -4.885  25.482  0.00  0.00    -0.007 A 
ATOM      8  C   UNL     1       5.334  -5.732  24.354  0.00  0.00    +0.030 A 
ATOM      9  C   UNL     1       4.531  -6.887  24.488  0.00  0.00    +0.012 A 
ATOM     10  C   UNL     1       3.908  -7.201  25.692  0.00  0.00    +0.001 A 
ATOM     11  C   UNL     1       4.096  -6.381  26.791  0.00  0.00    +0.001 A 
ATOM     12  C   UNL     1       4.912  -5.245  26.690  0.00  0.00    +0.009 A 
BRANCH   8  13
ATOM     13  C   UNL     1       5.898  -5.496  23.029  0.00  0.00    +0.205 A 
ATOM     14  N   UNL     1       5.196  -4.840  22.040  0.00  0.00    -0.108 NA
ATOM     15  N   UNL     1       5.930  -4.905  20.939  0.00  0.00    -0.049 NA
ATOM     16  N   UNL     1       7.026  -5.581  21.308  0.00  0.00    -0.176 N 
ATOM     17  H   UNL     1       7.730  -5.871  20.633  0.00  0.00    +0.214 HD
ATOM     18  N   UNL     1       7.112  -5.892  22.608  0.00  0.00    -0.133 NA
ENDBRANCH   8  13
ENDBRANCH   4   7
BRANCH   1  19
ATOM     19  C   UNL     1       8.308   0.160  26.261  0.00  0.00    +0.270 C 
BRANCH  19  21
ATOM     20  C   UNL     1       9.388   0.983  24.114  0.00  0.00    +0.292 C 
ATOM     21  N   UNL     1       8.540   1.078  25.151  0.00  0.00    -0.153 N 
ATOM     22  C   UNL     1       7.806   2.220  24.972  0.00  0.00    +0.356 C 
ATOM     23  O   UNL     1       7.071   2.780  25.771  0.00  0.00    -0.242 OA
ATOM     24  C   UNL     1       8.017   2.590  23.513  0.00  0.00    +0.249 C 
ATOM     25  C   UNL     1       8.135   4.076  23.194  0.00  0.00    +0.069 C 
ATOM     26  C   UNL     1       6.945   4.402  22.283  0.00  0.00    +0.005 C 
ATOM     27  C   UNL     1       5.944   3.285  22.521  0.00  0.00    +0.005 C 
ATOM     28  C   UNL     1       6.831   2.064  22.691  0.00  0.00    +0.069 C 
ATOM     29  N   UNL     1       9.232   1.825  23.143  0.00  0.00    -0.069 NA
BRANCH  20  30
ATOM     30  C   UNL     1      10.488  -0.051  24.045  0.00  0.00    +0.128 C 
BRANCH  30  31
ATOM     31  C   UNL     1      10.429  -0.852  22.749  0.00  0.00    +0.012 C 
BRANCH  31  33
ATOM     32  C   UNL     1       8.386  -2.240  22.220  0.00  0.00    +0.004 C 
ATOM     33  C   UNL     1       9.709  -2.183  22.967  0.00  0.00    -0.003 C 
ENDBRANCH  31  33
ENDBRANCH  30  31
ENDBRANCH  20  30
ENDBRANCH  19  21
ENDBRANCH   1  19
TORSDOF 7
ENDMDL
MODEL 5
REMARK VINA RESULT:      -7.7      2.929      7.659
REMARK  Name = 
REMARK  8 active torsions:
REMARK  status: ('A' for Active; 'I' for Inactive)
REMARK    1  A    between atoms: C_1  and  C_2
REMARK    2  A    between atoms: C_2  and  C_3
REMARK    3  A    between atoms: C_3  and  C_4
REMARK    4  A    between atoms: C_4  and  C_5
REMARK    5  A    between atoms: N_14  and  C_15
REMARK    6  A    between atoms: C_15  and  C_16
REMARK    7  A    between atoms: C_19  and  C_22
REMARK    8  A    between atoms: C_27  and  C_28
REMARK                            x       y       z     vdW  Elec       q    Type
REMARK                         _______ _______ _______ _____ _____    ______ ____
ROOT
ATOM      1  C   UNL     1       7.560  -2.747  26.337  0.00  0.00    -0.008 A 
ATOM      2  C   UNL     1       8.666  -2.026  26.786  0.00  0.00    +0.008 A 
ATOM      3  C   UNL     1       8.883  -0.716  26.350  0.00  0.00    +0.009 A 
ATOM      4  C   UNL     1       7.979  -0.065  25.492  0.00  0.00    -0.017 A 
ATOM      5  C   UNL     1       6.770  -0.730  25.236  0.00  0.00    +0.009 A 
ATOM      6  C   UNL     1       6.585  -2.068  25.602  0.00  0.00    +0.008 A 
ENDROOT
BRANCH   4   7
ATOM      7  C   UNL     1       8.342   1.227  24.840  0.00  0.00    -0.007 A 
ATOM      8  C   UNL     1       9.043   1.329  23.601  0.00  0.00    +0.030 A 
ATOM      9  C   UNL     1       9.365   2.603  23.081  0.00  0.00    +0.012 A 
ATOM     10  C   UNL     1       9.049   3.768  23.771  0.00  0.00    +0.001 A 
ATOM     11  C   UNL     1       8.383   3.685  24.981  0.00  0.00    +0.001 A 
ATOM     12  C   UNL     1       8.027   2.434  25.503  0.00  0.00    +0.009 A 
BRANCH   8  13
ATOM     13  C   UNL     1       9.463   0.185  22.798  0.00  0.00    +0.205 A 
ATOM     14  N   UNL     1      10.367  -0.746  23.266  0.00  0.00    -0.108 NA
ATOM     15  N   UNL     1      10.627  -1.569  22.261  0.00  0.00    -0.049 NA
ATOM     16  N   UNL     1       9.878  -1.109  21.251  0.00  0.00    -0.176 N 
ATOM     17  H   UNL     1       9.951  -1.491  20.310  0.00  0.00    +0.214 HD
ATOM     18  N   UNL     1       9.064  -0.086  21.544  0.00  0.00    -0.133 NA
ENDBRANCH   8  13
ENDBRANCH   4   7
BRANCH   1  19
ATOM     19  C   UNL     1       7.432  -4.224  26.607  0.00  0.00    +0.270 C 
BRANCH  19  21
ATOM     20  C   UNL     1       5.712  -5.714  25.476  0.00  0.00    +0.292 C 
ATOM     21  N   UNL     1       6.842  -4.988  25.512  0.00  0.00    -0.153 N 
ATOM     22  C   UNL     1       7.374  -5.002  24.251  0.00  0.00    +0.356 C 
ATOM     23  O   UNL     1       8.484  -4.636  23.894  0.00  0.00    -0.242 OA
ATOM     24  C   UNL     1       6.239  -5.473  23.358  0.00  0.00    +0.249 C 
ATOM     25  C   UNL     1       6.613  -6.397  22.204  0.00  0.00    +0.069 C 
ATOM     26  C   UNL     1       6.248  -5.635  20.924  0.00  0.00    +0.005 C 
ATOM     27  C   UNL     1       6.172  -4.175  21.338  0.00  0.00    +0.005 C 
ATOM     28  C   UNL     1       5.561  -4.248  22.727  0.00  0.00    +0.069 C 
ATOM     29  N   UNL     1       5.295  -6.102  24.313  0.00  0.00    -0.069 NA
BRANCH  20  30
ATOM     30  C   UNL     1       4.932  -6.081  26.718  0.00  0.00    +0.128 C 
BRANCH  30  31
ATOM     31  C   UNL     1       3.528  -5.485  26.698  0.00  0.00    +0.012 C 
BRANCH  31  33
ATOM     32  C   UNL     1       3.009  -3.280  25.581  0.00  0.00    +0.004 C 
ATOM     33  C   UNL     1       3.585  -3.962  26.812  0.00  0.00    -0.003 C 
ENDBRANCH  31  33
ENDBRANCH  30  31
ENDBRANCH  20  30
ENDBRANCH  19  21
ENDBRANCH   1  19
TORSDOF 7
ENDMDL
MODEL 6
REMARK VINA RESULT:      -7.6      2.054      7.631
REMARK  Name = 
REMARK  8 active torsions:
REMARK  status: ('A' for Active; 'I' for Inactive)
REMARK    1  A    between atoms: C_1  and  C_2
REMARK    2  A    between atoms: C_2  and  C_3
REMARK    3  A    between atoms: C_3  and  C_4
REMARK    4  A    between atoms: C_4  and  C_5
REMARK    5  A    between atoms: N_14  and  C_15
REMARK    6  A    between atoms: C_15  and  C_16
REMARK    7  A    between atoms: C_19  and  C_22
REMARK    8  A    between atoms: C_27  and  C_28
REMARK                            x       y       z     vdW  Elec       q    Type
REMARK                         _______ _______ _______ _____ _____    ______ ____
ROOT
ATOM      1  C   UNL     1       9.448  -0.414  22.691  0.00  0.00    -0.008 A 
ATOM      2  C   UNL     1       9.413   0.572  21.705  0.00  0.00    +0.008 A 
ATOM      3  C   UNL     1       9.889   1.860  21.973  0.00  0.00    +0.009 A 
ATOM      4  C   UNL     1      10.458   2.191  23.215  0.00  0.00    -0.017 A 
ATOM      5  C   UNL     1      10.683   1.130  24.104  0.00  0.00    +0.009 A 
ATOM      6  C   UNL     1      10.137  -0.139  23.875  0.00  0.00    +0.008 A 
ENDROOT
BRANCH   4   7
ATOM      7  C   UNL     1      10.729   3.614  23.574  0.00  0.00    -0.007 A 
ATOM      8  C   UNL     1       9.753   4.502  24.117  0.00  0.00    +0.030 A 
ATOM      9  C   UNL     1      10.103   5.843  24.396  0.00  0.00    +0.012 A 
ATOM     10  C   UNL     1      11.375   6.333  24.116  0.00  0.00    +0.001 A 
ATOM     11  C   UNL     1      12.327   5.487  23.575  0.00  0.00    +0.001 A 
ATOM     12  C   UNL     1      12.012   4.147  23.316  0.00  0.00    +0.009 A 
BRANCH   8  13
ATOM     13  C   UNL     1       8.377   4.124  24.422  0.00  0.00    +0.205 A 
ATOM     14  N   UNL     1       7.331   4.413  23.570  0.00  0.00    -0.108 NA
ATOM     15  N   UNL     1       6.218   4.055  24.192  0.00  0.00    -0.049 NA
ATOM     16  N   UNL     1       6.634   3.569  25.369  0.00  0.00    -0.176 N 
ATOM     17  H   UNL     1       5.980   3.308  26.104  0.00  0.00    +0.214 HD
ATOM     18  N   UNL     1       7.961   3.495  25.535  0.00  0.00    -0.133 NA
ENDBRANCH   8  13
ENDBRANCH   4   7
BRANCH   1  19
ATOM     19  C   UNL     1       8.735  -1.728  22.502  0.00  0.00    +0.270 C 
BRANCH  19  21
ATOM     20  C   UNL     1       7.659  -3.179  24.289  0.00  0.00    +0.292 C 
ATOM     21  N   UNL     1       7.787  -2.057  23.561  0.00  0.00    -0.153 N 
ATOM     22  C   UNL     1       6.873  -1.157  24.040  0.00  0.00    +0.356 C 
ATOM     23  O   UNL     1       6.523  -0.098  23.543  0.00  0.00    -0.242 OA
ATOM     24  C   UNL     1       6.461  -1.709  25.394  0.00  0.00    +0.249 C 
ATOM     25  C   UNL     1       4.994  -1.551  25.781  0.00  0.00    +0.069 C 
ATOM     26  C   UNL     1       4.986  -0.657  27.027  0.00  0.00    +0.005 C 
ATOM     27  C   UNL     1       6.323   0.062  27.010  0.00  0.00    +0.005 C 
ATOM     28  C   UNL     1       7.273  -1.001  26.488  0.00  0.00    +0.069 C 
ATOM     29  N   UNL     1       6.886  -3.128  25.325  0.00  0.00    -0.069 NA
BRANCH  20  30
ATOM     30  C   UNL     1       8.375  -4.466  23.946  0.00  0.00    +0.128 C 
BRANCH  30  31
ATOM     31  C   UNL     1       7.441  -5.473  23.284  0.00  0.00    +0.012 C 
BRANCH  31  33
ATOM     32  C   UNL     1       6.083  -5.952  21.209  0.00  0.00    +0.004 C 
ATOM     33  C   UNL     1       7.155  -5.076  21.836  0.00  0.00    -0.003 C 
ENDBRANCH  31  33
ENDBRANCH  30  31
ENDBRANCH  20  30
ENDBRANCH  19  21
ENDBRANCH   1  19
TORSDOF 7
ENDMDL
MODEL 7
REMARK VINA RESULT:      -7.5      2.584      8.207
REMARK  Name = 
REMARK  8 active torsions:
REMARK  status: ('A' for Active; 'I' for Inactive)
REMARK    1  A    between atoms: C_1  and  C_2
REMARK    2  A    between atoms: C_2  and  C_3
REMARK    3  A    between atoms: C_3  and  C_4
REMARK    4  A    between atoms: C_4  and  C_5
REMARK    5  A    between atoms: N_14  and  C_15
REMARK    6  A    between atoms: C_15  and  C_16
REMARK    7  A    between atoms: C_19  and  C_22
REMARK    8  A    between atoms: C_27  and  C_28
REMARK                            x       y       z     vdW  Elec       q    Type
REMARK                         _______ _______ _______ _____ _____    ______ ____
ROOT
ATOM      1  C   UNL     1       9.482  -0.519  22.568  0.00  0.00    -0.008 A 
ATOM      2  C   UNL     1       9.439   0.463  21.577  0.00  0.00    +0.008 A 
ATOM      3  C   UNL     1       9.885   1.761  21.846  0.00  0.00    +0.009 A 
ATOM      4  C   UNL     1      10.431   2.109  23.094  0.00  0.00    -0.017 A 
ATOM      5  C   UNL     1      10.666   1.055  23.990  0.00  0.00    +0.009 A 
ATOM      6  C   UNL     1      10.150  -0.225  23.759  0.00  0.00    +0.008 A 
ENDROOT
BRANCH   4   7
ATOM      7  C   UNL     1      10.667   3.539  23.451  0.00  0.00    -0.007 A 
ATOM      8  C   UNL     1       9.632   4.465  23.776  0.00  0.00    +0.030 A 
ATOM      9  C   UNL     1       9.959   5.807  24.072  0.00  0.00    +0.012 A 
ATOM     10  C   UNL     1      11.272   6.262  24.016  0.00  0.00    +0.001 A 
ATOM     11  C   UNL     1      12.286   5.379  23.687  0.00  0.00    +0.001 A 
ATOM     12  C   UNL     1      11.989   4.036  23.418  0.00  0.00    +0.009 A 
BRANCH   8  13
ATOM     13  C   UNL     1       8.214   4.124  23.834  0.00  0.00    +0.205 A 
ATOM     14  N   UNL     1       7.465   3.906  22.696  0.00  0.00    -0.108 NA
ATOM     15  N   UNL     1       6.209   3.748  23.086  0.00  0.00    -0.049 NA
ATOM     16  N   UNL     1       6.255   3.870  24.419  0.00  0.00    -0.176 N 
ATOM     17  H   UNL     1       5.411   3.894  24.986  0.00  0.00    +0.214 HD
ATOM     18  N   UNL     1       7.476   4.009  24.952  0.00  0.00    -0.133 NA
ENDBRANCH   8  13
ENDBRANCH   4   7
BRANCH   1  19
ATOM     19  C   UNL     1       8.799  -1.848  22.374  0.00  0.00    +0.270 C 
BRANCH  19  21
ATOM     20  C   UNL     1       6.872  -1.630  24.016  0.00  0.00    +0.292 C 
ATOM     21  N   UNL     1       7.938  -2.249  23.482  0.00  0.00    -0.153 N 
ATOM     22  C   UNL     1       8.074  -3.450  24.126  0.00  0.00    +0.356 C 
ATOM     23  O   UNL     1       9.017  -4.226  24.087  0.00  0.00    -0.242 OA
ATOM     24  C   UNL     1       6.742  -3.668  24.823  0.00  0.00    +0.249 C 
ATOM     25  C   UNL     1       6.790  -4.310  26.206  0.00  0.00    +0.069 C 
ATOM     26  C   UNL     1       6.038  -5.640  26.073  0.00  0.00    +0.005 C 
ATOM     27  C   UNL     1       6.041  -5.952  24.587  0.00  0.00    +0.005 C 
ATOM     28  C   UNL     1       5.869  -4.583  23.953  0.00  0.00    +0.069 C 
ATOM     29  N   UNL     1       6.144  -2.311  24.841  0.00  0.00    -0.069 NA
BRANCH  20  30
ATOM     30  C   UNL     1       6.505  -0.200  23.690  0.00  0.00    +0.128 C 
BRANCH  30  31
ATOM     31  C   UNL     1       6.176   0.599  24.946  0.00  0.00    +0.012 C 
BRANCH  31  33
ATOM     32  C   UNL     1       7.011   1.192  27.255  0.00  0.00    +0.004 C 
ATOM     33  C   UNL     1       7.384   0.659  25.881  0.00  0.00    -0.003 C 
ENDBRANCH  31  33
ENDBRANCH  30  31
ENDBRANCH  20  30
ENDBRANCH  19  21
ENDBRANCH   1  19
TORSDOF 7
ENDMDL
MODEL 8
REMARK VINA RESULT:      -7.4      1.662      2.072
REMARK  Name = 
REMARK  8 active torsions:
REMARK  status: ('A' for Active; 'I' for Inactive)
REMARK    1  A    between atoms: C_1  and  C_2
REMARK    2  A    between atoms: C_2  and  C_3
REMARK    3  A    between atoms: C_3  and  C_4
REMARK    4  A    between atoms: C_4  and  C_5
REMARK    5  A    between atoms: N_14  and  C_15
REMARK    6  A    between atoms: C_15  and  C_16
REMARK    7  A    between atoms: C_19  and  C_22
REMARK    8  A    between atoms: C_27  and  C_28
REMARK                            x       y       z     vdW  Elec       q    Type
REMARK                         _______ _______ _______ _____ _____    ______ ____
ROOT
ATOM      1  C   UNL     1       7.311  -0.536  25.896  0.00  0.00    -0.008 A 
ATOM      2  C   UNL     1       6.268  -0.579  24.970  0.00  0.00    +0.008 A 
ATOM      3  C   UNL     1       5.952  -1.773  24.313  0.00  0.00    +0.009 A 
ATOM      4  C   UNL     1       6.634  -2.970  24.593  0.00  0.00    -0.017 A 
ATOM      5  C   UNL     1       7.520  -2.947  25.681  0.00  0.00    +0.009 A 
ATOM      6  C   UNL     1       7.897  -1.743  26.286  0.00  0.00    +0.008 A 
ENDROOT
BRANCH   4   7
ATOM      7  C   UNL     1       6.463  -4.167  23.718  0.00  0.00    -0.007 A 
ATOM      8  C   UNL     1       5.789  -5.360  24.115  0.00  0.00    +0.030 A 
ATOM      9  C   UNL     1       5.707  -6.450  23.221  0.00  0.00    +0.012 A 
ATOM     10  C   UNL     1       6.306  -6.405  21.966  0.00  0.00    +0.001 A 
ATOM     11  C   UNL     1       6.977  -5.260  21.572  0.00  0.00    +0.001 A 
ATOM     12  C   UNL     1       7.047  -4.155  22.431  0.00  0.00    +0.009 A 
BRANCH   8  13
ATOM     13  C   UNL     1       5.151  -5.549  25.414  0.00  0.00    +0.205 A 
ATOM     14  N   UNL     1       5.670  -6.398  26.369  0.00  0.00    -0.108 NA
ATOM     15  N   UNL     1       4.797  -6.438  27.365  0.00  0.00    -0.049 NA
ATOM     16  N   UNL     1       3.809  -5.622  26.975  0.00  0.00    -0.176 N 
ATOM     17  H   UNL     1       2.945  -5.534  27.505  0.00  0.00    +0.214 HD
ATOM     18  N   UNL     1       4.010  -4.968  25.824  0.00  0.00    -0.133 NA
ENDBRANCH   8  13
ENDBRANCH   4   7
BRANCH   1  19
ATOM     19  C   UNL     1       7.815   0.776  26.438  0.00  0.00    +0.270 C 
BRANCH  19  21
ATOM     20  C   UNL     1       9.309   1.667  24.585  0.00  0.00    +0.292 C 
ATOM     21  N   UNL     1       8.255   1.721  25.416  0.00  0.00    -0.153 N 
ATOM     22  C   UNL     1       7.544   2.847  25.097  0.00  0.00    +0.356 C 
ATOM     23  O   UNL     1       6.638   3.373  25.725  0.00  0.00    -0.242 OA
ATOM     24  C   UNL     1       8.054   3.249  23.723  0.00  0.00    +0.249 C 
ATOM     25  C   UNL     1       8.196   4.743  23.455  0.00  0.00    +0.069 C 
ATOM     26  C   UNL     1       7.222   5.056  22.313  0.00  0.00    +0.005 C 
ATOM     27  C   UNL     1       6.225   3.910  22.315  0.00  0.00    +0.005 C 
ATOM     28  C   UNL     1       7.089   2.709  22.657  0.00  0.00    +0.069 C 
ATOM     29  N   UNL     1       9.342   2.522  23.615  0.00  0.00    -0.069 NA
BRANCH  20  30
ATOM     30  C   UNL     1      10.427   0.661  24.743  0.00  0.00    +0.128 C 
BRANCH  30  31
ATOM     31  C   UNL     1      10.724  -0.062  23.434  0.00  0.00    +0.012 C 
BRANCH  31  33
ATOM     32  C   UNL     1       8.947  -1.095  21.966  0.00  0.00    +0.004 C 
ATOM     33  C   UNL     1       9.768  -1.239  23.237  0.00  0.00    -0.003 C 
ENDBRANCH  31  33
ENDBRANCH  30  31
ENDBRANCH  20  30
ENDBRANCH  19  21
ENDBRANCH   1  19
TORSDOF 7
ENDMDL
MODEL 9
REMARK VINA RESULT:      -7.3      2.579      3.854
REMARK  Name = 
REMARK  8 active torsions:
REMARK  status: ('A' for Active; 'I' for Inactive)
REMARK    1  A    between atoms: C_1  and  C_2
REMARK    2  A    between atoms: C_2  and  C_3
REMARK    3  A    between atoms: C_3  and  C_4
REMARK    4  A    between atoms: C_4  and  C_5
REMARK    5  A    between atoms: N_14  and  C_15
REMARK    6  A    between atoms: C_15  and  C_16
REMARK    7  A    between atoms: C_19  and  C_22
REMARK    8  A    between atoms: C_27  and  C_28
REMARK                            x       y       z     vdW  Elec       q    Type
REMARK                         _______ _______ _______ _____ _____    ______ ____
ROOT
ATOM      1  C   UNL     1       7.433  -2.728  22.483  0.00  0.00    -0.008 A 
ATOM      2  C   UNL     1       7.570  -4.077  22.157  0.00  0.00    +0.008 A 
ATOM      3  C   UNL     1       6.602  -5.005  22.555  0.00  0.00    +0.009 A 
ATOM      4  C   UNL     1       5.444  -4.610  23.247  0.00  0.00    -0.017 A 
ATOM      5  C   UNL     1       5.225  -3.229  23.365  0.00  0.00    +0.009 A 
ATOM      6  C   UNL     1       6.225  -2.304  23.042  0.00  0.00    +0.008 A 
ENDROOT
BRANCH   4   7
ATOM      7  C   UNL     1       4.551  -5.624  23.881  0.00  0.00    -0.007 A 
ATOM      8  C   UNL     1       4.833  -6.278  25.117  0.00  0.00    +0.030 A 
ATOM      9  C   UNL     1       3.935  -7.247  25.618  0.00  0.00    +0.012 A 
ATOM     10  C   UNL     1       2.794  -7.612  24.911  0.00  0.00    +0.001 A 
ATOM     11  C   UNL     1       2.515  -6.998  23.703  0.00  0.00    +0.001 A 
ATOM     12  C   UNL     1       3.375  -6.013  23.199  0.00  0.00    +0.009 A 
BRANCH   8  13
ATOM     13  C   UNL     1       6.011  -6.014  25.936  0.00  0.00    +0.205 A 
ATOM     14  N   UNL     1       7.232  -5.690  25.381  0.00  0.00    -0.108 NA
ATOM     15  N   UNL     1       8.106  -5.641  26.376  0.00  0.00    -0.049 NA
ATOM     16  N   UNL     1       7.386  -5.926  27.467  0.00  0.00    -0.176 N 
ATOM     17  H   UNL     1       7.820  -6.060  28.378  0.00  0.00    +0.214 HD
ATOM     18  N   UNL     1       6.068  -6.073  27.278  0.00  0.00    -0.133 NA
ENDBRANCH   8  13
ENDBRANCH   4   7
BRANCH   1  19
ATOM     19  C   UNL     1       8.565  -1.757  22.270  0.00  0.00    +0.270 C 
BRANCH  19  21
ATOM     20  C   UNL     1       8.974  -0.787  24.583  0.00  0.00    +0.292 C 
ATOM     21  N   UNL     1       8.658  -0.708  23.279  0.00  0.00    -0.153 N 
ATOM     22  C   UNL     1       8.490   0.619  22.983  0.00  0.00    +0.356 C 
ATOM     23  O   UNL     1       8.011   1.113  21.974  0.00  0.00    -0.242 OA
ATOM     24  C   UNL     1       9.134   1.358  24.144  0.00  0.00    +0.249 C 
ATOM     25  C   UNL     1       8.440   2.633  24.613  0.00  0.00    +0.069 C 
ATOM     26  C   UNL     1       9.443   3.767  24.367  0.00  0.00    +0.005 C 
ATOM     27  C   UNL     1      10.417   3.220  23.337  0.00  0.00    +0.005 C 
ATOM     28  C   UNL     1      10.560   1.765  23.745  0.00  0.00    +0.069 C 
ATOM     29  N   UNL     1       9.210   0.323  25.203  0.00  0.00    -0.069 NA
BRANCH  20  30
ATOM     30  C   UNL     1       9.063  -2.101  25.327  0.00  0.00    +0.128 C 
BRANCH  30  31
ATOM     31  C   UNL     1       8.370  -2.029  26.683  0.00  0.00    +0.012 C 
BRANCH  31  33
ATOM     32  C   UNL     1       6.055  -1.021  26.748  0.00  0.00    +0.004 C 
ATOM     33  C   UNL     1       6.870  -2.287  26.540  0.00  0.00    -0.003 C 
ENDBRANCH  31  33
ENDBRANCH  30  31
ENDBRANCH  20  30
ENDBRANCH  19  21
ENDBRANCH   1  19
TORSDOF 7
ENDMDL
