MODEL 1
REMARK VINA RESULT:      -7.3      0.000      0.000
REMARK  Name = 
REMARK  27 active torsions:
REMARK  status: ('A' for Active; 'I' for Inactive)
REMARK    1  A    between atoms: C_1  and  O_2
REMARK    2  A    between atoms: O_2  and  C_3
REMARK    3  A    between atoms: N_5  and  C_6
REMARK    4  A    between atoms: C_6  and  C_8
REMARK    5  A    between atoms: C_6  and  C_52
REMARK    6  A    between atoms: N_10  and  C_11
REMARK    7  A    between atoms: C_11  and  C_13
REMARK    8  A    between atoms: C_11  and  C_20
REMARK    9  A    between atoms: C_13  and  C_14
REMARK   10  A    between atoms: C_20  and  O_22
REMARK   11  A    between atoms: C_20  and  C_23
REMARK   12  A    between atoms: C_23  and  N_24
REMARK   13  A    between atoms: N_24  and  C_25
REMARK   14  A    between atoms: N_24  and  N_38
REMARK   15  A    between atoms: C_25  and  C_26
REMARK   16  A    between atoms: C_29  and  C_32
REMARK   17  A    between atoms: C_39  and  C_41
REMARK   18  A    between atoms: C_41  and  N_43
REMARK   19  A    between atoms: C_41  and  C_48
REMARK   20  A    between atoms: C_44  and  O_46
REMARK   21  A    between atoms: O_46  and  C_47
REMARK   22  A    between atoms: C_48  and  C_49
REMARK   23  A    between atoms: C_48  and  C_50
REMARK   24  A    between atoms: C_48  and  C_51
REMARK   25  A    between atoms: C_52  and  C_53
REMARK   26  A    between atoms: C_52  and  C_54
REMARK   27  A    between atoms: C_52  and  C_55
REMARK                            x       y       z     vdW  Elec       q    Type
REMARK                         _______ _______ _______ _____ _____    ______ ____
ROOT
ATOM      1  N   UNL     1       8.833  -2.615  24.521  0.00  0.00    -0.220 NA
ENDROOT
BRANCH   1   2
ATOM      2  N   UNL     1       7.588  -1.897  24.644  0.00  0.00    -0.246 N 
ATOM      3  H   UNL     1       6.840  -2.073  23.973  0.00  0.00    +0.169 HD
ATOM      4  C   UNL     1       7.307  -1.107  25.774  0.00  0.00    +0.248 C 
ATOM      5  O   UNL     1       7.935  -1.162  26.830  0.00  0.00    -0.272 OA
BRANCH   4   6
ATOM      6  C   UNL     1       6.052  -0.200  25.613  0.00  0.00    +0.169 C 
BRANCH   6   7
ATOM      7  N   UNL     1       5.544   0.013  26.961  0.00  0.00    -0.269 N 
ATOM      8  H   UNL     1       6.202   0.018  27.736  0.00  0.00    +0.153 HD
ATOM      9  C   UNL     1       4.252  -0.204  27.295  0.00  0.00    +0.401 C 
ATOM     10  O   UNL     1       3.373  -0.528  26.511  0.00  0.00    -0.226 OA
BRANCH   9  11
ATOM     11  O   UNL     1       4.107  -0.026  28.630  0.00  0.00    -0.454 OA
ATOM     12  C   UNL     1       3.882  -1.232  29.360  0.00  0.00    +0.282 C 
ENDBRANCH   9  11
ENDBRANCH   6   7
BRANCH   6  13
ATOM     13  C   UNL     1       6.261   1.160  24.854  0.00  0.00    -0.011 C 
ATOM     14  C   UNL     1       5.036   2.091  24.886  0.00  0.00    +0.013 C 
ATOM     15  C   UNL     1       6.598   0.874  23.370  0.00  0.00    +0.013 C 
ATOM     16  C   UNL     1       7.455   1.941  25.435  0.00  0.00    +0.013 C 
ENDBRANCH   6  13
ENDBRANCH   4   6
ENDBRANCH   1   2
BRANCH   1  17
ATOM     17  C   UNL     1       8.679  -4.102  24.565  0.00  0.00    +0.139 C 
BRANCH  17  18
ATOM     18  C   UNL     1       8.578  -4.677  26.015  0.00  0.00    +0.151 C 
BRANCH  18  19
ATOM     19  O   UNL     1       9.104  -6.012  26.001  0.00  0.00    -0.389 OA
ATOM     20  H   UNL     1       9.498  -6.169  25.116  0.00  0.00    +0.210 HD
ENDBRANCH  18  19
BRANCH  18  21
ATOM     21  C   UNL     1       7.157  -4.799  26.635  0.00  0.00    +0.107 C 
BRANCH  21  23
ATOM     22  C   UNL     1       5.049  -4.276  25.329  0.00  0.00    +0.234 C 
ATOM     23  N   UNL     1       6.165  -5.065  25.548  0.00  0.00    -0.308 N 
ATOM     24  H   UNL     1       6.502  -5.598  24.755  0.00  0.00    +0.149 HD
ATOM     25  O   UNL     1       4.663  -3.437  26.146  0.00  0.00    -0.274 OA
BRANCH  22  26
ATOM     26  C   UNL     1       4.199  -4.580  24.042  0.00  0.00    +0.167 C 
BRANCH  26  28
ATOM     27  C   UNL     1       5.495  -3.816  22.075  0.00  0.00    +0.401 C 
ATOM     28  N   UNL     1       4.993  -4.841  22.830  0.00  0.00    -0.269 N 
ATOM     29  H   UNL     1       4.659  -5.577  22.224  0.00  0.00    +0.153 HD
ATOM     30  O   UNL     1       5.714  -2.689  22.478  0.00  0.00    -0.226 OA
BRANCH  27  32
ATOM     31  C   UNL     1       6.100  -5.640  20.741  0.00  0.00    +0.282 C 
ATOM     32  O   UNL     1       5.735  -4.257  20.816  0.00  0.00    -0.454 OA
ENDBRANCH  27  32
ENDBRANCH  26  28
BRANCH  26  33
ATOM     33  C   UNL     1       3.146  -5.724  24.287  0.00  0.00    -0.011 C 
ATOM     34  C   UNL     1       3.805  -7.103  24.475  0.00  0.00    +0.013 C 
ATOM     35  C   UNL     1       2.173  -5.861  23.092  0.00  0.00    +0.013 C 
ATOM     36  C   UNL     1       2.292  -5.390  25.529  0.00  0.00    +0.013 C 
ENDBRANCH  26  33
ENDBRANCH  22  26
ENDBRANCH  21  23
BRANCH  21  37
ATOM     37  C   UNL     1       7.009  -5.818  27.788  0.00  0.00    +0.060 C 
BRANCH  37  38
ATOM     38  C   UNL     1       5.659  -5.872  28.467  0.00  0.00    -0.046 A 
ATOM     39  C   UNL     1       4.786  -6.940  28.217  0.00  0.00    +0.004 A 
ATOM     40  C   UNL     1       3.538  -7.006  28.837  0.00  0.00    +0.000 A 
ATOM     41  C   UNL     1       3.138  -5.995  29.704  0.00  0.00    +0.000 A 
ATOM     42  C   UNL     1       3.984  -4.918  29.948  0.00  0.00    +0.000 A 
ATOM     43  C   UNL     1       5.234  -4.854  29.331  0.00  0.00    +0.004 A 
ENDBRANCH  37  38
ENDBRANCH  21  37
ENDBRANCH  18  21
ENDBRANCH  17  18
ENDBRANCH   1  17
BRANCH   1  44
ATOM     44  C   UNL     1       9.630  -2.169  23.345  0.00  0.00    +0.140 C 
BRANCH  44  45
ATOM     45  C   UNL     1      10.096  -0.723  23.311  0.00  0.00    -0.032 A 
ATOM     46  C   UNL     1      10.668  -0.122  24.436  0.00  0.00    +0.005 A 
ATOM     47  C   UNL     1      10.902   1.259  24.471  0.00  0.00    +0.010 A 
ATOM     48  C   UNL     1      10.549   2.089  23.394  0.00  0.00    +0.000 A 
ATOM     49  C   UNL     1      10.055   1.463  22.246  0.00  0.00    +0.010 A 
ATOM     50  C   UNL     1       9.854   0.086  22.203  0.00  0.00    +0.005 A 
BRANCH  48  51
ATOM     51  C   UNL     1      10.640   3.559  23.441  0.00  0.00    +0.071 A 
ATOM     52  N   UNL     1       9.471   4.213  23.682  0.00  0.00    -0.255 NA
ATOM     53  C   UNL     1       9.507   5.555  23.806  0.00  0.00    +0.111 A 
ATOM     54  C   UNL     1      10.664   6.302  23.702  0.00  0.00    +0.020 A 
ATOM     55  C   UNL     1      11.856   5.632  23.460  0.00  0.00    +0.004 A 
ATOM     56  C   UNL     1      11.847   4.245  23.330  0.00  0.00    +0.028 A 
ENDBRANCH  48  51
ENDBRANCH  44  45
ENDBRANCH   1  44
TORSDOF 19
ENDMDL
MODEL 2
REMARK VINA RESULT:      -6.8      1.220      2.228
REMARK  Name = 
REMARK  27 active torsions:
REMARK  status: ('A' for Active; 'I' for Inactive)
REMARK    1  A    between atoms: C_1  and  O_2
REMARK    2  A    between atoms: O_2  and  C_3
REMARK    3  A    between atoms: N_5  and  C_6
REMARK    4  A    between atoms: C_6  and  C_8
REMARK    5  A    between atoms: C_6  and  C_52
REMARK    6  A    between atoms: N_10  and  C_11
REMARK    7  A    between atoms: C_11  and  C_13
REMARK    8  A    between atoms: C_11  and  C_20
REMARK    9  A    between atoms: C_13  and  C_14
REMARK   10  A    between atoms: C_20  and  O_22
REMARK   11  A    between atoms: C_20  and  C_23
REMARK   12  A    between atoms: C_23  and  N_24
REMARK   13  A    between atoms: N_24  and  C_25
REMARK   14  A    between atoms: N_24  and  N_38
REMARK   15  A    between atoms: C_25  and  C_26
REMARK   16  A    between atoms: C_29  and  C_32
REMARK   17  A    between atoms: C_39  and  C_41
REMARK   18  A    between atoms: C_41  and  N_43
REMARK   19  A    between atoms: C_41  and  C_48
REMARK   20  A    between atoms: C_44  and  O_46
REMARK   21  A    between atoms: O_46  and  C_47
REMARK   22  A    between atoms: C_48  and  C_49
REMARK   23  A    between atoms: C_48  and  C_50
REMARK   24  A    between atoms: C_48  and  C_51
REMARK   25  A    between atoms: C_52  and  C_53
REMARK   26  A    between atoms: C_52  and  C_54
REMARK   27  A    between atoms: C_52  and  C_55
REMARK                            x       y       z     vdW  Elec       q    Type
REMARK                         _______ _______ _______ _____ _____    ______ ____
ROOT
ATOM      1  N   UNL     1       9.199  -2.553  24.452  0.00  0.00    -0.220 NA
ENDROOT
BRANCH   1   2
ATOM      2  N   UNL     1       7.884  -1.972  24.568  0.00  0.00    -0.246 N 
ATOM      3  H   UNL     1       7.170  -2.204  23.878  0.00  0.00    +0.169 HD
ATOM      4  C   UNL     1       7.502  -1.248  25.714  0.00  0.00    +0.248 C 
ATOM      5  O   UNL     1       8.114  -1.268  26.780  0.00  0.00    -0.272 OA
BRANCH   4   6
ATOM      6  C   UNL     1       6.163  -0.471  25.551  0.00  0.00    +0.169 C 
BRANCH   6   7
ATOM      7  N   UNL     1       5.565  -0.436  26.878  0.00  0.00    -0.269 N 
ATOM      8  H   UNL     1       6.162  -0.251  27.680  0.00  0.00    +0.153 HD
ATOM      9  C   UNL     1       4.381  -1.026  27.159  0.00  0.00    +0.401 C 
ATOM     10  O   UNL     1       3.665  -1.580  26.338  0.00  0.00    -0.226 OA
BRANCH   9  11
ATOM     11  O   UNL     1       4.139  -0.919  28.488  0.00  0.00    -0.454 OA
ATOM     12  C   UNL     1       2.755  -0.881  28.830  0.00  0.00    +0.282 C 
ENDBRANCH   9  11
ENDBRANCH   6   7
BRANCH   6  13
ATOM     13  C   UNL     1       6.257   0.966  24.923  0.00  0.00    -0.011 C 
ATOM     14  C   UNL     1       6.551   0.972  23.412  0.00  0.00    +0.013 C 
ATOM     15  C   UNL     1       7.383   1.762  25.626  0.00  0.00    +0.013 C 
ATOM     16  C   UNL     1       4.953   1.755  25.147  0.00  0.00    +0.013 C 
ENDBRANCH   6  13
ENDBRANCH   4   6
ENDBRANCH   1   2
BRANCH   1  17
ATOM     17  C   UNL     1       9.201  -4.049  24.470  0.00  0.00    +0.139 C 
BRANCH  17  18
ATOM     18  C   UNL     1       8.953  -4.656  25.889  0.00  0.00    +0.151 C 
BRANCH  18  19
ATOM     19  O   UNL     1       9.592  -5.940  25.940  0.00  0.00    -0.389 OA
ATOM     20  H   UNL     1       9.583  -6.241  26.874  0.00  0.00    +0.210 HD
ENDBRANCH  18  19
BRANCH  18  21
ATOM     21  C   UNL     1       7.476  -4.913  26.306  0.00  0.00    +0.107 C 
BRANCH  21  23
ATOM     22  C   UNL     1       5.802  -4.898  24.404  0.00  0.00    +0.234 C 
ATOM     23  N   UNL     1       6.748  -5.557  25.170  0.00  0.00    -0.308 N 
ATOM     24  H   UNL     1       7.206  -6.349  24.735  0.00  0.00    +0.149 HD
ATOM     25  O   UNL     1       5.321  -3.813  24.737  0.00  0.00    -0.274 OA
BRANCH  22  26
ATOM     26  C   UNL     1       5.254  -5.653  23.138  0.00  0.00    +0.167 C 
BRANCH  26  28
ATOM     27  C   UNL     1       2.867  -6.304  23.211  0.00  0.00    +0.401 C 
ATOM     28  N   UNL     1       3.833  -5.408  22.844  0.00  0.00    -0.269 N 
ATOM     29  H   UNL     1       3.621  -5.036  21.930  0.00  0.00    +0.153 HD
ATOM     30  O   UNL     1       2.969  -7.118  24.110  0.00  0.00    -0.226 OA
BRANCH  27  32
ATOM     31  C   UNL     1       1.059  -7.339  22.146  0.00  0.00    +0.282 C 
ATOM     32  O   UNL     1       1.769  -6.129  22.436  0.00  0.00    -0.454 OA
ENDBRANCH  27  32
ENDBRANCH  26  28
BRANCH  26  33
ATOM     33  C   UNL     1       6.148  -5.399  21.867  0.00  0.00    -0.011 C 
ATOM     34  C   UNL     1       6.225  -3.909  21.488  0.00  0.00    +0.013 C 
ATOM     35  C   UNL     1       5.591  -6.139  20.628  0.00  0.00    +0.013 C 
ATOM     36  C   UNL     1       7.572  -5.940  22.113  0.00  0.00    +0.013 C 
ENDBRANCH  26  33
ENDBRANCH  22  26
ENDBRANCH  21  23
BRANCH  21  37
ATOM     37  C   UNL     1       7.273  -5.702  27.619  0.00  0.00    +0.060 C 
BRANCH  37  38
ATOM     38  C   UNL     1       5.873  -5.708  28.189  0.00  0.00    -0.046 A 
ATOM     39  C   UNL     1       5.188  -4.501  28.390  0.00  0.00    +0.004 A 
ATOM     40  C   UNL     1       3.895  -4.489  28.912  0.00  0.00    +0.000 A 
ATOM     41  C   UNL     1       3.272  -5.685  29.257  0.00  0.00    +0.000 A 
ATOM     42  C   UNL     1       3.946  -6.890  29.082  0.00  0.00    +0.000 A 
ATOM     43  C   UNL     1       5.237  -6.901  28.556  0.00  0.00    +0.004 A 
ENDBRANCH  37  38
ENDBRANCH  21  37
ENDBRANCH  18  21
ENDBRANCH  17  18
ENDBRANCH   1  17
BRANCH   1  44
ATOM     44  C   UNL     1       9.959  -2.007  23.294  0.00  0.00    +0.140 C 
BRANCH  44  45
ATOM     45  C   UNL     1      10.269  -0.519  23.288  0.00  0.00    -0.032 A 
ATOM     46  C   UNL     1      10.771   0.119  24.427  0.00  0.00    +0.005 A 
ATOM     47  C   UNL     1      10.858   1.516  24.487  0.00  0.00    +0.010 A 
ATOM     48  C   UNL     1      10.421   2.324  23.424  0.00  0.00    +0.000 A 
ATOM     49  C   UNL     1       9.999   1.670  22.262  0.00  0.00    +0.010 A 
ATOM     50  C   UNL     1       9.945   0.281  22.194  0.00  0.00    +0.005 A 
BRANCH  48  51
ATOM     51  C   UNL     1      10.355   3.794  23.498  0.00  0.00    +0.071 A 
ATOM     52  N   UNL     1       9.122   4.316  23.736  0.00  0.00    -0.255 NA
ATOM     53  C   UNL     1       9.014   5.652  23.884  0.00  0.00    +0.111 A 
ATOM     54  C   UNL     1      10.087   6.519  23.807  0.00  0.00    +0.020 A 
ATOM     55  C   UNL     1      11.345   5.983  23.567  0.00  0.00    +0.004 A 
ATOM     56  C   UNL     1      11.484   4.606  23.413  0.00  0.00    +0.028 A 
ENDBRANCH  48  51
ENDBRANCH  44  45
ENDBRANCH   1  44
TORSDOF 19
ENDMDL
MODEL 3
REMARK VINA RESULT:      -6.7      2.774      7.032
REMARK  Name = 
REMARK  27 active torsions:
REMARK  status: ('A' for Active; 'I' for Inactive)
REMARK    1  A    between atoms: C_1  and  O_2
REMARK    2  A    between atoms: O_2  and  C_3
REMARK    3  A    between atoms: N_5  and  C_6
REMARK    4  A    between atoms: C_6  and  C_8
REMARK    5  A    between atoms: C_6  and  C_52
REMARK    6  A    between atoms: N_10  and  C_11
REMARK    7  A    between atoms: C_11  and  C_13
REMARK    8  A    between atoms: C_11  and  C_20
REMARK    9  A    between atoms: C_13  and  C_14
REMARK   10  A    between atoms: C_20  and  O_22
REMARK   11  A    between atoms: C_20  and  C_23
REMARK   12  A    between atoms: C_23  and  N_24
REMARK   13  A    between atoms: N_24  and  C_25
REMARK   14  A    between atoms: N_24  and  N_38
REMARK   15  A    between atoms: C_25  and  C_26
REMARK   16  A    between atoms: C_29  and  C_32
REMARK   17  A    between atoms: C_39  and  C_41
REMARK   18  A    between atoms: C_41  and  N_43
REMARK   19  A    between atoms: C_41  and  C_48
REMARK   20  A    between atoms: C_44  and  O_46
REMARK   21  A    between atoms: O_46  and  C_47
REMARK   22  A    between atoms: C_48  and  C_49
REMARK   23  A    between atoms: C_48  and  C_50
REMARK   24  A    between atoms: C_48  and  C_51
REMARK   25  A    between atoms: C_52  and  C_53
REMARK   26  A    between atoms: C_52  and  C_54
REMARK   27  A    between atoms: C_52  and  C_55
REMARK                            x       y       z     vdW  Elec       q    Type
REMARK                         _______ _______ _______ _____ _____    ______ ____
ROOT
ATOM      1  N   UNL     1       7.557  -1.905  22.468  0.00  0.00    -0.220 NA
ENDROOT
BRANCH   1   2
ATOM      2  N   UNL     1       7.120  -2.864  23.453  0.00  0.00    -0.246 N 
ATOM      3  H   UNL     1       6.898  -2.548  24.397  0.00  0.00    +0.169 HD
ATOM      4  C   UNL     1       6.804  -4.189  23.095  0.00  0.00    +0.248 C 
ATOM      5  O   UNL     1       6.616  -4.567  21.940  0.00  0.00    -0.272 OA
BRANCH   4   6
ATOM      6  C   UNL     1       6.618  -5.143  24.311  0.00  0.00    +0.169 C 
BRANCH   6   7
ATOM      7  N   UNL     1       7.331  -4.516  25.416  0.00  0.00    -0.269 N 
ATOM      8  H   UNL     1       7.021  -3.605  25.743  0.00  0.00    +0.153 HD
ATOM      9  C   UNL     1       8.595  -4.857  25.754  0.00  0.00    +0.401 C 
ATOM     10  O   UNL     1       9.240  -5.754  25.231  0.00  0.00    -0.226 OA
BRANCH   9  11
ATOM     11  O   UNL     1       9.025  -4.034  26.740  0.00  0.00    -0.454 OA
ATOM     12  C   UNL     1       8.576  -2.685  26.614  0.00  0.00    +0.282 C 
ENDBRANCH   9  11
ENDBRANCH   6   7
BRANCH   6  13
ATOM     13  C   UNL     1       5.140  -5.498  24.707  0.00  0.00    -0.011 C 
ATOM     14  C   UNL     1       4.943  -5.785  26.206  0.00  0.00    +0.013 C 
ATOM     15  C   UNL     1       4.684  -6.751  23.921  0.00  0.00    +0.013 C 
ATOM     16  C   UNL     1       4.175  -4.360  24.321  0.00  0.00    +0.013 C 
ENDBRANCH   6  13
ENDBRANCH   4   6
ENDBRANCH   1   2
BRANCH   1  17
ATOM     17  C   UNL     1       6.930  -0.555  22.622  0.00  0.00    +0.139 C 
BRANCH  17  18
ATOM     18  C   UNL     1       6.721  -0.130  24.112  0.00  0.00    +0.151 C 
BRANCH  18  19
ATOM     19  O   UNL     1       5.328  -0.277  24.424  0.00  0.00    -0.389 OA
ATOM     20  H   UNL     1       5.183   0.092  25.321  0.00  0.00    +0.210 HD
ENDBRANCH  18  19
BRANCH  18  21
ATOM     21  C   UNL     1       7.078   1.336  24.491  0.00  0.00    +0.107 C 
BRANCH  21  23
ATOM     22  C   UNL     1       5.890   3.002  22.996  0.00  0.00    +0.234 C 
ATOM     23  N   UNL     1       5.930   2.229  24.143  0.00  0.00    -0.308 N 
ATOM     24  H   UNL     1       5.036   1.990  24.556  0.00  0.00    +0.149 HD
ATOM     25  O   UNL     1       6.885   3.192  22.293  0.00  0.00    -0.274 OA
BRANCH  22  26
ATOM     26  C   UNL     1       4.543   3.750  22.684  0.00  0.00    +0.167 C 
BRANCH  26  28
ATOM     27  C   UNL     1       2.319   3.020  21.878  0.00  0.00    +0.401 C 
ATOM     28  N   UNL     1       3.337   2.912  22.786  0.00  0.00    -0.269 N 
ATOM     29  H   UNL     1       2.955   2.786  23.712  0.00  0.00    +0.153 HD
ATOM     30  O   UNL     1       2.431   3.447  20.745  0.00  0.00    -0.226 OA
BRANCH  27  32
ATOM     31  C   UNL     1       0.634   3.390  23.459  0.00  0.00    +0.282 C 
ATOM     32  O   UNL     1       1.172   2.552  22.428  0.00  0.00    -0.454 OA
ENDBRANCH  27  32
ENDBRANCH  26  28
BRANCH  26  33
ATOM     33  C   UNL     1       4.391   5.069  23.530  0.00  0.00    -0.011 C 
ATOM     34  C   UNL     1       3.728   4.819  24.898  0.00  0.00    +0.013 C 
ATOM     35  C   UNL     1       3.511   6.111  22.800  0.00  0.00    +0.013 C 
ATOM     36  C   UNL     1       5.776   5.716  23.743  0.00  0.00    +0.013 C 
ENDBRANCH  26  33
ENDBRANCH  22  26
ENDBRANCH  21  23
BRANCH  21  37
ATOM     37  C   UNL     1       7.541   1.563  25.948  0.00  0.00    +0.060 C 
BRANCH  37  38
ATOM     38  C   UNL     1       6.921   2.735  26.675  0.00  0.00    -0.046 A 
ATOM     39  C   UNL     1       5.773   2.552  27.458  0.00  0.00    +0.004 A 
ATOM     40  C   UNL     1       5.190   3.622  28.137  0.00  0.00    +0.000 A 
ATOM     41  C   UNL     1       5.738   4.897  28.028  0.00  0.00    +0.000 A 
ATOM     42  C   UNL     1       6.865   5.099  27.238  0.00  0.00    +0.000 A 
ATOM     43  C   UNL     1       7.450   4.027  26.563  0.00  0.00    +0.004 A 
ENDBRANCH  37  38
ENDBRANCH  21  37
ENDBRANCH  18  21
ENDBRANCH  17  18
ENDBRANCH   1  17
BRANCH   1  44
ATOM     44  C   UNL     1       9.041  -1.826  22.374  0.00  0.00    +0.140 C 
BRANCH  44  45
ATOM     45  C   UNL     1       9.695  -0.475  22.612  0.00  0.00    -0.032 A 
ATOM     46  C   UNL     1      10.312  -0.176  23.830  0.00  0.00    +0.005 A 
ATOM     47  C   UNL     1      10.727   1.131  24.123  0.00  0.00    +0.010 A 
ATOM     48  C   UNL     1      10.515   2.186  23.220  0.00  0.00    +0.000 A 
ATOM     49  C   UNL     1       9.972   1.856  21.974  0.00  0.00    +0.010 A 
ATOM     50  C   UNL     1       9.591   0.551  21.675  0.00  0.00    +0.005 A 
BRANCH  48  51
ATOM     51  C   UNL     1      10.798   3.596  23.541  0.00  0.00    +0.071 A 
ATOM     52  N   UNL     1      12.085   3.995  23.352  0.00  0.00    -0.255 NA
ATOM     53  C   UNL     1      12.385   5.293  23.562  0.00  0.00    +0.111 A 
ATOM     54  C   UNL     1      11.459   6.238  23.958  0.00  0.00    +0.020 A 
ATOM     55  C   UNL     1      10.146   5.828  24.147  0.00  0.00    +0.004 A 
ATOM     56  C   UNL     1       9.808   4.494  23.934  0.00  0.00    +0.028 A 
ENDBRANCH  48  51
ENDBRANCH  44  45
ENDBRANCH   1  44
TORSDOF 19
ENDMDL
MODEL 4
REMARK VINA RESULT:      -6.3      2.866      7.102
REMARK  Name = 
REMARK  27 active torsions:
REMARK  status: ('A' for Active; 'I' for Inactive)
REMARK    1  A    between atoms: C_1  and  O_2
REMARK    2  A    between atoms: O_2  and  C_3
REMARK    3  A    between atoms: N_5  and  C_6
REMARK    4  A    between atoms: C_6  and  C_8
REMARK    5  A    between atoms: C_6  and  C_52
REMARK    6  A    between atoms: N_10  and  C_11
REMARK    7  A    between atoms: C_11  and  C_13
REMARK    8  A    between atoms: C_11  and  C_20
REMARK    9  A    between atoms: C_13  and  C_14
REMARK   10  A    between atoms: C_20  and  O_22
REMARK   11  A    between atoms: C_20  and  C_23
REMARK   12  A    between atoms: C_23  and  N_24
REMARK   13  A    between atoms: N_24  and  C_25
REMARK   14  A    between atoms: N_24  and  N_38
REMARK   15  A    between atoms: C_25  and  C_26
REMARK   16  A    between atoms: C_29  and  C_32
REMARK   17  A    between atoms: C_39  and  C_41
REMARK   18  A    between atoms: C_41  and  N_43
REMARK   19  A    between atoms: C_41  and  C_48
REMARK   20  A    between atoms: C_44  and  O_46
REMARK   21  A    between atoms: O_46  and  C_47
REMARK   22  A    between atoms: C_48  and  C_49
REMARK   23  A    between atoms: C_48  and  C_50
REMARK   24  A    between atoms: C_48  and  C_51
REMARK   25  A    between atoms: C_52  and  C_53
REMARK   26  A    between atoms: C_52  and  C_54
REMARK   27  A    between atoms: C_52  and  C_55
REMARK                            x       y       z     vdW  Elec       q    Type
REMARK                         _______ _______ _______ _____ _____    ______ ____
ROOT
ATOM      1  N   UNL     1       7.577  -1.889  22.695  0.00  0.00    -0.220 NA
ENDROOT
BRANCH   1   2
ATOM      2  N   UNL     1       7.352  -2.665  23.890  0.00  0.00    -0.246 N 
ATOM      3  H   UNL     1       7.863  -2.434  24.742  0.00  0.00    +0.169 HD
ATOM      4  C   UNL     1       6.307  -3.606  23.966  0.00  0.00    +0.248 C 
ATOM      5  O   UNL     1       5.369  -3.663  23.173  0.00  0.00    -0.272 OA
BRANCH   4   6
ATOM      6  C   UNL     1       6.384  -4.534  25.214  0.00  0.00    +0.169 C 
BRANCH   6   7
ATOM      7  N   UNL     1       5.837  -5.814  24.787  0.00  0.00    -0.269 N 
ATOM      8  H   UNL     1       6.160  -6.216  23.910  0.00  0.00    +0.153 HD
ATOM      9  C   UNL     1       4.660  -6.292  25.247  0.00  0.00    +0.401 C 
ATOM     10  O   UNL     1       3.973  -5.753  26.102  0.00  0.00    -0.226 OA
BRANCH   9  11
ATOM     11  O   UNL     1       4.365  -7.441  24.592  0.00  0.00    -0.454 OA
ATOM     12  C   UNL     1       2.967  -7.708  24.479  0.00  0.00    +0.282 C 
ENDBRANCH   9  11
ENDBRANCH   6   7
BRANCH   6  13
ATOM     13  C   UNL     1       7.799  -4.703  25.876  0.00  0.00    -0.011 C 
ATOM     14  C   UNL     1       8.863  -5.301  24.938  0.00  0.00    +0.013 C 
ATOM     15  C   UNL     1       7.681  -5.632  27.109  0.00  0.00    +0.013 C 
ATOM     16  C   UNL     1       8.336  -3.354  26.390  0.00  0.00    +0.013 C 
ENDBRANCH   6  13
ENDBRANCH   4   6
ENDBRANCH   1   2
BRANCH   1  17
ATOM     17  C   UNL     1       6.885  -0.562  22.699  0.00  0.00    +0.139 C 
BRANCH  17  18
ATOM     18  C   UNL     1       6.706   0.045  24.129  0.00  0.00    +0.151 C 
BRANCH  18  19
ATOM     19  O   UNL     1       5.318  -0.047  24.479  0.00  0.00    -0.389 OA
ATOM     20  H   UNL     1       5.264  -0.352  25.410  0.00  0.00    +0.210 HD
ENDBRANCH  18  19
BRANCH  18  21
ATOM     21  C   UNL     1       7.083   1.542  24.318  0.00  0.00    +0.107 C 
BRANCH  21  23
ATOM     22  C   UNL     1       5.825   3.129  22.796  0.00  0.00    +0.234 C 
ATOM     23  N   UNL     1       5.907   2.395  23.966  0.00  0.00    -0.308 N 
ATOM     24  H   UNL     1       5.028   2.149  24.406  0.00  0.00    +0.149 HD
ATOM     25  O   UNL     1       6.800   3.320  22.066  0.00  0.00    -0.274 OA
BRANCH  22  26
ATOM     26  C   UNL     1       4.454   3.835  22.488  0.00  0.00    +0.167 C 
BRANCH  26  28
ATOM     27  C   UNL     1       2.233   2.991  21.790  0.00  0.00    +0.401 C 
ATOM     28  N   UNL     1       3.268   2.985  22.685  0.00  0.00    -0.269 N 
ATOM     29  H   UNL     1       2.903   2.934  23.625  0.00  0.00    +0.153 HD
ATOM     30  O   UNL     1       2.318   3.318  20.621  0.00  0.00    -0.226 OA
BRANCH  27  32
ATOM     31  C   UNL     1       0.712   3.331  23.534  0.00  0.00    +0.282 C 
ATOM     32  O   UNL     1       1.106   2.551  22.399  0.00  0.00    -0.454 OA
ENDBRANCH  27  32
ENDBRANCH  26  28
BRANCH  26  33
ATOM     33  C   UNL     1       4.307   5.200  23.258  0.00  0.00    -0.011 C 
ATOM     34  C   UNL     1       3.650   5.030  24.641  0.00  0.00    +0.013 C 
ATOM     35  C   UNL     1       3.426   6.200  22.473  0.00  0.00    +0.013 C 
ATOM     36  C   UNL     1       5.694   5.856  23.427  0.00  0.00    +0.013 C 
ENDBRANCH  26  33
ENDBRANCH  22  26
ENDBRANCH  21  23
BRANCH  21  37
ATOM     37  C   UNL     1       7.656   1.923  25.702  0.00  0.00    +0.060 C 
BRANCH  37  38
ATOM     38  C   UNL     1       6.939   3.029  26.444  0.00  0.00    -0.046 A 
ATOM     39  C   UNL     1       5.802   2.740  27.212  0.00  0.00    +0.004 A 
ATOM     40  C   UNL     1       5.131   3.748  27.905  0.00  0.00    +0.000 A 
ATOM     41  C   UNL     1       5.578   5.064  27.825  0.00  0.00    +0.000 A 
ATOM     42  C   UNL     1       6.693   5.369  27.051  0.00  0.00    +0.000 A 
ATOM     43  C   UNL     1       7.366   4.360  26.362  0.00  0.00    +0.004 A 
ENDBRANCH  37  38
ENDBRANCH  21  37
ENDBRANCH  18  21
ENDBRANCH  17  18
ENDBRANCH   1  17
BRANCH   1  44
ATOM     44  C   UNL     1       9.023  -1.764  22.364  0.00  0.00    +0.140 C 
BRANCH  44  45
ATOM     45  C   UNL     1       9.689  -0.417  22.592  0.00  0.00    -0.032 A 
ATOM     46  C   UNL     1      10.345  -0.130  23.793  0.00  0.00    +0.005 A 
ATOM     47  C   UNL     1      10.773   1.173  24.083  0.00  0.00    +0.010 A 
ATOM     48  C   UNL     1      10.536   2.236  23.195  0.00  0.00    +0.000 A 
ATOM     49  C   UNL     1       9.954   1.918  21.964  0.00  0.00    +0.010 A 
ATOM     50  C   UNL     1       9.559   0.616  21.667  0.00  0.00    +0.005 A 
BRANCH  48  51
ATOM     51  C   UNL     1      10.834   3.642  23.518  0.00  0.00    +0.071 A 
ATOM     52  N   UNL     1      12.130   4.022  23.357  0.00  0.00    -0.255 NA
ATOM     53  C   UNL     1      12.446   5.315  23.570  0.00  0.00    +0.111 A 
ATOM     54  C   UNL     1      11.526   6.276  23.942  0.00  0.00    +0.020 A 
ATOM     55  C   UNL     1      10.203   5.887  24.102  0.00  0.00    +0.004 A 
ATOM     56  C   UNL     1       9.850   4.557  23.886  0.00  0.00    +0.028 A 
ENDBRANCH  48  51
ENDBRANCH  44  45
ENDBRANCH   1  44
TORSDOF 19
ENDMDL
MODEL 5
REMARK VINA RESULT:      -6.2      1.969      4.065
REMARK  Name = 
REMARK  27 active torsions:
REMARK  status: ('A' for Active; 'I' for Inactive)
REMARK    1  A    between atoms: C_1  and  O_2
REMARK    2  A    between atoms: O_2  and  C_3
REMARK    3  A    between atoms: N_5  and  C_6
REMARK    4  A    between atoms: C_6  and  C_8
REMARK    5  A    between atoms: C_6  and  C_52
REMARK    6  A    between atoms: N_10  and  C_11
REMARK    7  A    between atoms: C_11  and  C_13
REMARK    8  A    between atoms: C_11  and  C_20
REMARK    9  A    between atoms: C_13  and  C_14
REMARK   10  A    between atoms: C_20  and  O_22
REMARK   11  A    between atoms: C_20  and  C_23
REMARK   12  A    between atoms: C_23  and  N_24
REMARK   13  A    between atoms: N_24  and  C_25
REMARK   14  A    between atoms: N_24  and  N_38
REMARK   15  A    between atoms: C_25  and  C_26
REMARK   16  A    between atoms: C_29  and  C_32
REMARK   17  A    between atoms: C_39  and  C_41
REMARK   18  A    between atoms: C_41  and  N_43
REMARK   19  A    between atoms: C_41  and  C_48
REMARK   20  A    between atoms: C_44  and  O_46
REMARK   21  A    between atoms: O_46  and  C_47
REMARK   22  A    between atoms: C_48  and  C_49
REMARK   23  A    between atoms: C_48  and  C_50
REMARK   24  A    between atoms: C_48  and  C_51
REMARK   25  A    between atoms: C_52  and  C_53
REMARK   26  A    between atoms: C_52  and  C_54
REMARK   27  A    between atoms: C_52  and  C_55
REMARK                            x       y       z     vdW  Elec       q    Type
REMARK                         _______ _______ _______ _____ _____    ______ ____
ROOT
ATOM      1  N   UNL     1       8.690  -2.453  26.055  0.00  0.00    -0.220 NA
ENDROOT
BRANCH   1   2
ATOM      2  N   UNL     1       7.316  -2.050  26.230  0.00  0.00    -0.246 N 
ATOM      3  H   UNL     1       6.568  -2.702  25.991  0.00  0.00    +0.169 HD
ATOM      4  C   UNL     1       6.981  -0.858  26.901  0.00  0.00    +0.248 C 
ATOM      5  O   UNL     1       7.762  -0.217  27.602  0.00  0.00    -0.272 OA
BRANCH   4   6
ATOM      6  C   UNL     1       5.485  -0.452  26.755  0.00  0.00    +0.169 C 
BRANCH   6   7
ATOM      7  N   UNL     1       5.382   0.215  25.465  0.00  0.00    -0.269 N 
ATOM      8  H   UNL     1       5.978  -0.099  24.703  0.00  0.00    +0.153 HD
ATOM      9  C   UNL     1       4.868   1.458  25.327  0.00  0.00    +0.401 C 
ATOM     10  O   UNL     1       4.380   2.117  26.233  0.00  0.00    -0.226 OA
BRANCH   9  11
ATOM     11  O   UNL     1       5.004   1.850  24.037  0.00  0.00    -0.454 OA
ATOM     12  C   UNL     1       4.449   3.134  23.755  0.00  0.00    +0.282 C 
ENDBRANCH   9  11
ENDBRANCH   6   7
BRANCH   6  13
ATOM     13  C   UNL     1       4.427  -1.605  26.894  0.00  0.00    -0.011 C 
ATOM     14  C   UNL     1       4.781  -2.655  27.963  0.00  0.00    +0.013 C 
ATOM     15  C   UNL     1       4.287  -2.340  25.539  0.00  0.00    +0.013 C 
ATOM     16  C   UNL     1       3.036  -1.041  27.238  0.00  0.00    +0.013 C 
ENDBRANCH   6  13
ENDBRANCH   4   6
ENDBRANCH   1   2
BRANCH   1  17
ATOM     17  C   UNL     1       8.970  -3.851  26.507  0.00  0.00    +0.139 C 
BRANCH  17  18
ATOM     18  C   UNL     1       7.686  -4.732  26.644  0.00  0.00    +0.151 C 
BRANCH  18  19
ATOM     19  O   UNL     1       7.878  -5.628  27.749  0.00  0.00    -0.389 OA
ATOM     20  H   UNL     1       8.559  -6.283  27.487  0.00  0.00    +0.210 HD
ENDBRANCH  18  19
BRANCH  18  21
ATOM     21  C   UNL     1       7.312  -5.639  25.437  0.00  0.00    +0.107 C 
BRANCH  21  23
ATOM     22  C   UNL     1       4.899  -6.221  25.943  0.00  0.00    +0.234 C 
ATOM     23  N   UNL     1       5.841  -5.546  25.187  0.00  0.00    -0.308 N 
ATOM     24  H   UNL     1       5.520  -4.715  24.706  0.00  0.00    +0.149 HD
ATOM     25  O   UNL     1       5.203  -7.123  26.727  0.00  0.00    -0.274 OA
BRANCH  22  26
ATOM     26  C   UNL     1       3.387  -5.885  25.670  0.00  0.00    +0.167 C 
BRANCH  26  28
ATOM     27  C   UNL     1       2.690  -6.188  23.314  0.00  0.00    +0.401 C 
ATOM     28  N   UNL     1       2.768  -6.672  24.591  0.00  0.00    -0.269 N 
ATOM     29  H   UNL     1       1.915  -7.158  24.823  0.00  0.00    +0.153 HD
ATOM     30  O   UNL     1       3.419  -5.337  22.839  0.00  0.00    -0.226 OA
BRANCH  27  32
ATOM     31  C   UNL     1       1.404  -8.135  23.143  0.00  0.00    +0.282 C 
ATOM     32  O   UNL     1       1.691  -6.820  22.651  0.00  0.00    -0.454 OA
ENDBRANCH  27  32
ENDBRANCH  26  28
BRANCH  26  33
ATOM     33  C   UNL     1       2.523  -5.945  26.984  0.00  0.00    -0.011 C 
ATOM     34  C   UNL     1       1.713  -7.250  27.098  0.00  0.00    +0.013 C 
ATOM     35  C   UNL     1       1.498  -4.787  27.039  0.00  0.00    +0.013 C 
ATOM     36  C   UNL     1       3.437  -5.799  28.219  0.00  0.00    +0.013 C 
ENDBRANCH  26  33
ENDBRANCH  22  26
ENDBRANCH  21  23
BRANCH  21  37
ATOM     37  C   UNL     1       8.116  -5.399  24.139  0.00  0.00    +0.060 C 
BRANCH  37  38
ATOM     38  C   UNL     1       7.314  -5.029  22.912  0.00  0.00    -0.046 A 
ATOM     39  C   UNL     1       6.817  -3.727  22.760  0.00  0.00    +0.004 A 
ATOM     40  C   UNL     1       6.078  -3.369  21.633  0.00  0.00    +0.000 A 
ATOM     41  C   UNL     1       5.810  -4.314  20.647  0.00  0.00    +0.000 A 
ATOM     42  C   UNL     1       6.280  -5.616  20.792  0.00  0.00    +0.000 A 
ATOM     43  C   UNL     1       7.022  -5.972  21.918  0.00  0.00    +0.004 A 
ENDBRANCH  37  38
ENDBRANCH  21  37
ENDBRANCH  18  21
ENDBRANCH  17  18
ENDBRANCH   1  17
BRANCH   1  44
ATOM     44  C   UNL     1       9.182  -2.202  24.673  0.00  0.00    +0.140 C 
BRANCH  44  45
ATOM     45  C   UNL     1       9.214  -0.764  24.181  0.00  0.00    -0.032 A 
ATOM     46  C   UNL     1      10.070   0.178  24.760  0.00  0.00    +0.005 A 
ATOM     47  C   UNL     1       9.950   1.540  24.453  0.00  0.00    +0.010 A 
ATOM     48  C   UNL     1       8.955   2.009  23.579  0.00  0.00    +0.000 A 
ATOM     49  C   UNL     1       8.161   1.047  22.946  0.00  0.00    +0.010 A 
ATOM     50  C   UNL     1       8.305  -0.308  23.229  0.00  0.00    +0.005 A 
BRANCH  48  51
ATOM     51  C   UNL     1       8.696   3.440  23.340  0.00  0.00    +0.071 A 
ATOM     52  N   UNL     1       7.708   3.717  22.446  0.00  0.00    -0.255 NA
ATOM     53  C   UNL     1       7.380   5.009  22.242  0.00  0.00    +0.111 A 
ATOM     54  C   UNL     1       7.990   6.066  22.890  0.00  0.00    +0.020 A 
ATOM     55  C   UNL     1       8.996   5.779  23.804  0.00  0.00    +0.004 A 
ATOM     56  C   UNL     1       9.352   4.453  24.035  0.00  0.00    +0.028 A 
ENDBRANCH  48  51
ENDBRANCH  44  45
ENDBRANCH   1  44
TORSDOF 19
ENDMDL
MODEL 6
REMARK VINA RESULT:      -6.2      2.447      9.131
REMARK  Name = 
REMARK  27 active torsions:
REMARK  status: ('A' for Active; 'I' for Inactive)
REMARK    1  A    between atoms: C_1  and  O_2
REMARK    2  A    between atoms: O_2  and  C_3
REMARK    3  A    between atoms: N_5  and  C_6
REMARK    4  A    between atoms: C_6  and  C_8
REMARK    5  A    between atoms: C_6  and  C_52
REMARK    6  A    between atoms: N_10  and  C_11
REMARK    7  A    between atoms: C_11  and  C_13
REMARK    8  A    between atoms: C_11  and  C_20
REMARK    9  A    between atoms: C_13  and  C_14
REMARK   10  A    between atoms: C_20  and  O_22
REMARK   11  A    between atoms: C_20  and  C_23
REMARK   12  A    between atoms: C_23  and  N_24
REMARK   13  A    between atoms: N_24  and  C_25
REMARK   14  A    between atoms: N_24  and  N_38
REMARK   15  A    between atoms: C_25  and  C_26
REMARK   16  A    between atoms: C_29  and  C_32
REMARK   17  A    between atoms: C_39  and  C_41
REMARK   18  A    between atoms: C_41  and  N_43
REMARK   19  A    between atoms: C_41  and  C_48
REMARK   20  A    between atoms: C_44  and  O_46
REMARK   21  A    between atoms: O_46  and  C_47
REMARK   22  A    between atoms: C_48  and  C_49
REMARK   23  A    between atoms: C_48  and  C_50
REMARK   24  A    between atoms: C_48  and  C_51
REMARK   25  A    between atoms: C_52  and  C_53
REMARK   26  A    between atoms: C_52  and  C_54
REMARK   27  A    between atoms: C_52  and  C_55
REMARK                            x       y       z     vdW  Elec       q    Type
REMARK                         _______ _______ _______ _____ _____    ______ ____
ROOT
ATOM      1  N   UNL     1       9.214  -1.157  24.429  0.00  0.00    -0.220 NA
ENDROOT
BRANCH   1   2
ATOM      2  N   UNL     1       8.397  -1.173  25.618  0.00  0.00    -0.246 N 
ATOM      3  H   UNL     1       8.815  -1.441  26.509  0.00  0.00    +0.169 HD
ATOM      4  C   UNL     1       7.092  -0.645  25.618  0.00  0.00    +0.248 C 
ATOM      5  O   UNL     1       6.642   0.085  24.737  0.00  0.00    -0.272 OA
BRANCH   4   6
ATOM      6  C   UNL     1       6.271  -0.992  26.894  0.00  0.00    +0.169 C 
BRANCH   6   7
ATOM      7  N   UNL     1       5.871   0.286  27.464  0.00  0.00    -0.269 N 
ATOM      8  H   UNL     1       5.143   0.823  26.999  0.00  0.00    +0.153 HD
ATOM      9  C   UNL     1       6.662   0.987  28.307  0.00  0.00    +0.401 C 
ATOM     10  O   UNL     1       7.743   0.606  28.730  0.00  0.00    -0.226 OA
BRANCH   9  11
ATOM     11  O   UNL     1       6.071   2.175  28.581  0.00  0.00    -0.454 OA
ATOM     12  C   UNL     1       6.832   3.314  28.181  0.00  0.00    +0.282 C 
ENDBRANCH   9  11
ENDBRANCH   6   7
BRANCH   6  13
ATOM     13  C   UNL     1       5.039  -1.948  26.699  0.00  0.00    -0.011 C 
ATOM     14  C   UNL     1       4.716  -2.260  25.226  0.00  0.00    +0.013 C 
ATOM     15  C   UNL     1       3.783  -1.303  27.332  0.00  0.00    +0.013 C 
ATOM     16  C   UNL     1       5.259  -3.290  27.422  0.00  0.00    +0.013 C 
ENDBRANCH   6  13
ENDBRANCH   4   6
ENDBRANCH   1   2
BRANCH   1  17
ATOM     17  C   UNL     1      10.429  -0.292  24.544  0.00  0.00    +0.139 C 
BRANCH  17  18
ATOM     18  C   UNL     1      10.105   1.236  24.599  0.00  0.00    +0.151 C 
BRANCH  18  19
ATOM     19  O   UNL     1       9.112   1.443  25.614  0.00  0.00    -0.389 OA
ATOM     20  H   UNL     1       9.425   2.168  26.195  0.00  0.00    +0.210 HD
ENDBRANCH  18  19
BRANCH  18  21
ATOM     21  C   UNL     1       9.523   1.887  23.312  0.00  0.00    +0.107 C 
BRANCH  21  23
ATOM     22  C   UNL     1       7.181   2.695  22.779  0.00  0.00    +0.234 C 
ATOM     23  N   UNL     1       8.253   2.599  23.650  0.00  0.00    -0.308 N 
ATOM     24  H   UNL     1       8.041   2.693  24.636  0.00  0.00    +0.149 HD
ATOM     25  O   UNL     1       7.273   2.404  21.585  0.00  0.00    -0.274 OA
BRANCH  22  26
ATOM     26  C   UNL     1       5.854   3.321  23.344  0.00  0.00    +0.167 C 
BRANCH  26  28
ATOM     27  C   UNL     1       4.086   2.596  24.919  0.00  0.00    +0.401 C 
ATOM     28  N   UNL     1       5.414   2.767  24.635  0.00  0.00    -0.269 N 
ATOM     29  H   UNL     1       5.896   3.103  25.456  0.00  0.00    +0.153 HD
ATOM     30  O   UNL     1       3.202   2.472  24.092  0.00  0.00    -0.226 OA
BRANCH  27  32
ATOM     31  C   UNL     1       3.382   3.769  26.816  0.00  0.00    +0.282 C 
ATOM     32  O   UNL     1       3.912   2.559  26.262  0.00  0.00    -0.454 OA
ENDBRANCH  27  32
ENDBRANCH  26  28
BRANCH  26  33
ATOM     33  C   UNL     1       5.919   4.893  23.394  0.00  0.00    -0.011 C 
ATOM     34  C   UNL     1       6.905   5.477  22.365  0.00  0.00    +0.013 C 
ATOM     35  C   UNL     1       6.384   5.396  24.781  0.00  0.00    +0.013 C 
ATOM     36  C   UNL     1       4.514   5.483  23.149  0.00  0.00    +0.013 C 
ENDBRANCH  26  33
ENDBRANCH  22  26
ENDBRANCH  21  23
BRANCH  21  37
ATOM     37  C   UNL     1      10.486   2.805  22.525  0.00  0.00    +0.060 C 
BRANCH  37  38
ATOM     38  C   UNL     1      10.926   4.072  23.224  0.00  0.00    -0.046 A 
ATOM     39  C   UNL     1       9.992   4.857  23.914  0.00  0.00    +0.004 A 
ATOM     40  C   UNL     1      10.382   6.027  24.566  0.00  0.00    +0.000 A 
ATOM     41  C   UNL     1      11.710   6.439  24.522  0.00  0.00    +0.000 A 
ATOM     42  C   UNL     1      12.646   5.681  23.824  0.00  0.00    +0.000 A 
ATOM     43  C   UNL     1      12.256   4.509  23.176  0.00  0.00    +0.004 A 
ENDBRANCH  37  38
ENDBRANCH  21  37
ENDBRANCH  18  21
ENDBRANCH  17  18
ENDBRANCH   1  17
BRANCH   1  44
ATOM     44  C   UNL     1       9.545  -2.527  23.950  0.00  0.00    +0.140 C 
BRANCH  44  45
ATOM     45  C   UNL     1       8.405  -3.521  23.802  0.00  0.00    -0.032 A 
ATOM     46  C   UNL     1       7.492  -3.421  22.748  0.00  0.00    +0.005 A 
ATOM     47  C   UNL     1       6.328  -4.203  22.730  0.00  0.00    +0.010 A 
ATOM     48  C   UNL     1       6.026  -5.090  23.777  0.00  0.00    +0.000 A 
ATOM     49  C   UNL     1       6.988  -5.238  24.781  0.00  0.00    +0.010 A 
ATOM     50  C   UNL     1       8.157  -4.484  24.779  0.00  0.00    +0.005 A 
BRANCH  48  51
ATOM     51  C   UNL     1       4.750  -5.821  23.876  0.00  0.00    +0.071 A 
ATOM     52  N   UNL     1       3.819  -5.509  22.934  0.00  0.00    -0.255 NA
ATOM     53  C   UNL     1       2.660  -6.198  22.933  0.00  0.00    +0.111 A 
ATOM     54  C   UNL     1       2.366  -7.203  23.835  0.00  0.00    +0.020 A 
ATOM     55  C   UNL     1       3.320  -7.521  24.793  0.00  0.00    +0.004 A 
ATOM     56  C   UNL     1       4.527  -6.826  24.814  0.00  0.00    +0.028 A 
ENDBRANCH  48  51
ENDBRANCH  44  45
ENDBRANCH   1  44
TORSDOF 19
ENDMDL
MODEL 7
REMARK VINA RESULT:      -6.2      1.279      2.257
REMARK  Name = 
REMARK  27 active torsions:
REMARK  status: ('A' for Active; 'I' for Inactive)
REMARK    1  A    between atoms: C_1  and  O_2
REMARK    2  A    between atoms: O_2  and  C_3
REMARK    3  A    between atoms: N_5  and  C_6
REMARK    4  A    between atoms: C_6  and  C_8
REMARK    5  A    between atoms: C_6  and  C_52
REMARK    6  A    between atoms: N_10  and  C_11
REMARK    7  A    between atoms: C_11  and  C_13
REMARK    8  A    between atoms: C_11  and  C_20
REMARK    9  A    between atoms: C_13  and  C_14
REMARK   10  A    between atoms: C_20  and  O_22
REMARK   11  A    between atoms: C_20  and  C_23
REMARK   12  A    between atoms: C_23  and  N_24
REMARK   13  A    between atoms: N_24  and  C_25
REMARK   14  A    between atoms: N_24  and  N_38
REMARK   15  A    between atoms: C_25  and  C_26
REMARK   16  A    between atoms: C_29  and  C_32
REMARK   17  A    between atoms: C_39  and  C_41
REMARK   18  A    between atoms: C_41  and  N_43
REMARK   19  A    between atoms: C_41  and  C_48
REMARK   20  A    between atoms: C_44  and  O_46
REMARK   21  A    between atoms: O_46  and  C_47
REMARK   22  A    between atoms: C_48  and  C_49
REMARK   23  A    between atoms: C_48  and  C_50
REMARK   24  A    between atoms: C_48  and  C_51
REMARK   25  A    between atoms: C_52  and  C_53
REMARK   26  A    between atoms: C_52  and  C_54
REMARK   27  A    between atoms: C_52  and  C_55
REMARK                            x       y       z     vdW  Elec       q    Type
REMARK                         _______ _______ _______ _____ _____    ______ ____
ROOT
ATOM      1  N   UNL     1       8.454  -2.419  25.053  0.00  0.00    -0.220 NA
ENDROOT
BRANCH   1   2
ATOM      2  N   UNL     1       7.439  -1.473  25.447  0.00  0.00    -0.246 N 
ATOM      3  H   UNL     1       6.510  -1.531  25.029  0.00  0.00    +0.169 HD
ATOM      4  C   UNL     1       7.635  -0.596  26.530  0.00  0.00    +0.248 C 
ATOM      5  O   UNL     1       8.523  -0.725  27.371  0.00  0.00    -0.272 OA
BRANCH   4   6
ATOM      6  C   UNL     1       6.561   0.526  26.636  0.00  0.00    +0.169 C 
BRANCH   6   7
ATOM      7  N   UNL     1       6.148   0.806  25.268  0.00  0.00    -0.269 N 
ATOM      8  H   UNL     1       5.878   0.028  24.670  0.00  0.00    +0.153 HD
ATOM      9  C   UNL     1       6.485   1.945  24.624  0.00  0.00    +0.401 C 
ATOM     10  O   UNL     1       7.098   2.876  25.126  0.00  0.00    -0.226 OA
BRANCH   9  11
ATOM     11  O   UNL     1       6.053   1.872  23.342  0.00  0.00    -0.454 OA
ATOM     12  C   UNL     1       5.077   2.853  22.996  0.00  0.00    +0.282 C 
ENDBRANCH   9  11
ENDBRANCH   6   7
BRANCH   6  13
ATOM     13  C   UNL     1       5.327   0.232  27.563  0.00  0.00    -0.011 C 
ATOM     14  C   UNL     1       3.965   0.435  26.875  0.00  0.00    +0.013 C 
ATOM     15  C   UNL     1       5.377   1.165  28.797  0.00  0.00    +0.013 C 
ATOM     16  C   UNL     1       5.368  -1.212  28.099  0.00  0.00    +0.013 C 
ENDBRANCH   6  13
ENDBRANCH   4   6
ENDBRANCH   1   2
BRANCH   1  17
ATOM     17  C   UNL     1       8.005  -3.845  25.115  0.00  0.00    +0.139 C 
BRANCH  17  18
ATOM     18  C   UNL     1       7.712  -4.345  26.567  0.00  0.00    +0.151 C 
BRANCH  18  19
ATOM     19  O   UNL     1       8.246  -5.672  26.695  0.00  0.00    -0.389 OA
ATOM     20  H   UNL     1       8.787  -5.698  27.513  0.00  0.00    +0.210 HD
ENDBRANCH  18  19
BRANCH  18  21
ATOM     21  C   UNL     1       6.221  -4.456  26.995  0.00  0.00    +0.107 C 
BRANCH  21  23
ATOM     22  C   UNL     1       4.439  -4.035  25.244  0.00  0.00    +0.234 C 
ATOM     23  N   UNL     1       5.397  -4.856  25.814  0.00  0.00    -0.308 N 
ATOM     24  H   UNL     1       5.791  -5.571  25.214  0.00  0.00    +0.149 HD
ATOM     25  O   UNL     1       4.030  -3.013  25.799  0.00  0.00    -0.274 OA
BRANCH  22  26
ATOM     26  C   UNL     1       3.782  -4.527  23.903  0.00  0.00    +0.167 C 
BRANCH  26  28
ATOM     27  C   UNL     1       5.411  -3.888  22.151  0.00  0.00    +0.401 C 
ATOM     28  N   UNL     1       4.740  -4.864  22.837  0.00  0.00    -0.269 N 
ATOM     29  H   UNL     1       4.464  -5.597  22.200  0.00  0.00    +0.153 HD
ATOM     30  O   UNL     1       5.627  -2.764  22.562  0.00  0.00    -0.226 OA
BRANCH  27  32
ATOM     31  C   UNL     1       6.197  -5.757  20.985  0.00  0.00    +0.282 C 
ATOM     32  O   UNL     1       5.820  -4.376  20.955  0.00  0.00    -0.454 OA
ENDBRANCH  27  32
ENDBRANCH  26  28
BRANCH  26  33
ATOM     33  C   UNL     1       2.763  -5.703  24.142  0.00  0.00    -0.011 C 
ATOM     34  C   UNL     1       3.458  -7.073  24.255  0.00  0.00    +0.013 C 
ATOM     35  C   UNL     1       1.751  -5.819  22.977  0.00  0.00    +0.013 C 
ATOM     36  C   UNL     1       1.947  -5.435  25.424  0.00  0.00    +0.013 C 
ENDBRANCH  26  33
ENDBRANCH  22  26
ENDBRANCH  21  23
BRANCH  21  37
ATOM     37  C   UNL     1       5.934  -5.366  28.211  0.00  0.00    +0.060 C 
BRANCH  37  38
ATOM     38  C   UNL     1       4.479  -5.584  28.558  0.00  0.00    -0.046 A 
ATOM     39  C   UNL     1       3.686  -4.507  28.981  0.00  0.00    +0.004 A 
ATOM     40  C   UNL     1       2.341  -4.690  29.302  0.00  0.00    +0.000 A 
ATOM     41  C   UNL     1       1.772  -5.958  29.221  0.00  0.00    +0.000 A 
ATOM     42  C   UNL     1       2.550  -7.040  28.822  0.00  0.00    +0.000 A 
ATOM     43  C   UNL     1       3.894  -6.855  28.497  0.00  0.00    +0.004 A 
ENDBRANCH  37  38
ENDBRANCH  21  37
ENDBRANCH  18  21
ENDBRANCH  17  18
ENDBRANCH   1  17
BRANCH   1  44
ATOM     44  C   UNL     1       9.065  -2.081  23.738  0.00  0.00    +0.140 C 
BRANCH  44  45
ATOM     45  C   UNL     1       9.647  -0.688  23.564  0.00  0.00    -0.032 A 
ATOM     46  C   UNL     1      10.582  -0.178  24.469  0.00  0.00    +0.005 A 
ATOM     47  C   UNL     1      10.957   1.172  24.429  0.00  0.00    +0.010 A 
ATOM     48  C   UNL     1      10.391   2.062  23.502  0.00  0.00    +0.000 A 
ATOM     49  C   UNL     1       9.520   1.520  22.552  0.00  0.00    +0.010 A 
ATOM     50  C   UNL     1       9.174   0.172  22.574  0.00  0.00    +0.005 A 
BRANCH  48  51
ATOM     51  C   UNL     1      10.642   3.514  23.515  0.00  0.00    +0.071 A 
ATOM     52  N   UNL     1       9.572   4.293  23.832  0.00  0.00    -0.255 NA
ATOM     53  C   UNL     1       9.761   5.624  23.929  0.00  0.00    +0.111 A 
ATOM     54  C   UNL     1      10.980   6.241  23.725  0.00  0.00    +0.020 A 
ATOM     55  C   UNL     1      12.071   5.443  23.406  0.00  0.00    +0.004 A 
ATOM     56  C   UNL     1      11.904   4.064  23.302  0.00  0.00    +0.028 A 
ENDBRANCH  48  51
ENDBRANCH  44  45
ENDBRANCH   1  44
TORSDOF 19
ENDMDL
MODEL 8
REMARK VINA RESULT:      -6.0      1.946      6.781
REMARK  Name = 
REMARK  27 active torsions:
REMARK  status: ('A' for Active; 'I' for Inactive)
REMARK    1  A    between atoms: C_1  and  O_2
REMARK    2  A    between atoms: O_2  and  C_3
REMARK    3  A    between atoms: N_5  and  C_6
REMARK    4  A    between atoms: C_6  and  C_8
REMARK    5  A    between atoms: C_6  and  C_52
REMARK    6  A    between atoms: N_10  and  C_11
REMARK    7  A    between atoms: C_11  and  C_13
REMARK    8  A    between atoms: C_11  and  C_20
REMARK    9  A    between atoms: C_13  and  C_14
REMARK   10  A    between atoms: C_20  and  O_22
REMARK   11  A    between atoms: C_20  and  C_23
REMARK   12  A    between atoms: C_23  and  N_24
REMARK   13  A    between atoms: N_24  and  C_25
REMARK   14  A    between atoms: N_24  and  N_38
REMARK   15  A    between atoms: C_25  and  C_26
REMARK   16  A    between atoms: C_29  and  C_32
REMARK   17  A    between atoms: C_39  and  C_41
REMARK   18  A    between atoms: C_41  and  N_43
REMARK   19  A    between atoms: C_41  and  C_48
REMARK   20  A    between atoms: C_44  and  O_46
REMARK   21  A    between atoms: O_46  and  C_47
REMARK   22  A    between atoms: C_48  and  C_49
REMARK   23  A    between atoms: C_48  and  C_50
REMARK   24  A    between atoms: C_48  and  C_51
REMARK   25  A    between atoms: C_52  and  C_53
REMARK   26  A    between atoms: C_52  and  C_54
REMARK   27  A    between atoms: C_52  and  C_55
REMARK                            x       y       z     vdW  Elec       q    Type
REMARK                         _______ _______ _______ _____ _____    ______ ____
ROOT
ATOM      1  N   UNL     1       7.439  -1.904  22.608  0.00  0.00    -0.220 NA
ENDROOT
BRANCH   1   2
ATOM      2  N   UNL     1       7.125  -2.943  23.559  0.00  0.00    -0.246 N 
ATOM      3  H   UNL     1       7.152  -2.734  24.557  0.00  0.00    +0.169 HD
ATOM      4  C   UNL     1       6.595  -4.179  23.145  0.00  0.00    +0.248 C 
ATOM      5  O   UNL     1       6.118  -4.389  22.031  0.00  0.00    -0.272 OA
BRANCH   4   6
ATOM      6  C   UNL     1       6.576  -5.264  24.262  0.00  0.00    +0.169 C 
BRANCH   6   7
ATOM      7  N   UNL     1       7.359  -4.712  25.359  0.00  0.00    -0.269 N 
ATOM      8  H   UNL     1       6.988  -3.916  25.872  0.00  0.00    +0.153 HD
ATOM      9  C   UNL     1       8.691  -4.909  25.474  0.00  0.00    +0.401 C 
ATOM     10  O   UNL     1       9.360  -5.610  24.730  0.00  0.00    -0.226 OA
BRANCH   9  11
ATOM     11  O   UNL     1       9.154  -4.189  26.524  0.00  0.00    -0.454 OA
ATOM     12  C   UNL     1       8.669  -2.848  26.573  0.00  0.00    +0.282 C 
ENDBRANCH   9  11
ENDBRANCH   6   7
BRANCH   6  13
ATOM     13  C   UNL     1       5.163  -5.747  24.748  0.00  0.00    -0.011 C 
ATOM     14  C   UNL     1       5.174  -6.430  26.128  0.00  0.00    +0.013 C 
ATOM     15  C   UNL     1       4.585  -6.756  23.726  0.00  0.00    +0.013 C 
ATOM     16  C   UNL     1       4.169  -4.572  24.818  0.00  0.00    +0.013 C 
ENDBRANCH   6  13
ENDBRANCH   4   6
ENDBRANCH   1   2
BRANCH   1  17
ATOM     17  C   UNL     1       6.837  -0.577  22.946  0.00  0.00    +0.139 C 
BRANCH  17  18
ATOM     18  C   UNL     1       6.330  -0.477  24.421  0.00  0.00    +0.151 C 
BRANCH  18  19
ATOM     19  O   UNL     1       5.097  -1.207  24.517  0.00  0.00    -0.389 OA
ATOM     20  H   UNL     1       4.401  -0.676  24.074  0.00  0.00    +0.210 HD
ENDBRANCH  18  19
BRANCH  18  21
ATOM     21  C   UNL     1       6.014   0.943  24.972  0.00  0.00    +0.107 C 
BRANCH  21  23
ATOM     22  C   UNL     1       3.834   1.393  26.182  0.00  0.00    +0.234 C 
ATOM     23  N   UNL     1       5.095   0.824  26.145  0.00  0.00    -0.308 N 
ATOM     24  H   UNL     1       5.248   0.030  26.755  0.00  0.00    +0.149 HD
ATOM     25  O   UNL     1       3.462   2.229  25.355  0.00  0.00    -0.274 OA
BRANCH  22  26
ATOM     26  C   UNL     1       2.922   1.033  27.412  0.00  0.00    +0.167 C 
BRANCH  26  28
ATOM     27  C   UNL     1       2.598  -1.417  27.567  0.00  0.00    +0.401 C 
ATOM     28  N   UNL     1       3.204  -0.278  28.021  0.00  0.00    -0.269 N 
ATOM     29  H   UNL     1       3.259  -0.301  29.029  0.00  0.00    +0.153 HD
ATOM     30  O   UNL     1       2.137  -1.570  26.451  0.00  0.00    -0.226 OA
BRANCH  27  32
ATOM     31  C   UNL     1       3.817  -2.375  29.318  0.00  0.00    +0.282 C 
ATOM     32  O   UNL     1       2.613  -2.357  28.543  0.00  0.00    -0.454 OA
ENDBRANCH  27  32
ENDBRANCH  26  28
BRANCH  26  33
ATOM     33  C   UNL     1       2.916   2.173  28.496  0.00  0.00    -0.011 C 
ATOM     34  C   UNL     1       2.616   1.641  29.910  0.00  0.00    +0.013 C 
ATOM     35  C   UNL     1       1.836   3.238  28.190  0.00  0.00    +0.013 C 
ATOM     36  C   UNL     1       4.278   2.899  28.500  0.00  0.00    +0.013 C 
ENDBRANCH  26  33
ENDBRANCH  22  26
ENDBRANCH  21  23
BRANCH  21  37
ATOM     37  C   UNL     1       7.238   1.824  25.307  0.00  0.00    +0.060 C 
BRANCH  37  38
ATOM     38  C   UNL     1       6.964   3.293  25.537  0.00  0.00    -0.046 A 
ATOM     39  C   UNL     1       6.291   4.046  24.564  0.00  0.00    +0.004 A 
ATOM     40  C   UNL     1       6.029   5.402  24.761  0.00  0.00    +0.000 A 
ATOM     41  C   UNL     1       6.451   6.029  25.930  0.00  0.00    +0.000 A 
ATOM     42  C   UNL     1       7.137   5.301  26.896  0.00  0.00    +0.000 A 
ATOM     43  C   UNL     1       7.396   3.944  26.700  0.00  0.00    +0.004 A 
ENDBRANCH  37  38
ENDBRANCH  21  37
ENDBRANCH  18  21
ENDBRANCH  17  18
ENDBRANCH   1  17
BRANCH   1  44
ATOM     44  C   UNL     1       8.900  -1.804  22.340  0.00  0.00    +0.140 C 
BRANCH  44  45
ATOM     45  C   UNL     1       9.570  -0.457  22.557  0.00  0.00    -0.032 A 
ATOM     46  C   UNL     1      10.201  -0.151  23.767  0.00  0.00    +0.005 A 
ATOM     47  C   UNL     1      10.631   1.154  24.041  0.00  0.00    +0.010 A 
ATOM     48  C   UNL     1      10.422   2.201  23.129  0.00  0.00    +0.000 A 
ATOM     49  C   UNL     1       9.865   1.863  21.891  0.00  0.00    +0.010 A 
ATOM     50  C   UNL     1       9.468   0.559  21.610  0.00  0.00    +0.005 A 
BRANCH  48  51
ATOM     51  C   UNL     1      10.722   3.611  23.432  0.00  0.00    +0.071 A 
ATOM     52  N   UNL     1       9.688   4.339  23.933  0.00  0.00    -0.255 NA
ATOM     53  C   UNL     1       9.924   5.616  24.295  0.00  0.00    +0.111 A 
ATOM     54  C   UNL     1      11.159   6.226  24.185  0.00  0.00    +0.020 A 
ATOM     55  C   UNL     1      12.214   5.480  23.676  0.00  0.00    +0.004 A 
ATOM     56  C   UNL     1      11.997   4.158  23.297  0.00  0.00    +0.028 A 
ENDBRANCH  48  51
ENDBRANCH  44  45
ENDBRANCH   1  44
TORSDOF 19
ENDMDL
MODEL 9
REMARK VINA RESULT:      -6.0      2.172      4.008
REMARK  Name = 
REMARK  27 active torsions:
REMARK  status: ('A' for Active; 'I' for Inactive)
REMARK    1  A    between atoms: C_1  and  O_2
REMARK    2  A    between atoms: O_2  and  C_3
REMARK    3  A    between atoms: N_5  and  C_6
REMARK    4  A    between atoms: C_6  and  C_8
REMARK    5  A    between atoms: C_6  and  C_52
REMARK    6  A    between atoms: N_10  and  C_11
REMARK    7  A    between atoms: C_11  and  C_13
REMARK    8  A    between atoms: C_11  and  C_20
REMARK    9  A    between atoms: C_13  and  C_14
REMARK   10  A    between atoms: C_20  and  O_22
REMARK   11  A    between atoms: C_20  and  C_23
REMARK   12  A    between atoms: C_23  and  N_24
REMARK   13  A    between atoms: N_24  and  C_25
REMARK   14  A    between atoms: N_24  and  N_38
REMARK   15  A    between atoms: C_25  and  C_26
REMARK   16  A    between atoms: C_29  and  C_32
REMARK   17  A    between atoms: C_39  and  C_41
REMARK   18  A    between atoms: C_41  and  N_43
REMARK   19  A    between atoms: C_41  and  C_48
REMARK   20  A    between atoms: C_44  and  O_46
REMARK   21  A    between atoms: O_46  and  C_47
REMARK   22  A    between atoms: C_48  and  C_49
REMARK   23  A    between atoms: C_48  and  C_50
REMARK   24  A    between atoms: C_48  and  C_51
REMARK   25  A    between atoms: C_52  and  C_53
REMARK   26  A    between atoms: C_52  and  C_54
REMARK   27  A    between atoms: C_52  and  C_55
REMARK                            x       y       z     vdW  Elec       q    Type
REMARK                         _______ _______ _______ _____ _____    ______ ____
ROOT
ATOM      1  N   UNL     1       8.479  -2.149  26.169  0.00  0.00    -0.220 NA
ENDROOT
BRANCH   1   2
ATOM      2  N   UNL     1       7.141  -1.609  26.197  0.00  0.00    -0.246 N 
ATOM      3  H   UNL     1       6.378  -2.138  25.776  0.00  0.00    +0.169 HD
ATOM      4  C   UNL     1       6.829  -0.466  26.958  0.00  0.00    +0.248 C 
ATOM      5  O   UNL     1       7.553  -0.002  27.837  0.00  0.00    -0.272 OA
BRANCH   4   6
ATOM      6  C   UNL     1       5.422   0.128  26.656  0.00  0.00    +0.169 C 
BRANCH   6   7
ATOM      7  N   UNL     1       4.637  -0.086  27.863  0.00  0.00    -0.269 N 
ATOM      8  H   UNL     1       5.103  -0.035  28.766  0.00  0.00    +0.153 HD
ATOM      9  C   UNL     1       3.453  -0.739  27.856  0.00  0.00    +0.401 C 
ATOM     10  O   UNL     1       2.890  -1.152  26.854  0.00  0.00    -0.226 OA
BRANCH   9  11
ATOM     11  O   UNL     1       3.018  -0.875  29.132  0.00  0.00    -0.454 OA
ATOM     12  C   UNL     1       3.802  -0.175  30.096  0.00  0.00    +0.282 C 
ENDBRANCH   9  11
ENDBRANCH   6   7
BRANCH   6  13
ATOM     13  C   UNL     1       5.378   1.630  26.197  0.00  0.00    -0.011 C 
ATOM     14  C   UNL     1       6.676   2.409  26.474  0.00  0.00    +0.013 C 
ATOM     15  C   UNL     1       4.225   2.358  26.930  0.00  0.00    +0.013 C 
ATOM     16  C   UNL     1       5.081   1.740  24.689  0.00  0.00    +0.013 C 
ENDBRANCH   6  13
ENDBRANCH   4   6
ENDBRANCH   1   2
BRANCH   1  17
ATOM     17  C   UNL     1       8.566  -3.566  26.640  0.00  0.00    +0.139 C 
BRANCH  17  18
ATOM     18  C   UNL     1       7.197  -4.321  26.605  0.00  0.00    +0.151 C 
BRANCH  18  19
ATOM     19  O   UNL     1       6.947  -4.847  27.917  0.00  0.00    -0.389 OA
ATOM     20  H   UNL     1       7.503  -5.647  28.029  0.00  0.00    +0.210 HD
ENDBRANCH  18  19
BRANCH  18  21
ATOM     21  C   UNL     1       7.079  -5.538  25.643  0.00  0.00    +0.107 C 
BRANCH  21  23
ATOM     22  C   UNL     1       4.777  -6.468  26.148  0.00  0.00    +0.234 C 
ATOM     23  N   UNL     1       5.639  -5.772  25.318  0.00  0.00    -0.308 N 
ATOM     24  H   UNL     1       5.212  -5.116  24.675  0.00  0.00    +0.149 HD
ATOM     25  O   UNL     1       5.177  -7.141  27.101  0.00  0.00    -0.274 OA
BRANCH  22  26
ATOM     26  C   UNL     1       3.255  -6.479  25.752  0.00  0.00    +0.167 C 
BRANCH  26  28
ATOM     27  C   UNL     1       1.979  -8.553  25.303  0.00  0.00    +0.401 C 
ATOM     28  N   UNL     1       2.513  -7.668  26.201  0.00  0.00    -0.269 N 
ATOM     29  H   UNL     1       1.870  -7.534  26.968  0.00  0.00    +0.153 HD
ATOM     30  O   UNL     1       2.366  -8.713  24.161  0.00  0.00    -0.226 OA
BRANCH  27  32
ATOM     31  C   UNL     1       1.011 -10.653  25.655  0.00  0.00    +0.282 C 
ATOM     32  O   UNL     1       0.971  -9.241  25.892  0.00  0.00    -0.454 OA
ENDBRANCH  27  32
ENDBRANCH  26  28
BRANCH  26  33
ATOM     33  C   UNL     1       2.523  -5.155  26.188  0.00  0.00    -0.011 C 
ATOM     34  C   UNL     1       3.156  -4.515  27.438  0.00  0.00    +0.013 C 
ATOM     35  C   UNL     1       1.039  -5.419  26.534  0.00  0.00    +0.013 C 
ATOM     36  C   UNL     1       2.543  -4.140  25.026  0.00  0.00    +0.013 C 
ENDBRANCH  26  33
ENDBRANCH  22  26
ENDBRANCH  21  23
BRANCH  21  37
ATOM     37  C   UNL     1       7.938  -5.468  24.360  0.00  0.00    +0.060 C 
BRANCH  37  38
ATOM     38  C   UNL     1       7.213  -5.089  23.088  0.00  0.00    -0.046 A 
ATOM     39  C   UNL     1       6.750  -3.778  22.904  0.00  0.00    +0.004 A 
ATOM     40  C   UNL     1       6.082  -3.411  21.736  0.00  0.00    +0.000 A 
ATOM     41  C   UNL     1       5.853  -4.355  20.739  0.00  0.00    +0.000 A 
ATOM     42  C   UNL     1       6.290  -5.665  20.915  0.00  0.00    +0.000 A 
ATOM     43  C   UNL     1       6.961  -6.030  22.082  0.00  0.00    +0.004 A 
ENDBRANCH  37  38
ENDBRANCH  21  37
ENDBRANCH  18  21
ENDBRANCH  17  18
ENDBRANCH   1  17
BRANCH   1  44
ATOM     44  C   UNL     1       9.140  -1.957  24.849  0.00  0.00    +0.140 C 
BRANCH  44  45
ATOM     45  C   UNL     1       9.379  -0.532  24.377  0.00  0.00    -0.032 A 
ATOM     46  C   UNL     1      10.495   0.193  24.806  0.00  0.00    +0.005 A 
ATOM     47  C   UNL     1      10.604   1.565  24.542  0.00  0.00    +0.010 A 
ATOM     48  C   UNL     1       9.591   2.263  23.863  0.00  0.00    +0.000 A 
ATOM     49  C   UNL     1       8.522   1.509  23.369  0.00  0.00    +0.010 A 
ATOM     50  C   UNL     1       8.433   0.140  23.606  0.00  0.00    +0.005 A 
BRANCH  48  51
ATOM     51  C   UNL     1       9.591   3.726  23.691  0.00  0.00    +0.071 A 
ATOM     52  N   UNL     1       8.366   4.317  23.676  0.00  0.00    -0.255 NA
ATOM     53  C   UNL     1       8.309   5.662  23.592  0.00  0.00    +0.111 A 
ATOM     54  C   UNL     1       9.426   6.472  23.521  0.00  0.00    +0.020 A 
ATOM     55  C   UNL     1      10.676   5.866  23.540  0.00  0.00    +0.004 A 
ATOM     56  C   UNL     1      10.762   4.479  23.628  0.00  0.00    +0.028 A 
ENDBRANCH  48  51
ENDBRANCH  44  45
ENDBRANCH   1  44
TORSDOF 19
ENDMDL
