MODEL 1
REMARK VINA RESULT:      -6.2      0.000      0.000
REMARK  Name = 
REMARK  8 active torsions:
REMARK  status: ('A' for Active; 'I' for Inactive)
REMARK    1  A    between atoms: C_1  and  C_2
REMARK    2  A    between atoms: C_2  and  C_3
REMARK    3  A    between atoms: C_3  and  C_4
REMARK    4  A    between atoms: C_4  and  N_5
REMARK    5  A    between atoms: C_10  and  C_12
REMARK    6  A    between atoms: N_14  and  C_15
REMARK    7  A    between atoms: C_16  and  C_17
REMARK    8  A    between atoms: C_21  and  C_22
REMARK                            x       y       z     vdW  Elec       q    Type
REMARK                         _______ _______ _______ _____ _____    ______ ____
ROOT
ATOM      1  C   UNL     1       8.404  -2.035  22.377  0.00  0.00    +0.234 C 
ATOM      2  N   UNL     1       7.981  -0.845  22.954  0.00  0.00    -0.284 N 
ATOM      3  H   UNL     1       7.018  -0.628  22.738  0.00  0.00    +0.155 HD
ATOM      4  O   UNL     1       9.520  -2.193  21.883  0.00  0.00    -0.274 OA
ENDROOT
BRANCH   2   5
ATOM      5  C   UNL     1       8.879   0.227  23.221  0.00  0.00    +0.039 A 
ATOM      6  C   UNL     1       9.122   1.227  22.241  0.00  0.00    -0.029 A 
ATOM      7  C   UNL     1       8.442   1.248  20.897  0.00  0.00    +0.045 C 
ATOM      8  C   UNL     1      10.071   2.238  22.496  0.00  0.00    +0.005 A 
ATOM      9  C   UNL     1      10.781   2.265  23.691  0.00  0.00    +0.001 A 
ATOM     10  C   UNL     1      10.544   1.279  24.645  0.00  0.00    +0.005 A 
ATOM     11  C   UNL     1       9.609   0.252  24.428  0.00  0.00    -0.029 A 
ATOM     12  C   UNL     1       9.359  -0.674  25.583  0.00  0.00    +0.045 C 
ENDBRANCH   2   5
BRANCH   1  14
ATOM     13  N   UNL     1       7.853  -4.365  23.315  0.00  0.00    -0.291 NA
ATOM     14  C   UNL     1       7.391  -3.195  22.498  0.00  0.00    +0.143 C 
ATOM     15  C   UNL     1       6.010  -2.669  22.944  0.00  0.00    +0.028 C 
ATOM     16  C   UNL     1       4.947  -3.764  22.972  0.00  0.00    +0.003 C 
ATOM     17  C   UNL     1       5.439  -5.065  23.602  0.00  0.00    +0.015 C 
ATOM     18  C   UNL     1       6.847  -5.441  23.121  0.00  0.00    +0.085 C 
BRANCH  13  19
ATOM     19  C   UNL     1       8.027  -4.038  24.752  0.00  0.00    +0.085 C 
BRANCH  19  20
ATOM     20  C   UNL     1       8.466  -5.210  25.659  0.00  0.00    +0.015 C 
BRANCH  20  22
ATOM     21  C   UNL     1       6.675  -4.147  27.087  0.00  0.00    +0.004 C 
ATOM     22  C   UNL     1       7.634  -5.320  26.934  0.00  0.00    -0.002 C 
ENDBRANCH  20  22
ENDBRANCH  19  20
ENDBRANCH  13  19
ENDBRANCH   1  14
TORSDOF 5
ENDMDL
MODEL 2
REMARK VINA RESULT:      -6.0      0.096      1.910
REMARK  Name = 
REMARK  8 active torsions:
REMARK  status: ('A' for Active; 'I' for Inactive)
REMARK    1  A    between atoms: C_1  and  C_2
REMARK    2  A    between atoms: C_2  and  C_3
REMARK    3  A    between atoms: C_3  and  C_4
REMARK    4  A    between atoms: C_4  and  N_5
REMARK    5  A    between atoms: C_10  and  C_12
REMARK    6  A    between atoms: N_14  and  C_15
REMARK    7  A    between atoms: C_16  and  C_17
REMARK    8  A    between atoms: C_21  and  C_22
REMARK                            x       y       z     vdW  Elec       q    Type
REMARK                         _______ _______ _______ _____ _____    ______ ____
ROOT
ATOM      1  C   UNL     1       8.366  -2.054  22.350  0.00  0.00    +0.234 C 
ATOM      2  N   UNL     1       7.981  -0.853  22.930  0.00  0.00    -0.284 N 
ATOM      3  H   UNL     1       7.016  -0.621  22.743  0.00  0.00    +0.155 HD
ATOM      4  O   UNL     1       9.463  -2.235  21.822  0.00  0.00    -0.274 OA
ENDROOT
BRANCH   2   5
ATOM      5  C   UNL     1       8.906   0.207  23.159  0.00  0.00    +0.039 A 
ATOM      6  C   UNL     1       9.607   0.301  24.390  0.00  0.00    -0.029 A 
ATOM      7  C   UNL     1       9.456  -0.702  25.504  0.00  0.00    +0.045 C 
ATOM      8  C   UNL     1      10.460   1.398  24.625  0.00  0.00    +0.005 A 
ATOM      9  C   UNL     1      10.618   2.396  23.672  0.00  0.00    +0.001 A 
ATOM     10  C   UNL     1       9.923   2.302  22.468  0.00  0.00    +0.005 A 
ATOM     11  C   UNL     1       9.061   1.227  22.197  0.00  0.00    -0.029 A 
ATOM     12  C   UNL     1       8.470   1.181  20.817  0.00  0.00    +0.045 C 
ENDBRANCH   2   5
BRANCH   1  14
ATOM     13  N   UNL     1       7.810  -4.369  23.322  0.00  0.00    -0.291 NA
ATOM     14  C   UNL     1       7.339  -3.196  22.514  0.00  0.00    +0.143 C 
ATOM     15  C   UNL     1       5.984  -2.644  23.005  0.00  0.00    +0.028 C 
ATOM     16  C   UNL     1       4.904  -3.720  23.078  0.00  0.00    +0.003 C 
ATOM     17  C   UNL     1       5.396  -5.027  23.698  0.00  0.00    +0.015 C 
ATOM     18  C   UNL     1       6.780  -5.429  23.170  0.00  0.00    +0.085 C 
BRANCH  13  19
ATOM     19  C   UNL     1       8.040  -4.037  24.750  0.00  0.00    +0.085 C 
BRANCH  19  20
ATOM     20  C   UNL     1       8.462  -5.217  25.654  0.00  0.00    +0.015 C 
BRANCH  20  22
ATOM     21  C   UNL     1       6.708  -4.118  27.100  0.00  0.00    +0.004 C 
ATOM     22  C   UNL     1       7.625  -5.321  26.927  0.00  0.00    -0.002 C 
ENDBRANCH  20  22
ENDBRANCH  19  20
ENDBRANCH  13  19
ENDBRANCH   1  14
TORSDOF 5
ENDMDL
MODEL 3
REMARK VINA RESULT:      -5.9      1.581      2.934
REMARK  Name = 
REMARK  8 active torsions:
REMARK  status: ('A' for Active; 'I' for Inactive)
REMARK    1  A    between atoms: C_1  and  C_2
REMARK    2  A    between atoms: C_2  and  C_3
REMARK    3  A    between atoms: C_3  and  C_4
REMARK    4  A    between atoms: C_4  and  N_5
REMARK    5  A    between atoms: C_10  and  C_12
REMARK    6  A    between atoms: N_14  and  C_15
REMARK    7  A    between atoms: C_16  and  C_17
REMARK    8  A    between atoms: C_21  and  C_22
REMARK                            x       y       z     vdW  Elec       q    Type
REMARK                         _______ _______ _______ _____ _____    ______ ____
ROOT
ATOM      1  C   UNL     1       8.582  -1.722  24.456  0.00  0.00    +0.234 C 
ATOM      2  N   UNL     1       7.952  -0.637  23.861  0.00  0.00    -0.284 N 
ATOM      3  H   UNL     1       7.212  -0.914  23.232  0.00  0.00    +0.155 HD
ATOM      4  O   UNL     1       9.797  -1.784  24.646  0.00  0.00    -0.274 OA
ENDROOT
BRANCH   2   5
ATOM      5  C   UNL     1       8.631   0.592  23.617  0.00  0.00    +0.039 A 
ATOM      6  C   UNL     1       9.402   0.769  22.438  0.00  0.00    -0.029 A 
ATOM      7  C   UNL     1       9.530  -0.284  21.369  0.00  0.00    +0.045 C 
ATOM      8  C   UNL     1      10.127   1.964  22.251  0.00  0.00    +0.005 A 
ATOM      9  C   UNL     1      10.105   2.969  23.211  0.00  0.00    +0.001 A 
ATOM     10  C   UNL     1       9.352   2.787  24.369  0.00  0.00    +0.005 A 
ATOM     11  C   UNL     1       8.620   1.609  24.594  0.00  0.00    -0.029 A 
ATOM     12  C   UNL     1       7.754   1.590  25.820  0.00  0.00    +0.045 C 
ENDBRANCH   2   5
BRANCH   1  14
ATOM     13  N   UNL     1       6.504  -3.174  24.029  0.00  0.00    -0.291 NA
ATOM     14  C   UNL     1       7.618  -2.815  24.966  0.00  0.00    +0.143 C 
ATOM     15  C   UNL     1       8.405  -4.051  25.453  0.00  0.00    +0.028 C 
ATOM     16  C   UNL     1       7.500  -5.116  26.069  0.00  0.00    +0.003 C 
ATOM     17  C   UNL     1       6.228  -5.366  25.261  0.00  0.00    +0.015 C 
ATOM     18  C   UNL     1       5.581  -4.058  24.787  0.00  0.00    +0.085 C 
BRANCH  13  19
ATOM     19  C   UNL     1       6.979  -3.826  22.784  0.00  0.00    +0.085 C 
BRANCH  19  20
ATOM     20  C   UNL     1       5.880  -4.223  21.773  0.00  0.00    +0.015 C 
BRANCH  20  22
ATOM     21  C   UNL     1       7.207  -6.369  21.885  0.00  0.00    +0.004 C 
ATOM     22  C   UNL     1       6.100  -5.608  21.169  0.00  0.00    -0.002 C 
ENDBRANCH  20  22
ENDBRANCH  19  20
ENDBRANCH  13  19
ENDBRANCH   1  14
TORSDOF 5
ENDMDL
MODEL 4
REMARK VINA RESULT:      -5.8      2.069      6.525
REMARK  Name = 
REMARK  8 active torsions:
REMARK  status: ('A' for Active; 'I' for Inactive)
REMARK    1  A    between atoms: C_1  and  C_2
REMARK    2  A    between atoms: C_2  and  C_3
REMARK    3  A    between atoms: C_3  and  C_4
REMARK    4  A    between atoms: C_4  and  N_5
REMARK    5  A    between atoms: C_10  and  C_12
REMARK    6  A    between atoms: N_14  and  C_15
REMARK    7  A    between atoms: C_16  and  C_17
REMARK    8  A    between atoms: C_21  and  C_22
REMARK                            x       y       z     vdW  Elec       q    Type
REMARK                         _______ _______ _______ _____ _____    ______ ____
ROOT
ATOM      1  C   UNL     1       8.854  -2.016  23.887  0.00  0.00    +0.234 C 
ATOM      2  N   UNL     1       8.939  -2.220  25.258  0.00  0.00    -0.284 N 
ATOM      3  H   UNL     1       9.866  -2.048  25.620  0.00  0.00    +0.155 HD
ATOM      4  O   UNL     1       8.202  -2.736  23.131  0.00  0.00    -0.274 OA
ENDROOT
BRANCH   2   5
ATOM      5  C   UNL     1       8.101  -3.150  25.938  0.00  0.00    +0.039 A 
ATOM      6  C   UNL     1       6.855  -2.738  26.480  0.00  0.00    -0.029 A 
ATOM      7  C   UNL     1       6.323  -1.334  26.352  0.00  0.00    +0.045 C 
ATOM      8  C   UNL     1       6.075  -3.655  27.214  0.00  0.00    +0.005 A 
ATOM      9  C   UNL     1       6.514  -4.957  27.423  0.00  0.00    +0.001 A 
ATOM     10  C   UNL     1       7.740  -5.354  26.894  0.00  0.00    +0.005 A 
ATOM     11  C   UNL     1       8.548  -4.469  26.161  0.00  0.00    -0.029 A 
ATOM     12  C   UNL     1       9.784  -5.056  25.542  0.00  0.00    +0.045 C 
ENDBRANCH   2   5
BRANCH   1  14
ATOM     13  N   UNL     1       8.757   0.120  22.459  0.00  0.00    -0.291 NA
ATOM     14  C   UNL     1       9.563  -0.737  23.389  0.00  0.00    +0.143 C 
ATOM     15  C   UNL     1      10.145   0.060  24.576  0.00  0.00    +0.028 C 
ATOM     16  C   UNL     1      10.950   1.276  24.126  0.00  0.00    +0.003 C 
ATOM     17  C   UNL     1      10.270   2.070  23.013  0.00  0.00    +0.015 C 
ATOM     18  C   UNL     1       9.682   1.156  21.931  0.00  0.00    +0.085 C 
BRANCH  13  19
ATOM     19  C   UNL     1       7.573   0.732  23.112  0.00  0.00    +0.085 C 
BRANCH  19  20
ATOM     20  C   UNL     1       6.787   1.751  22.256  0.00  0.00    +0.015 C 
BRANCH  20  22
ATOM     21  C   UNL     1       7.216   4.239  22.230  0.00  0.00    +0.004 C 
ATOM     22  C   UNL     1       6.562   3.081  22.971  0.00  0.00    -0.002 C 
ENDBRANCH  20  22
ENDBRANCH  19  20
ENDBRANCH  13  19
ENDBRANCH   1  14
TORSDOF 5
ENDMDL
MODEL 5
REMARK VINA RESULT:      -5.8      1.564      6.431
REMARK  Name = 
REMARK  8 active torsions:
REMARK  status: ('A' for Active; 'I' for Inactive)
REMARK    1  A    between atoms: C_1  and  C_2
REMARK    2  A    between atoms: C_2  and  C_3
REMARK    3  A    between atoms: C_3  and  C_4
REMARK    4  A    between atoms: C_4  and  N_5
REMARK    5  A    between atoms: C_10  and  C_12
REMARK    6  A    between atoms: N_14  and  C_15
REMARK    7  A    between atoms: C_16  and  C_17
REMARK    8  A    between atoms: C_21  and  C_22
REMARK                            x       y       z     vdW  Elec       q    Type
REMARK                         _______ _______ _______ _____ _____    ______ ____
ROOT
ATOM      1  C   UNL     1       8.373  -3.286  24.568  0.00  0.00    +0.234 C 
ATOM      2  N   UNL     1       7.027  -3.302  24.909  0.00  0.00    -0.284 N 
ATOM      3  H   UNL     1       6.846  -2.861  25.799  0.00  0.00    +0.155 HD
ATOM      4  O   UNL     1       8.950  -4.229  24.028  0.00  0.00    -0.274 OA
ENDROOT
BRANCH   2   5
ATOM      5  C   UNL     1       6.147  -4.329  24.463  0.00  0.00    +0.039 A 
ATOM      6  C   UNL     1       5.489  -4.222  23.208  0.00  0.00    -0.029 A 
ATOM      7  C   UNL     1       5.694  -3.065  22.265  0.00  0.00    +0.045 C 
ATOM      8  C   UNL     1       4.565  -5.212  22.818  0.00  0.00    +0.005 A 
ATOM      9  C   UNL     1       4.279  -6.288  23.649  0.00  0.00    +0.001 A 
ATOM     10  C   UNL     1       4.921  -6.385  24.882  0.00  0.00    +0.005 A 
ATOM     11  C   UNL     1       5.846  -5.417  25.308  0.00  0.00    -0.029 A 
ATOM     12  C   UNL     1       6.558  -5.702  26.599  0.00  0.00    +0.045 C 
ENDBRANCH   2   5
BRANCH   1  14
ATOM     13  N   UNL     1       9.746  -1.324  23.630  0.00  0.00    -0.291 NA
ATOM     14  C   UNL     1       9.078  -1.935  24.825  0.00  0.00    +0.143 C 
ATOM     15  C   UNL     1       8.126  -0.952  25.541  0.00  0.00    +0.028 C 
ATOM     16  C   UNL     1       8.812   0.359  25.915  0.00  0.00    +0.003 C 
ATOM     17  C   UNL     1       9.691   0.919  24.799  0.00  0.00    +0.015 C 
ATOM     18  C   UNL     1      10.539  -0.172  24.132  0.00  0.00    +0.085 C 
BRANCH  13  19
ATOM     19  C   UNL     1       8.787  -0.905  22.579  0.00  0.00    +0.085 C 
BRANCH  19  20
ATOM     20  C   UNL     1       9.370  -0.026  21.450  0.00  0.00    +0.015 C 
BRANCH  20  22
ATOM     21  C   UNL     1       7.373   1.356  22.141  0.00  0.00    +0.004 C 
ATOM     22  C   UNL     1       8.630   1.300  21.285  0.00  0.00    -0.002 C 
ENDBRANCH  20  22
ENDBRANCH  19  20
ENDBRANCH  13  19
ENDBRANCH   1  14
TORSDOF 5
ENDMDL
MODEL 6
REMARK VINA RESULT:      -5.7      1.592      3.267
REMARK  Name = 
REMARK  8 active torsions:
REMARK  status: ('A' for Active; 'I' for Inactive)
REMARK    1  A    between atoms: C_1  and  C_2
REMARK    2  A    between atoms: C_2  and  C_3
REMARK    3  A    between atoms: C_3  and  C_4
REMARK    4  A    between atoms: C_4  and  N_5
REMARK    5  A    between atoms: C_10  and  C_12
REMARK    6  A    between atoms: N_14  and  C_15
REMARK    7  A    between atoms: C_16  and  C_17
REMARK    8  A    between atoms: C_21  and  C_22
REMARK                            x       y       z     vdW  Elec       q    Type
REMARK                         _______ _______ _______ _____ _____    ______ ____
ROOT
ATOM      1  C   UNL     1       8.511  -1.696  24.417  0.00  0.00    +0.234 C 
ATOM      2  N   UNL     1       7.932  -0.563  23.863  0.00  0.00    -0.284 N 
ATOM      3  H   UNL     1       7.191  -0.782  23.212  0.00  0.00    +0.155 HD
ATOM      4  O   UNL     1       9.719  -1.814  24.620  0.00  0.00    -0.274 OA
ENDROOT
BRANCH   2   5
ATOM      5  C   UNL     1       8.661   0.648  23.684  0.00  0.00    +0.039 A 
ATOM      6  C   UNL     1       8.582   1.688  24.649  0.00  0.00    -0.029 A 
ATOM      7  C   UNL     1       7.773   1.579  25.915  0.00  0.00    +0.045 C 
ATOM      8  C   UNL     1       9.252   2.907  24.418  0.00  0.00    +0.005 A 
ATOM      9  C   UNL     1       9.980   3.111  23.252  0.00  0.00    +0.001 A 
ATOM     10  C   UNL     1      10.049   2.090  22.306  0.00  0.00    +0.005 A 
ATOM     11  C   UNL     1       9.393   0.862  22.498  0.00  0.00    -0.029 A 
ATOM     12  C   UNL     1       9.648  -0.195  21.463  0.00  0.00    +0.045 C 
ENDBRANCH   2   5
BRANCH   1  14
ATOM     13  N   UNL     1       6.455  -3.132  23.847  0.00  0.00    -0.291 NA
ATOM     14  C   UNL     1       7.498  -2.773  24.865  0.00  0.00    +0.143 C 
ATOM     15  C   UNL     1       8.230  -4.010  25.427  0.00  0.00    +0.028 C 
ATOM     16  C   UNL     1       7.269  -5.057  25.983  0.00  0.00    +0.003 C 
ATOM     17  C   UNL     1       6.061  -5.305  25.082  0.00  0.00    +0.015 C 
ATOM     18  C   UNL     1       5.467  -3.998  24.543  0.00  0.00    +0.085 C 
BRANCH  13  19
ATOM     19  C   UNL     1       7.019  -3.806  22.652  0.00  0.00    +0.085 C 
BRANCH  19  20
ATOM     20  C   UNL     1       5.997  -4.205  21.563  0.00  0.00    +0.015 C 
BRANCH  20  22
ATOM     21  C   UNL     1       7.245  -6.380  21.859  0.00  0.00    +0.004 C 
ATOM     22  C   UNL     1       6.055  -5.689  21.208  0.00  0.00    -0.002 C 
ENDBRANCH  20  22
ENDBRANCH  19  20
ENDBRANCH  13  19
ENDBRANCH   1  14
TORSDOF 5
ENDMDL
MODEL 7
REMARK VINA RESULT:      -5.7      1.784      6.657
REMARK  Name = 
REMARK  8 active torsions:
REMARK  status: ('A' for Active; 'I' for Inactive)
REMARK    1  A    between atoms: C_1  and  C_2
REMARK    2  A    between atoms: C_2  and  C_3
REMARK    3  A    between atoms: C_3  and  C_4
REMARK    4  A    between atoms: C_4  and  N_5
REMARK    5  A    between atoms: C_10  and  C_12
REMARK    6  A    between atoms: N_14  and  C_15
REMARK    7  A    between atoms: C_16  and  C_17
REMARK    8  A    between atoms: C_21  and  C_22
REMARK                            x       y       z     vdW  Elec       q    Type
REMARK                         _______ _______ _______ _____ _____    ______ ____
ROOT
ATOM      1  C   UNL     1       8.773  -1.952  23.316  0.00  0.00    +0.234 C 
ATOM      2  N   UNL     1       8.494  -2.241  24.645  0.00  0.00    -0.284 N 
ATOM      3  H   UNL     1       9.287  -2.087  25.252  0.00  0.00    +0.155 HD
ATOM      4  O   UNL     1       8.362  -2.627  22.373  0.00  0.00    -0.274 OA
ENDROOT
BRANCH   2   5
ATOM      5  C   UNL     1       7.527  -3.218  25.020  0.00  0.00    +0.039 A 
ATOM      6  C   UNL     1       7.922  -4.550  25.316  0.00  0.00    -0.029 A 
ATOM      7  C   UNL     1       9.357  -5.010  25.290  0.00  0.00    +0.045 C 
ATOM      8  C   UNL     1       6.943  -5.519  25.613  0.00  0.00    +0.005 A 
ATOM      9  C   UNL     1       5.592  -5.192  25.610  0.00  0.00    +0.001 A 
ATOM     10  C   UNL     1       5.209  -3.886  25.313  0.00  0.00    +0.005 A 
ATOM     11  C   UNL     1       6.155  -2.892  25.009  0.00  0.00    -0.029 A 
ATOM     12  C   UNL     1       5.620  -1.500  24.829  0.00  0.00    +0.045 C 
ENDBRANCH   2   5
BRANCH   1  14
ATOM     13  N   UNL     1       8.865   0.393  22.265  0.00  0.00    -0.291 NA
ATOM     14  C   UNL     1       9.559  -0.640  23.102  0.00  0.00    +0.143 C 
ATOM     15  C   UNL     1      10.054  -0.076  24.452  0.00  0.00    +0.028 C 
ATOM     16  C   UNL     1      10.930   1.162  24.283  0.00  0.00    +0.003 C 
ATOM     17  C   UNL     1      10.377   2.158  23.265  0.00  0.00    +0.015 C 
ATOM     18  C   UNL     1       9.863   1.461  21.998  0.00  0.00    +0.085 C 
BRANCH  13  19
ATOM     19  C   UNL     1       7.645   0.938  22.909  0.00  0.00    +0.085 C 
BRANCH  19  20
ATOM     20  C   UNL     1       6.873   2.000  22.092  0.00  0.00    +0.015 C 
BRANCH  20  22
ATOM     21  C   UNL     1       7.249   4.492  22.244  0.00  0.00    +0.004 C 
ATOM     22  C   UNL     1       6.596   3.275  22.884  0.00  0.00    -0.002 C 
ENDBRANCH  20  22
ENDBRANCH  19  20
ENDBRANCH  13  19
ENDBRANCH   1  14
TORSDOF 5
ENDMDL
MODEL 8
REMARK VINA RESULT:      -5.6      2.464      4.109
REMARK  Name = 
REMARK  8 active torsions:
REMARK  status: ('A' for Active; 'I' for Inactive)
REMARK    1  A    between atoms: C_1  and  C_2
REMARK    2  A    between atoms: C_2  and  C_3
REMARK    3  A    between atoms: C_3  and  C_4
REMARK    4  A    between atoms: C_4  and  N_5
REMARK    5  A    between atoms: C_10  and  C_12
REMARK    6  A    between atoms: N_14  and  C_15
REMARK    7  A    between atoms: C_16  and  C_17
REMARK    8  A    between atoms: C_21  and  C_22
REMARK                            x       y       z     vdW  Elec       q    Type
REMARK                         _______ _______ _______ _____ _____    ______ ____
ROOT
ATOM      1  C   UNL     1       7.440  -0.670  24.611  0.00  0.00    +0.234 C 
ATOM      2  N   UNL     1       8.057   0.180  25.520  0.00  0.00    -0.284 N 
ATOM      3  H   UNL     1       7.990  -0.152  26.471  0.00  0.00    +0.155 HD
ATOM      4  O   UNL     1       6.780  -0.276  23.650  0.00  0.00    -0.274 OA
ENDROOT
BRANCH   2   5
ATOM      5  C   UNL     1       8.163   1.582  25.291  0.00  0.00    +0.039 A 
ATOM      6  C   UNL     1       7.094   2.453  25.633  0.00  0.00    -0.029 A 
ATOM      7  C   UNL     1       5.816   1.978  26.276  0.00  0.00    +0.045 C 
ATOM      8  C   UNL     1       7.188   3.827  25.331  0.00  0.00    +0.005 A 
ATOM      9  C   UNL     1       8.310   4.341  24.693  0.00  0.00    +0.001 A 
ATOM     10  C   UNL     1       9.354   3.482  24.354  0.00  0.00    +0.005 A 
ATOM     11  C   UNL     1       9.296   2.106  24.635  0.00  0.00    -0.029 A 
ATOM     12  C   UNL     1      10.535   1.315  24.331  0.00  0.00    +0.045 C 
ENDBRANCH   2   5
BRANCH   1  14
ATOM     13  N   UNL     1       8.582  -2.822  23.789  0.00  0.00    -0.291 NA
ATOM     14  C   UNL     1       7.736  -2.168  24.841  0.00  0.00    +0.143 C 
ATOM     15  C   UNL     1       8.276  -2.404  26.268  0.00  0.00    +0.028 C 
ATOM     16  C   UNL     1       8.481  -3.884  26.579  0.00  0.00    +0.003 C 
ATOM     17  C   UNL     1       9.146  -4.653  25.440  0.00  0.00    +0.015 C 
ATOM     18  C   UNL     1       8.559  -4.280  24.073  0.00  0.00    +0.085 C 
BRANCH  13  19
ATOM     19  C   UNL     1       9.970  -2.298  23.752  0.00  0.00    +0.085 C 
BRANCH  19  20
ATOM     20  C   UNL     1      10.395  -1.618  22.431  0.00  0.00    +0.015 C 
BRANCH  20  22
ATOM     21  C   UNL     1       9.239   0.278  21.229  0.00  0.00    +0.004 C 
ATOM     22  C   UNL     1       9.208  -1.207  21.563  0.00  0.00    -0.002 C 
ENDBRANCH  20  22
ENDBRANCH  19  20
ENDBRANCH  13  19
ENDBRANCH   1  14
TORSDOF 5
ENDMDL
MODEL 9
REMARK VINA RESULT:      -5.5      1.795      6.889
REMARK  Name = 
REMARK  8 active torsions:
REMARK  status: ('A' for Active; 'I' for Inactive)
REMARK    1  A    between atoms: C_1  and  C_2
REMARK    2  A    between atoms: C_2  and  C_3
REMARK    3  A    between atoms: C_3  and  C_4
REMARK    4  A    between atoms: C_4  and  N_5
REMARK    5  A    between atoms: C_10  and  C_12
REMARK    6  A    between atoms: N_14  and  C_15
REMARK    7  A    between atoms: C_16  and  C_17
REMARK    8  A    between atoms: C_21  and  C_22
REMARK                            x       y       z     vdW  Elec       q    Type
REMARK                         _______ _______ _______ _____ _____    ______ ____
ROOT
ATOM      1  C   UNL     1       7.878  -3.434  25.211  0.00  0.00    +0.234 C 
ATOM      2  N   UNL     1       6.507  -3.475  25.427  0.00  0.00    -0.284 N 
ATOM      3  H   UNL     1       6.230  -2.982  26.264  0.00  0.00    +0.155 HD
ATOM      4  O   UNL     1       8.531  -4.390  24.795  0.00  0.00    -0.274 OA
ENDROOT
BRANCH   2   5
ATOM      5  C   UNL     1       5.703  -4.561  24.977  0.00  0.00    +0.039 A 
ATOM      6  C   UNL     1       5.458  -5.677  25.820  0.00  0.00    -0.029 A 
ATOM      7  C   UNL     1       5.986  -5.780  27.227  0.00  0.00    +0.045 C 
ATOM      8  C   UNL     1       4.722  -6.775  25.329  0.00  0.00    +0.005 A 
ATOM      9  C   UNL     1       4.240  -6.785  24.026  0.00  0.00    +0.001 A 
ATOM     10  C   UNL     1       4.489  -5.690  23.201  0.00  0.00    +0.005 A 
ATOM     11  C   UNL     1       5.221  -4.579  23.651  0.00  0.00    -0.029 A 
ATOM     12  C   UNL     1       5.312  -3.416  22.706  0.00  0.00    +0.045 C 
ENDBRANCH   2   5
BRANCH   1  14
ATOM     13  N   UNL     1       9.417  -1.569  24.335  0.00  0.00    -0.291 NA
ATOM     14  C   UNL     1       8.515  -2.045  25.436  0.00  0.00    +0.143 C 
ATOM     15  C   UNL     1       7.437  -1.005  25.810  0.00  0.00    +0.028 C 
ATOM     16  C   UNL     1       8.032   0.359  26.149  0.00  0.00    +0.003 C 
ATOM     17  C   UNL     1       9.123   0.799  25.175  0.00  0.00    +0.015 C 
ATOM     18  C   UNL     1      10.090  -0.344  24.840  0.00  0.00    +0.085 C 
BRANCH  13  19
ATOM     19  C   UNL     1       8.696  -1.308  23.065  0.00  0.00    +0.085 C 
BRANCH  19  20
ATOM     20  C   UNL     1       9.576  -0.880  21.870  0.00  0.00    +0.015 C 
BRANCH  20  22
ATOM     21  C   UNL     1       9.929   1.620  21.863  0.00  0.00    +0.004 C 
ATOM     22  C   UNL     1       9.151   0.456  21.265  0.00  0.00    -0.002 C 
ENDBRANCH  20  22
ENDBRANCH  19  20
ENDBRANCH  13  19
ENDBRANCH   1  14
TORSDOF 5
ENDMDL
