MODEL 1
REMARK VINA RESULT:      -7.2      0.000      0.000
REMARK  Name = 
REMARK  9 active torsions:
REMARK  status: ('A' for Active; 'I' for Inactive)
REMARK    1  A    between atoms: C_1  and  C_2
REMARK    2  A    between atoms: C_2  and  O_3
REMARK    3  A    between atoms: O_3  and  C_4
REMARK    4  A    between atoms: C_6  and  C_10
REMARK    5  A    between atoms: C_13  and  N_14
REMARK    6  A    between atoms: C_15  and  C_17
REMARK    7  A    between atoms: C_17  and  C_18
REMARK    8  A    between atoms: C_20  and  C_21
REMARK    9  A    between atoms: C_20  and  O_22
REMARK                            x       y       z     vdW  Elec       q    Type
REMARK                         _______ _______ _______ _____ _____    ______ ____
ROOT
ATOM      1  C   UNL     1      10.211   2.015  23.176  0.00  0.00    -0.018 A 
ATOM      2  C   UNL     1      10.295   1.100  24.240  0.00  0.00    +0.010 A 
ATOM      3  C   UNL     1       9.940  -0.252  24.087  0.00  0.00    +0.024 A 
ATOM      4  C   UNL     1       9.497  -0.736  22.855  0.00  0.00    +0.034 A 
ATOM      5  C   UNL     1       9.444   0.159  21.784  0.00  0.00    +0.024 A 
ATOM      6  C   UNL     1       9.811   1.499  21.937  0.00  0.00    +0.010 A 
ENDROOT
BRANCH   1  11
ATOM      7  C   UNL     1       9.534   5.693  23.893  0.00  0.00    +0.121 A 
ATOM      8  C   UNL     1      10.826   6.214  23.911  0.00  0.00    +0.045 A 
ATOM      9  C   UNL     1      11.918   5.390  23.640  0.00  0.00    +0.004 A 
ATOM     10  C   UNL     1      11.725   4.033  23.360  0.00  0.00    +0.009 A 
ATOM     11  C   UNL     1      10.441   3.469  23.363  0.00  0.00    -0.014 A 
ATOM     12  C   UNL     1       9.355   4.334  23.620  0.00  0.00    +0.054 A 
BRANCH   7  13
ATOM     13  O   UNL     1       8.535   6.588  24.174  0.00  0.00    -0.492 OA
BRANCH  13  15
ATOM     14  C   UNL     1       7.220   6.783  22.180  0.00  0.00    +0.048 C 
ATOM     15  C   UNL     1       7.249   6.305  23.620  0.00  0.00    +0.225 C 
ENDBRANCH  13  15
ENDBRANCH   7  13
ENDBRANCH   1  11
BRANCH   4  16
ATOM     16  N   UNL     1       9.093  -2.097  22.762  0.00  0.00    -0.281 N 
ATOM     17  H   UNL     1       9.834  -2.767  22.600  0.00  0.00    +0.155 HD
ATOM     18  C   UNL     1       7.785  -2.521  22.825  0.00  0.00    +0.262 C 
ATOM     19  O   UNL     1       6.813  -1.760  22.836  0.00  0.00    -0.269 OA
BRANCH  18  20
ATOM     20  C   UNL     1       7.510  -3.988  22.840  0.00  0.00    +0.150 C 
ATOM     21  C   UNL     1       6.552  -4.481  22.006  0.00  0.00    +0.113 C 
ATOM     22  C   UNL     1       6.158  -5.934  21.886  0.00  0.00    +0.087 C 
BRANCH  21  23
ATOM     23  O   UNL     1       5.806  -3.702  21.133  0.00  0.00    -0.510 OA
ATOM     24  H   UNL     1       5.534  -4.246  20.357  0.00  0.00    +0.292 HD
ENDBRANCH  21  23
BRANCH  20  25
ATOM     25  C   UNL     1       8.243  -4.983  23.725  0.00  0.00    +0.108 C 
ATOM     26  N   UNL     1       8.850  -5.809  24.459  0.00  0.00    -0.191 NA
ENDBRANCH  20  25
ENDBRANCH  18  20
ENDBRANCH   4  16
TORSDOF 7
ENDMDL
MODEL 2
REMARK VINA RESULT:      -6.9      1.240      2.520
REMARK  Name = 
REMARK  9 active torsions:
REMARK  status: ('A' for Active; 'I' for Inactive)
REMARK    1  A    between atoms: C_1  and  C_2
REMARK    2  A    between atoms: C_2  and  O_3
REMARK    3  A    between atoms: O_3  and  C_4
REMARK    4  A    between atoms: C_6  and  C_10
REMARK    5  A    between atoms: C_13  and  N_14
REMARK    6  A    between atoms: C_15  and  C_17
REMARK    7  A    between atoms: C_17  and  C_18
REMARK    8  A    between atoms: C_20  and  C_21
REMARK    9  A    between atoms: C_20  and  O_22
REMARK                            x       y       z     vdW  Elec       q    Type
REMARK                         _______ _______ _______ _____ _____    ______ ____
ROOT
ATOM      1  C   UNL     1       8.884   2.302  23.432  0.00  0.00    -0.018 A 
ATOM      2  C   UNL     1       8.944   1.643  22.192  0.00  0.00    +0.010 A 
ATOM      3  C   UNL     1       8.806   0.248  22.084  0.00  0.00    +0.024 A 
ATOM      4  C   UNL     1       8.593  -0.535  23.220  0.00  0.00    +0.034 A 
ATOM      5  C   UNL     1       8.497   0.115  24.452  0.00  0.00    +0.024 A 
ATOM      6  C   UNL     1       8.621   1.504  24.553  0.00  0.00    +0.010 A 
ENDROOT
BRANCH   1  11
ATOM      7  C   UNL     1      10.834   5.557  23.750  0.00  0.00    +0.121 A 
ATOM      8  C   UNL     1       9.814   6.501  23.661  0.00  0.00    +0.045 A 
ATOM      9  C   UNL     1       8.486   6.090  23.551  0.00  0.00    +0.004 A 
ATOM     10  C   UNL     1       8.170   4.728  23.517  0.00  0.00    +0.009 A 
ATOM     11  C   UNL     1       9.175   3.750  23.574  0.00  0.00    -0.014 A 
ATOM     12  C   UNL     1      10.508   4.199  23.707  0.00  0.00    +0.054 A 
BRANCH   7  13
ATOM     13  O   UNL     1      12.101   6.069  23.853  0.00  0.00    -0.492 OA
BRANCH  13  15
ATOM     14  C   UNL     1      13.352   5.692  21.845  0.00  0.00    +0.048 C 
ATOM     15  C   UNL     1      13.155   5.285  23.293  0.00  0.00    +0.225 C 
ENDBRANCH  13  15
ENDBRANCH   7  13
ENDBRANCH   1  11
BRANCH   4  16
ATOM     16  N   UNL     1       8.517  -1.948  23.070  0.00  0.00    -0.281 N 
ATOM     17  H   UNL     1       9.404  -2.436  23.033  0.00  0.00    +0.155 HD
ATOM     18  C   UNL     1       7.342  -2.648  22.921  0.00  0.00    +0.262 C 
ATOM     19  O   UNL     1       6.238  -2.117  22.770  0.00  0.00    -0.269 OA
BRANCH  18  20
ATOM     20  C   UNL     1       7.397  -4.140  22.900  0.00  0.00    +0.150 C 
ATOM     21  C   UNL     1       6.632  -4.807  21.992  0.00  0.00    +0.113 C 
ATOM     22  C   UNL     1       6.577  -6.308  21.828  0.00  0.00    +0.087 C 
BRANCH  21  23
ATOM     23  O   UNL     1       5.794  -4.188  21.075  0.00  0.00    -0.510 OA
ATOM     24  H   UNL     1       5.509  -3.313  21.428  0.00  0.00    +0.292 HD
ENDBRANCH  21  23
BRANCH  20  25
ATOM     25  C   UNL     1       8.268  -4.974  23.825  0.00  0.00    +0.108 C 
ATOM     26  N   UNL     1       8.990  -5.666  24.593  0.00  0.00    -0.191 NA
ENDBRANCH  20  25
ENDBRANCH  18  20
ENDBRANCH   4  16
TORSDOF 7
ENDMDL
MODEL 3
REMARK VINA RESULT:      -6.6      1.569      2.044
REMARK  Name = 
REMARK  9 active torsions:
REMARK  status: ('A' for Active; 'I' for Inactive)
REMARK    1  A    between atoms: C_1  and  C_2
REMARK    2  A    between atoms: C_2  and  O_3
REMARK    3  A    between atoms: O_3  and  C_4
REMARK    4  A    between atoms: C_6  and  C_10
REMARK    5  A    between atoms: C_13  and  N_14
REMARK    6  A    between atoms: C_15  and  C_17
REMARK    7  A    between atoms: C_17  and  C_18
REMARK    8  A    between atoms: C_20  and  C_21
REMARK    9  A    between atoms: C_20  and  O_22
REMARK                            x       y       z     vdW  Elec       q    Type
REMARK                         _______ _______ _______ _____ _____    ______ ____
ROOT
ATOM      1  C   UNL     1      10.537   2.428  23.222  0.00  0.00    -0.018 A 
ATOM      2  C   UNL     1      10.627   1.450  24.228  0.00  0.00    +0.010 A 
ATOM      3  C   UNL     1      10.198   0.128  24.019  0.00  0.00    +0.024 A 
ATOM      4  C   UNL     1       9.671  -0.262  22.787  0.00  0.00    +0.034 A 
ATOM      5  C   UNL     1       9.611   0.694  21.771  0.00  0.00    +0.024 A 
ATOM      6  C   UNL     1      10.051   2.005  21.978  0.00  0.00    +0.010 A 
ENDROOT
BRANCH   1  11
ATOM      7  C   UNL     1      10.082   6.085  24.181  0.00  0.00    +0.121 A 
ATOM      8  C   UNL     1      11.397   6.544  24.156  0.00  0.00    +0.045 A 
ATOM      9  C   UNL     1      12.431   5.688  23.777  0.00  0.00    +0.004 A 
ATOM     10  C   UNL     1      12.157   4.361  23.433  0.00  0.00    +0.009 A 
ATOM     11  C   UNL     1      10.848   3.857  23.477  0.00  0.00    -0.014 A 
ATOM     12  C   UNL     1       9.821   4.754  23.843  0.00  0.00    +0.054 A 
BRANCH   7  13
ATOM     13  O   UNL     1       9.145   7.007  24.569  0.00  0.00    -0.492 OA
BRANCH  13  15
ATOM     14  C   UNL     1       8.656   6.724  26.897  0.00  0.00    +0.048 C 
ATOM     15  C   UNL     1       8.142   6.555  25.480  0.00  0.00    +0.225 C 
ENDBRANCH  13  15
ENDBRANCH   7  13
ENDBRANCH   1  11
BRANCH   4  16
ATOM     16  N   UNL     1       9.195  -1.595  22.639  0.00  0.00    -0.281 N 
ATOM     17  H   UNL     1       9.884  -2.281  22.353  0.00  0.00    +0.155 HD
ATOM     18  C   UNL     1       7.882  -1.971  22.807  0.00  0.00    +0.262 C 
ATOM     19  O   UNL     1       6.954  -1.174  22.973  0.00  0.00    -0.269 OA
BRANCH  18  20
ATOM     20  C   UNL     1       7.540  -3.422  22.746  0.00  0.00    +0.150 C 
ATOM     21  C   UNL     1       8.147  -4.272  23.621  0.00  0.00    +0.113 C 
ATOM     22  C   UNL     1       7.909  -5.761  23.703  0.00  0.00    +0.087 C 
BRANCH  21  23
ATOM     23  O   UNL     1       9.071  -3.875  24.577  0.00  0.00    -0.510 OA
ATOM     24  H   UNL     1       9.774  -4.561  24.660  0.00  0.00    +0.292 HD
ENDBRANCH  21  23
BRANCH  20  25
ATOM     25  C   UNL     1       6.542  -4.023  21.769  0.00  0.00    +0.108 C 
ATOM     26  N   UNL     1       5.714  -4.520  20.959  0.00  0.00    -0.191 NA
ENDBRANCH  20  25
ENDBRANCH  18  20
ENDBRANCH   4  16
TORSDOF 7
ENDMDL
MODEL 4
REMARK VINA RESULT:      -6.5      1.193      1.679
REMARK  Name = 
REMARK  9 active torsions:
REMARK  status: ('A' for Active; 'I' for Inactive)
REMARK    1  A    between atoms: C_1  and  C_2
REMARK    2  A    between atoms: C_2  and  O_3
REMARK    3  A    between atoms: O_3  and  C_4
REMARK    4  A    between atoms: C_6  and  C_10
REMARK    5  A    between atoms: C_13  and  N_14
REMARK    6  A    between atoms: C_15  and  C_17
REMARK    7  A    between atoms: C_17  and  C_18
REMARK    8  A    between atoms: C_20  and  C_21
REMARK    9  A    between atoms: C_20  and  O_22
REMARK                            x       y       z     vdW  Elec       q    Type
REMARK                         _______ _______ _______ _____ _____    ______ ____
ROOT
ATOM      1  C   UNL     1       9.777   2.411  23.496  0.00  0.00    -0.018 A 
ATOM      2  C   UNL     1       9.904   1.745  22.265  0.00  0.00    +0.010 A 
ATOM      3  C   UNL     1       9.583   0.383  22.121  0.00  0.00    +0.024 A 
ATOM      4  C   UNL     1       9.112  -0.355  23.207  0.00  0.00    +0.034 A 
ATOM      5  C   UNL     1       8.949   0.308  24.425  0.00  0.00    +0.024 A 
ATOM      6  C   UNL     1       9.257   1.665  24.562  0.00  0.00    +0.010 A 
ENDROOT
BRANCH   1  11
ATOM      7  C   UNL     1       9.925   6.011  24.730  0.00  0.00    +0.121 A 
ATOM      8  C   UNL     1      11.178   6.409  24.272  0.00  0.00    +0.045 A 
ATOM      9  C   UNL     1      11.960   5.535  23.517  0.00  0.00    +0.004 A 
ATOM     10  C   UNL     1      11.496   4.248  23.225  0.00  0.00    +0.009 A 
ATOM     11  C   UNL     1      10.251   3.803  23.696  0.00  0.00    -0.014 A 
ATOM     12  C   UNL     1       9.475   4.720  24.439  0.00  0.00    +0.054 A 
BRANCH   7  13
ATOM     13  O   UNL     1       9.242   6.946  25.462  0.00  0.00    -0.492 OA
BRANCH  13  15
ATOM     14  C   UNL     1       8.201   6.910  27.620  0.00  0.00    +0.048 C 
ATOM     15  C   UNL     1       8.087   6.487  26.167  0.00  0.00    +0.225 C 
ENDBRANCH  13  15
ENDBRANCH   7  13
ENDBRANCH   1  11
BRANCH   4  16
ATOM     16  N   UNL     1       8.856  -1.743  23.029  0.00  0.00    -0.281 N 
ATOM     17  H   UNL     1       9.665  -2.320  22.831  0.00  0.00    +0.155 HD
ATOM     18  C   UNL     1       7.600  -2.308  23.055  0.00  0.00    +0.262 C 
ATOM     19  O   UNL     1       6.553  -1.656  23.105  0.00  0.00    -0.269 OA
BRANCH  18  20
ATOM     20  C   UNL     1       7.484  -3.794  22.979  0.00  0.00    +0.150 C 
ATOM     21  C   UNL     1       6.643  -4.335  22.053  0.00  0.00    +0.113 C 
ATOM     22  C   UNL     1       6.416  -5.812  21.835  0.00  0.00    +0.087 C 
BRANCH  21  23
ATOM     23  O   UNL     1       5.880  -3.590  21.166  0.00  0.00    -0.510 OA
ATOM     24  H   UNL     1       5.089  -3.232  21.632  0.00  0.00    +0.292 HD
ENDBRANCH  21  23
BRANCH  20  25
ATOM     25  C   UNL     1       8.256  -4.756  23.867  0.00  0.00    +0.108 C 
ATOM     26  N   UNL     1       8.896  -5.554  24.603  0.00  0.00    -0.191 NA
ENDBRANCH  20  25
ENDBRANCH  18  20
ENDBRANCH   4  16
TORSDOF 7
ENDMDL
MODEL 5
REMARK VINA RESULT:      -6.4      2.094      3.014
REMARK  Name = 
REMARK  9 active torsions:
REMARK  status: ('A' for Active; 'I' for Inactive)
REMARK    1  A    between atoms: C_1  and  C_2
REMARK    2  A    between atoms: C_2  and  O_3
REMARK    3  A    between atoms: O_3  and  C_4
REMARK    4  A    between atoms: C_6  and  C_10
REMARK    5  A    between atoms: C_13  and  N_14
REMARK    6  A    between atoms: C_15  and  C_17
REMARK    7  A    between atoms: C_17  and  C_18
REMARK    8  A    between atoms: C_20  and  C_21
REMARK    9  A    between atoms: C_20  and  O_22
REMARK                            x       y       z     vdW  Elec       q    Type
REMARK                         _______ _______ _______ _____ _____    ______ ____
ROOT
ATOM      1  C   UNL     1       8.480   2.397  23.606  0.00  0.00    -0.018 A 
ATOM      2  C   UNL     1       8.968   1.409  24.479  0.00  0.00    +0.010 A 
ATOM      3  C   UNL     1       8.464   0.096  24.470  0.00  0.00    +0.024 A 
ATOM      4  C   UNL     1       7.459  -0.274  23.576  0.00  0.00    +0.034 A 
ATOM      5  C   UNL     1       6.993   0.693  22.682  0.00  0.00    +0.024 A 
ATOM      6  C   UNL     1       7.506   1.993  22.684  0.00  0.00    +0.010 A 
ENDROOT
BRANCH   1  11
ATOM      7  C   UNL     1      10.710   5.479  23.789  0.00  0.00    +0.121 A 
ATOM      8  C   UNL     1       9.771   6.505  23.711  0.00  0.00    +0.045 A 
ATOM      9  C   UNL     1       8.410   6.207  23.652  0.00  0.00    +0.004 A 
ATOM     10  C   UNL     1       7.979   4.876  23.659  0.00  0.00    +0.009 A 
ATOM     11  C   UNL     1       8.898   3.817  23.706  0.00  0.00    -0.014 A 
ATOM     12  C   UNL     1      10.267   4.153  23.787  0.00  0.00    +0.054 A 
BRANCH   7  13
ATOM     13  O   UNL     1      12.019   5.882  23.840  0.00  0.00    -0.492 OA
BRANCH  13  15
ATOM     14  C   UNL     1      13.506   5.845  21.962  0.00  0.00    +0.048 C 
ATOM     15  C   UNL     1      12.966   5.067  23.148  0.00  0.00    +0.225 C 
ENDBRANCH  13  15
ENDBRANCH   7  13
ENDBRANCH   1  11
BRANCH   4  16
ATOM     16  N   UNL     1       6.939  -1.596  23.643  0.00  0.00    -0.281 N 
ATOM     17  H   UNL     1       6.191  -1.744  24.310  0.00  0.00    +0.155 HD
ATOM     18  C   UNL     1       7.425  -2.657  22.912  0.00  0.00    +0.262 C 
ATOM     19  O   UNL     1       8.446  -2.605  22.220  0.00  0.00    -0.269 OA
BRANCH  18  20
ATOM     20  C   UNL     1       6.707  -3.963  22.984  0.00  0.00    +0.150 C 
ATOM     21  C   UNL     1       6.370  -4.455  24.209  0.00  0.00    +0.113 C 
ATOM     22  C   UNL     1       5.635  -5.750  24.459  0.00  0.00    +0.087 C 
BRANCH  21  23
ATOM     23  O   UNL     1       6.651  -3.817  25.408  0.00  0.00    -0.510 OA
ATOM     24  H   UNL     1       6.874  -2.873  25.234  0.00  0.00    +0.292 HD
ENDBRANCH  21  23
BRANCH  20  25
ATOM     25  C   UNL     1       6.313  -4.786  21.769  0.00  0.00    +0.108 C 
ATOM     26  N   UNL     1       5.985  -5.469  20.761  0.00  0.00    -0.191 NA
ENDBRANCH  20  25
ENDBRANCH  18  20
ENDBRANCH   4  16
TORSDOF 7
ENDMDL
MODEL 6
REMARK VINA RESULT:      -6.3      2.811      9.196
REMARK  Name = 
REMARK  9 active torsions:
REMARK  status: ('A' for Active; 'I' for Inactive)
REMARK    1  A    between atoms: C_1  and  C_2
REMARK    2  A    between atoms: C_2  and  O_3
REMARK    3  A    between atoms: O_3  and  C_4
REMARK    4  A    between atoms: C_6  and  C_10
REMARK    5  A    between atoms: C_13  and  N_14
REMARK    6  A    between atoms: C_15  and  C_17
REMARK    7  A    between atoms: C_17  and  C_18
REMARK    8  A    between atoms: C_20  and  C_21
REMARK    9  A    between atoms: C_20  and  O_22
REMARK                            x       y       z     vdW  Elec       q    Type
REMARK                         _______ _______ _______ _____ _____    ______ ____
ROOT
ATOM      1  C   UNL     1       7.332  -1.997  22.937  0.00  0.00    -0.018 A 
ATOM      2  C   UNL     1       8.433  -1.632  22.144  0.00  0.00    +0.010 A 
ATOM      3  C   UNL     1       8.954  -0.325  22.152  0.00  0.00    +0.024 A 
ATOM      4  C   UNL     1       8.392   0.659  22.967  0.00  0.00    +0.034 A 
ATOM      5  C   UNL     1       7.320   0.295  23.785  0.00  0.00    +0.024 A 
ATOM      6  C   UNL     1       6.814  -1.008  23.784  0.00  0.00    +0.010 A 
ENDROOT
BRANCH   1  11
ATOM      7  C   UNL     1       4.626  -4.676  22.863  0.00  0.00    +0.121 A 
ATOM      8  C   UNL     1       5.352  -5.791  22.451  0.00  0.00    +0.045 A 
ATOM      9  C   UNL     1       6.729  -5.696  22.247  0.00  0.00    +0.004 A 
ATOM     10  C   UNL     1       7.387  -4.478  22.442  0.00  0.00    +0.009 A 
ATOM     11  C   UNL     1       6.683  -3.327  22.827  0.00  0.00    -0.014 A 
ATOM     12  C   UNL     1       5.294  -3.462  23.046  0.00  0.00    +0.054 A 
BRANCH   7  13
ATOM     13  O   UNL     1       3.282  -4.879  23.033  0.00  0.00    -0.492 OA
BRANCH  13  15
ATOM     14  C   UNL     1       1.322  -6.253  23.161  0.00  0.00    +0.048 C 
ATOM     15  C   UNL     1       2.827  -6.232  22.972  0.00  0.00    +0.225 C 
ENDBRANCH  13  15
ENDBRANCH   7  13
ENDBRANCH   1  11
BRANCH   4  16
ATOM     16  N   UNL     1       8.915   1.980  22.899  0.00  0.00    -0.281 N 
ATOM     17  H   UNL     1       8.505   2.582  22.195  0.00  0.00    +0.155 HD
ATOM     18  C   UNL     1       9.950   2.444  23.679  0.00  0.00    +0.262 C 
ATOM     19  O   UNL     1      10.623   1.728  24.426  0.00  0.00    -0.269 OA
BRANCH  18  20
ATOM     20  C   UNL     1      10.317   3.888  23.595  0.00  0.00    +0.150 C 
ATOM     21  C   UNL     1       9.337   4.820  23.760  0.00  0.00    +0.113 C 
ATOM     22  C   UNL     1       9.537   6.316  23.716  0.00  0.00    +0.087 C 
BRANCH  21  23
ATOM     23  O   UNL     1       8.006   4.515  24.004  0.00  0.00    -0.510 OA
ATOM     24  H   UNL     1       7.952   3.720  24.583  0.00  0.00    +0.292 HD
ENDBRANCH  21  23
BRANCH  20  25
ATOM     25  C   UNL     1      11.728   4.396  23.346  0.00  0.00    +0.108 C 
ATOM     26  N   UNL     1      12.898   4.817  23.139  0.00  0.00    -0.191 NA
ENDBRANCH  20  25
ENDBRANCH  18  20
ENDBRANCH   4  16
TORSDOF 7
ENDMDL
MODEL 7
REMARK VINA RESULT:      -6.3      2.358      3.215
REMARK  Name = 
REMARK  9 active torsions:
REMARK  status: ('A' for Active; 'I' for Inactive)
REMARK    1  A    between atoms: C_1  and  C_2
REMARK    2  A    between atoms: C_2  and  O_3
REMARK    3  A    between atoms: O_3  and  C_4
REMARK    4  A    between atoms: C_6  and  C_10
REMARK    5  A    between atoms: C_13  and  N_14
REMARK    6  A    between atoms: C_15  and  C_17
REMARK    7  A    between atoms: C_17  and  C_18
REMARK    8  A    between atoms: C_20  and  C_21
REMARK    9  A    between atoms: C_20  and  O_22
REMARK                            x       y       z     vdW  Elec       q    Type
REMARK                         _______ _______ _______ _____ _____    ______ ____
ROOT
ATOM      1  C   UNL     1       8.562   1.046  24.436  0.00  0.00    -0.018 A 
ATOM      2  C   UNL     1       9.229  -0.005  25.089  0.00  0.00    +0.010 A 
ATOM      3  C   UNL     1       8.620  -1.255  25.298  0.00  0.00    +0.024 A 
ATOM      4  C   UNL     1       7.321  -1.498  24.848  0.00  0.00    +0.034 A 
ATOM      5  C   UNL     1       6.665  -0.471  24.166  0.00  0.00    +0.024 A 
ATOM      6  C   UNL     1       7.278   0.766  23.949  0.00  0.00    +0.010 A 
ENDROOT
BRANCH   1  11
ATOM      7  C   UNL     1      10.945   3.885  23.564  0.00  0.00    +0.121 A 
ATOM      8  C   UNL     1      10.207   4.997  23.961  0.00  0.00    +0.045 A 
ATOM      9  C   UNL     1       8.959   4.834  24.561  0.00  0.00    +0.004 A 
ATOM     10  C   UNL     1       8.434   3.552  24.756  0.00  0.00    +0.009 A 
ATOM     11  C   UNL     1       9.136   2.411  24.341  0.00  0.00    -0.014 A 
ATOM     12  C   UNL     1      10.407   2.610  23.757  0.00  0.00    +0.054 A 
BRANCH   7  13
ATOM     13  O   UNL     1      12.157   4.158  22.985  0.00  0.00    -0.492 OA
BRANCH  13  15
ATOM     14  C   UNL     1      13.485   5.869  21.959  0.00  0.00    +0.048 C 
ATOM     15  C   UNL     1      12.676   5.475  23.180  0.00  0.00    +0.225 C 
ENDBRANCH  13  15
ENDBRANCH   7  13
ENDBRANCH   1  11
BRANCH   4  16
ATOM     16  N   UNL     1       6.725  -2.758  25.133  0.00  0.00    -0.281 N 
ATOM     17  H   UNL     1       6.391  -2.884  26.081  0.00  0.00    +0.155 HD
ATOM     18  C   UNL     1       6.636  -3.793  24.230  0.00  0.00    +0.262 C 
ATOM     19  O   UNL     1       7.178  -3.789  23.121  0.00  0.00    -0.269 OA
BRANCH  18  20
ATOM     20  C   UNL     1       5.874  -5.016  24.619  0.00  0.00    +0.150 C 
ATOM     21  C   UNL     1       4.966  -5.526  23.740  0.00  0.00    +0.113 C 
ATOM     22  C   UNL     1       4.122  -6.757  23.969  0.00  0.00    +0.087 C 
BRANCH  21  23
ATOM     23  O   UNL     1       4.698  -4.979  22.493  0.00  0.00    -0.510 OA
ATOM     24  H   UNL     1       4.074  -5.564  22.005  0.00  0.00    +0.292 HD
ENDBRANCH  21  23
BRANCH  20  25
ATOM     25  C   UNL     1       6.052  -5.747  25.940  0.00  0.00    +0.108 C 
ATOM     26  N   UNL     1       6.199  -6.353  27.036  0.00  0.00    -0.191 NA
ENDBRANCH  20  25
ENDBRANCH  18  20
ENDBRANCH   4  16
TORSDOF 7
ENDMDL
MODEL 8
REMARK VINA RESULT:      -6.2      2.156      3.154
REMARK  Name = 
REMARK  9 active torsions:
REMARK  status: ('A' for Active; 'I' for Inactive)
REMARK    1  A    between atoms: C_1  and  C_2
REMARK    2  A    between atoms: C_2  and  O_3
REMARK    3  A    between atoms: O_3  and  C_4
REMARK    4  A    between atoms: C_6  and  C_10
REMARK    5  A    between atoms: C_13  and  N_14
REMARK    6  A    between atoms: C_15  and  C_17
REMARK    7  A    between atoms: C_17  and  C_18
REMARK    8  A    between atoms: C_20  and  C_21
REMARK    9  A    between atoms: C_20  and  O_22
REMARK                            x       y       z     vdW  Elec       q    Type
REMARK                         _______ _______ _______ _____ _____    ______ ____
ROOT
ATOM      1  C   UNL     1       8.339   2.656  23.668  0.00  0.00    -0.018 A 
ATOM      2  C   UNL     1       7.235   2.334  22.860  0.00  0.00    +0.010 A 
ATOM      3  C   UNL     1       6.861   1.001  22.613  0.00  0.00    +0.024 A 
ATOM      4  C   UNL     1       7.576  -0.055  23.178  0.00  0.00    +0.034 A 
ATOM      5  C   UNL     1       8.652   0.257  24.011  0.00  0.00    +0.024 A 
ATOM      6  C   UNL     1       9.014   1.583  24.265  0.00  0.00    +0.010 A 
ENDROOT
BRANCH   1  11
ATOM      7  C   UNL     1      10.728   5.613  23.903  0.00  0.00    +0.121 A 
ATOM      8  C   UNL     1       9.841   6.686  23.909  0.00  0.00    +0.045 A 
ATOM      9  C   UNL     1       8.465   6.458  23.891  0.00  0.00    +0.004 A 
ATOM     10  C   UNL     1       7.967   5.152  23.854  0.00  0.00    +0.009 A 
ATOM     11  C   UNL     1       8.832   4.048  23.816  0.00  0.00    -0.014 A 
ATOM     12  C   UNL     1      10.219   4.312  23.858  0.00  0.00    +0.054 A 
BRANCH   7  13
ATOM     13  O   UNL     1      12.057   5.948  23.921  0.00  0.00    -0.492 OA
BRANCH  13  15
ATOM     14  C   UNL     1      13.380   5.753  21.933  0.00  0.00    +0.048 C 
ATOM     15  C   UNL     1      12.945   5.077  23.219  0.00  0.00    +0.225 C 
ENDBRANCH  13  15
ENDBRANCH   7  13
ENDBRANCH   1  11
BRANCH   4  16
ATOM     16  N   UNL     1       7.196  -1.387  22.852  0.00  0.00    -0.281 N 
ATOM     17  H   UNL     1       7.559  -1.750  21.979  0.00  0.00    +0.155 HD
ATOM     18  C   UNL     1       6.345  -2.157  23.613  0.00  0.00    +0.262 C 
ATOM     19  O   UNL     1       5.717  -1.731  24.587  0.00  0.00    -0.269 OA
BRANCH  18  20
ATOM     20  C   UNL     1       6.129  -3.581  23.223  0.00  0.00    +0.150 C 
ATOM     21  C   UNL     1       7.218  -4.362  22.978  0.00  0.00    +0.113 C 
ATOM     22  C   UNL     1       7.179  -5.820  22.586  0.00  0.00    +0.087 C 
BRANCH  21  23
ATOM     23  O   UNL     1       8.529  -3.919  23.067  0.00  0.00    -0.510 OA
ATOM     24  H   UNL     1       8.906  -3.822  22.161  0.00  0.00    +0.292 HD
ENDBRANCH  21  23
BRANCH  20  25
ATOM     25  C   UNL     1       4.761  -4.231  23.091  0.00  0.00    +0.108 C 
ATOM     26  N   UNL     1       3.626  -4.769  22.981  0.00  0.00    -0.191 NA
ENDBRANCH  20  25
ENDBRANCH  18  20
ENDBRANCH   4  16
TORSDOF 7
ENDMDL
MODEL 9
REMARK VINA RESULT:      -6.0      2.960      9.127
REMARK  Name = 
REMARK  9 active torsions:
REMARK  status: ('A' for Active; 'I' for Inactive)
REMARK    1  A    between atoms: C_1  and  C_2
REMARK    2  A    between atoms: C_2  and  O_3
REMARK    3  A    between atoms: O_3  and  C_4
REMARK    4  A    between atoms: C_6  and  C_10
REMARK    5  A    between atoms: C_13  and  N_14
REMARK    6  A    between atoms: C_15  and  C_17
REMARK    7  A    between atoms: C_17  and  C_18
REMARK    8  A    between atoms: C_20  and  C_21
REMARK    9  A    between atoms: C_20  and  O_22
REMARK                            x       y       z     vdW  Elec       q    Type
REMARK                         _______ _______ _______ _____ _____    ______ ____
ROOT
ATOM      1  C   UNL     1       7.631  -1.825  25.159  0.00  0.00    -0.018 A 
ATOM      2  C   UNL     1       6.902  -0.850  24.457  0.00  0.00    +0.010 A 
ATOM      3  C   UNL     1       7.384   0.461  24.291  0.00  0.00    +0.024 A 
ATOM      4  C   UNL     1       8.621   0.836  24.816  0.00  0.00    +0.034 A 
ATOM      5  C   UNL     1       9.367  -0.136  25.485  0.00  0.00    +0.024 A 
ATOM      6  C   UNL     1       8.892  -1.442  25.637  0.00  0.00    +0.010 A 
ENDROOT
BRANCH   1  11
ATOM      7  C   UNL     1       5.932  -5.200  24.689  0.00  0.00    +0.121 A 
ATOM      8  C   UNL     1       6.141  -5.791  25.932  0.00  0.00    +0.045 A 
ATOM      9  C   UNL     1       6.786  -5.083  26.946  0.00  0.00    +0.004 A 
ATOM     10  C   UNL     1       7.237  -3.779  26.717  0.00  0.00    +0.009 A 
ATOM     11  C   UNL     1       7.070  -3.163  25.468  0.00  0.00    -0.014 A 
ATOM     12  C   UNL     1       6.394  -3.899  24.469  0.00  0.00    +0.054 A 
BRANCH   7  13
ATOM     13  O   UNL     1       5.291  -5.984  23.765  0.00  0.00    -0.492 OA
BRANCH  13  15
ATOM     14  C   UNL     1       6.659  -6.196  21.809  0.00  0.00    +0.048 C 
ATOM     15  C   UNL     1       5.403  -5.582  22.399  0.00  0.00    +0.225 C 
ENDBRANCH  13  15
ENDBRANCH   7  13
ENDBRANCH   1  11
BRANCH   4  16
ATOM     16  N   UNL     1       9.041   2.188  24.674  0.00  0.00    -0.281 N 
ATOM     17  H   UNL     1       8.743   2.822  25.406  0.00  0.00    +0.155 HD
ATOM     18  C   UNL     1       9.758   2.667  23.601  0.00  0.00    +0.262 C 
ATOM     19  O   UNL     1      10.001   2.008  22.586  0.00  0.00    -0.269 OA
BRANCH  18  20
ATOM     20  C   UNL     1      10.242   4.078  23.638  0.00  0.00    +0.150 C 
ATOM     21  C   UNL     1       9.336   5.072  23.857  0.00  0.00    +0.113 C 
ATOM     22  C   UNL     1       9.657   6.546  23.936  0.00  0.00    +0.087 C 
BRANCH  21  23
ATOM     23  O   UNL     1       7.979   4.860  24.051  0.00  0.00    -0.510 OA
ATOM     24  H   UNL     1       7.479   5.668  23.791  0.00  0.00    +0.292 HD
ENDBRANCH  21  23
BRANCH  20  25
ATOM     25  C   UNL     1      11.695   4.486  23.456  0.00  0.00    +0.108 C 
ATOM     26  N   UNL     1      12.900   4.824  23.305  0.00  0.00    -0.191 NA
ENDBRANCH  20  25
ENDBRANCH  18  20
ENDBRANCH   4  16
TORSDOF 7
ENDMDL
