MODEL 1
REMARK VINA RESULT:      -4.5      0.000      0.000
REMARK  Name = 
REMARK  8 active torsions:
REMARK  status: ('A' for Active; 'I' for Inactive)
REMARK    1  A    between atoms: O_1  and  C_2
REMARK    2  A    between atoms: C_2  and  C_4
REMARK    3  A    between atoms: C_4  and  C_5
REMARK    4  A    between atoms: C_5  and  C_7
REMARK    5  A    between atoms: C_5  and  C_10
REMARK    6  A    between atoms: C_7  and  O_8
REMARK    7  A    between atoms: C_10  and  C_12
REMARK    8  A    between atoms: C_12  and  O_13
REMARK                            x       y       z     vdW  Elec       q    Type
REMARK                         _______ _______ _______ _____ _____    ______ ____
ROOT
ATOM      1  C   UNL     1       9.770  -0.548  23.705  0.00  0.00    +0.186 C 
ENDROOT
BRANCH   1   2
ATOM      2  C   UNL     1       9.476   0.501  22.665  0.00  0.00    +0.253 C 
ATOM      3  O   UNL     1       8.720   0.387  21.706  0.00  0.00    -0.284 OA
BRANCH   2   4
ATOM      4  C   UNL     1      10.149   1.852  22.854  0.00  0.00    +0.373 C 
ATOM      5  O   UNL     1      10.431   2.270  23.963  0.00  0.00    -0.242 OA
BRANCH   4   6
ATOM      6  O   UNL     1      10.349   2.473  21.685  0.00  0.00    -0.475 OA
ATOM      7  H   UNL     1      11.187   2.155  21.268  0.00  0.00    +0.295 HD
ENDBRANCH   4   6
ENDBRANCH   2   4
ENDBRANCH   1   2
BRANCH   1   8
ATOM      8  C   UNL     1      10.187  -1.852  23.078  0.00  0.00    +0.316 C 
ATOM      9  O   UNL     1      10.250  -2.894  23.722  0.00  0.00    -0.250 OA
BRANCH   8  10
ATOM     10  O   UNL     1      10.524  -1.797  21.778  0.00  0.00    -0.480 OA
ATOM     11  H   UNL     1      10.344  -2.600  21.233  0.00  0.00    +0.295 HD
ENDBRANCH   8  10
ENDBRANCH   1   8
BRANCH   1  12
ATOM     12  C   UNL     1       8.514  -0.785  24.551  0.00  0.00    +0.143 C 
BRANCH  12  13
ATOM     13  C   UNL     1       8.682  -0.249  25.946  0.00  0.00    +0.306 C 
ATOM     14  O   UNL     1       8.935  -0.961  26.905  0.00  0.00    -0.251 OA
BRANCH  13  15
ATOM     15  O   UNL     1       8.479   1.079  26.061  0.00  0.00    -0.481 OA
ATOM     16  H   UNL     1       7.689   1.334  26.595  0.00  0.00    +0.295 HD
ENDBRANCH  13  15
ENDBRANCH  12  13
ENDBRANCH   1  12
TORSDOF 8
ENDMDL
MODEL 2
REMARK VINA RESULT:      -4.5      1.536      4.219
REMARK  Name = 
REMARK  8 active torsions:
REMARK  status: ('A' for Active; 'I' for Inactive)
REMARK    1  A    between atoms: O_1  and  C_2
REMARK    2  A    between atoms: C_2  and  C_4
REMARK    3  A    between atoms: C_4  and  C_5
REMARK    4  A    between atoms: C_5  and  C_7
REMARK    5  A    between atoms: C_5  and  C_10
REMARK    6  A    between atoms: C_7  and  O_8
REMARK    7  A    between atoms: C_10  and  C_12
REMARK    8  A    between atoms: C_12  and  O_13
REMARK                            x       y       z     vdW  Elec       q    Type
REMARK                         _______ _______ _______ _____ _____    ______ ____
ROOT
ATOM      1  C   UNL     1       9.514   0.444  23.332  0.00  0.00    +0.186 C 
ENDROOT
BRANCH   1   2
ATOM      2  C   UNL     1       9.219  -0.947  23.830  0.00  0.00    +0.253 C 
ATOM      3  O   UNL     1       8.375  -1.261  24.664  0.00  0.00    -0.284 OA
BRANCH   2   4
ATOM      4  C   UNL     1      10.016  -2.077  23.198  0.00  0.00    +0.373 C 
ATOM      5  O   UNL     1      10.244  -3.110  23.804  0.00  0.00    -0.242 OA
BRANCH   4   6
ATOM      6  O   UNL     1      10.417  -1.768  21.958  0.00  0.00    -0.475 OA
ATOM      7  H   UNL     1       9.689  -1.940  21.311  0.00  0.00    +0.295 HD
ENDBRANCH   4   6
ENDBRANCH   2   4
ENDBRANCH   1   2
BRANCH   1   8
ATOM      8  C   UNL     1      10.454   1.176  24.252  0.00  0.00    +0.316 C 
ATOM      9  O   UNL     1      11.003   2.223  23.924  0.00  0.00    -0.250 OA
BRANCH   8  10
ATOM     10  O   UNL     1      10.687   0.592  25.440  0.00  0.00    -0.480 OA
ATOM     11  H   UNL     1       9.995   0.699  26.137  0.00  0.00    +0.295 HD
ENDBRANCH   8  10
ENDBRANCH   1   8
BRANCH   1  12
ATOM     12  C   UNL     1       8.203   1.232  23.235  0.00  0.00    +0.143 C 
BRANCH  12  13
ATOM     13  C   UNL     1       8.164   2.084  21.996  0.00  0.00    +0.306 C 
ATOM     14  O   UNL     1       7.165   2.684  21.634  0.00  0.00    -0.251 OA
BRANCH  13  15
ATOM     15  O   UNL     1       9.312   2.091  21.289  0.00  0.00    -0.481 OA
ATOM     16  H   UNL     1       9.485   1.270  20.769  0.00  0.00    +0.295 HD
ENDBRANCH  13  15
ENDBRANCH  12  13
ENDBRANCH   1  12
TORSDOF 8
ENDMDL
MODEL 3
REMARK VINA RESULT:      -4.4      5.783      7.097
REMARK  Name = 
REMARK  8 active torsions:
REMARK  status: ('A' for Active; 'I' for Inactive)
REMARK    1  A    between atoms: O_1  and  C_2
REMARK    2  A    between atoms: C_2  and  C_4
REMARK    3  A    between atoms: C_4  and  C_5
REMARK    4  A    between atoms: C_5  and  C_7
REMARK    5  A    between atoms: C_5  and  C_10
REMARK    6  A    between atoms: C_7  and  O_8
REMARK    7  A    between atoms: C_10  and  C_12
REMARK    8  A    between atoms: C_12  and  O_13
REMARK                            x       y       z     vdW  Elec       q    Type
REMARK                         _______ _______ _______ _____ _____    ______ ____
ROOT
ATOM      1  C   UNL     1       5.802  -5.945  23.948  0.00  0.00    +0.186 C 
ENDROOT
BRANCH   1   2
ATOM      2  C   UNL     1       5.141  -5.146  22.854  0.00  0.00    +0.253 C 
ATOM      3  O   UNL     1       3.965  -4.799  22.812  0.00  0.00    -0.284 OA
BRANCH   2   4
ATOM      4  C   UNL     1       6.036  -4.685  21.715  0.00  0.00    +0.373 C 
ATOM      5  O   UNL     1       5.742  -3.724  21.026  0.00  0.00    -0.242 OA
BRANCH   4   6
ATOM      6  O   UNL     1       7.117  -5.466  21.587  0.00  0.00    -0.475 OA
ATOM      7  H   UNL     1       7.673  -5.158  20.830  0.00  0.00    +0.295 HD
ENDBRANCH   4   6
ENDBRANCH   2   4
ENDBRANCH   1   2
BRANCH   1   8
ATOM      8  C   UNL     1       4.808  -6.794  24.694  0.00  0.00    +0.316 C 
ATOM      9  O   UNL     1       4.758  -6.814  25.920  0.00  0.00    -0.250 OA
BRANCH   8  10
ATOM     10  O   UNL     1       4.004  -7.560  23.937  0.00  0.00    -0.480 OA
ATOM     11  H   UNL     1       3.034  -7.382  23.989  0.00  0.00    +0.295 HD
ENDBRANCH   8  10
ENDBRANCH   1   8
BRANCH   1  12
ATOM     12  C   UNL     1       6.474  -4.986  24.936  0.00  0.00    +0.143 C 
BRANCH  12  13
ATOM     13  C   UNL     1       7.939  -5.288  25.086  0.00  0.00    +0.306 C 
ATOM     14  O   UNL     1       8.743  -5.142  24.179  0.00  0.00    -0.251 OA
BRANCH  13  15
ATOM     15  O   UNL     1       8.286  -5.785  26.290  0.00  0.00    -0.481 OA
ATOM     16  H   UNL     1       9.245  -5.988  26.396  0.00  0.00    +0.295 HD
ENDBRANCH  13  15
ENDBRANCH  12  13
ENDBRANCH   1  12
TORSDOF 8
ENDMDL
MODEL 4
REMARK VINA RESULT:      -4.4      4.819      6.259
REMARK  Name = 
REMARK  8 active torsions:
REMARK  status: ('A' for Active; 'I' for Inactive)
REMARK    1  A    between atoms: O_1  and  C_2
REMARK    2  A    between atoms: C_2  and  C_4
REMARK    3  A    between atoms: C_4  and  C_5
REMARK    4  A    between atoms: C_5  and  C_7
REMARK    5  A    between atoms: C_5  and  C_10
REMARK    6  A    between atoms: C_7  and  O_8
REMARK    7  A    between atoms: C_10  and  C_12
REMARK    8  A    between atoms: C_12  and  O_13
REMARK                            x       y       z     vdW  Elec       q    Type
REMARK                         _______ _______ _______ _____ _____    ______ ____
ROOT
ATOM      1  C   UNL     1       7.346  -4.708  24.245  0.00  0.00    +0.186 C 
ENDROOT
BRANCH   1   2
ATOM      2  C   UNL     1       6.904  -5.346  22.954  0.00  0.00    +0.253 C 
ATOM      3  O   UNL     1       7.588  -6.046  22.214  0.00  0.00    -0.284 OA
BRANCH   2   4
ATOM      4  C   UNL     1       5.452  -5.136  22.554  0.00  0.00    +0.373 C 
ATOM      5  O   UNL     1       5.014  -4.024  22.314  0.00  0.00    -0.242 OA
BRANCH   4   6
ATOM      6  O   UNL     1       4.774  -6.290  22.531  0.00  0.00    -0.475 OA
ATOM      7  H   UNL     1       3.801  -6.114  22.550  0.00  0.00    +0.295 HD
ENDBRANCH   4   6
ENDBRANCH   2   4
ENDBRANCH   1   2
BRANCH   1   8
ATOM      8  C   UNL     1       8.845  -4.704  24.380  0.00  0.00    +0.316 C 
ATOM      9  O   UNL     1       9.506  -3.677  24.265  0.00  0.00    -0.250 OA
BRANCH   8  10
ATOM     10  O   UNL     1       9.419  -5.900  24.593  0.00  0.00    -0.480 OA
ATOM     11  H   UNL     1       9.178  -6.631  23.974  0.00  0.00    +0.295 HD
ENDBRANCH   8  10
ENDBRANCH   1   8
BRANCH   1  12
ATOM     12  C   UNL     1       6.746  -5.486  25.421  0.00  0.00    +0.143 C 
BRANCH  12  13
ATOM     13  C   UNL     1       7.202  -4.928  26.741  0.00  0.00    +0.306 C 
ATOM     14  O   UNL     1       6.929  -3.798  27.113  0.00  0.00    -0.251 OA
BRANCH  13  15
ATOM     15  O   UNL     1       7.983  -5.760  27.458  0.00  0.00    -0.481 OA
ATOM     16  H   UNL     1       7.892  -5.676  28.437  0.00  0.00    +0.295 HD
ENDBRANCH  13  15
ENDBRANCH  12  13
ENDBRANCH   1  12
TORSDOF 8
ENDMDL
MODEL 5
REMARK VINA RESULT:      -4.3      4.166      6.145
REMARK  Name = 
REMARK  8 active torsions:
REMARK  status: ('A' for Active; 'I' for Inactive)
REMARK    1  A    between atoms: O_1  and  C_2
REMARK    2  A    between atoms: C_2  and  C_4
REMARK    3  A    between atoms: C_4  and  C_5
REMARK    4  A    between atoms: C_5  and  C_7
REMARK    5  A    between atoms: C_5  and  C_10
REMARK    6  A    between atoms: C_7  and  O_8
REMARK    7  A    between atoms: C_10  and  C_12
REMARK    8  A    between atoms: C_12  and  O_13
REMARK                            x       y       z     vdW  Elec       q    Type
REMARK                         _______ _______ _______ _____ _____    ______ ____
ROOT
ATOM      1  C   UNL     1       7.545  -4.111  22.658  0.00  0.00    +0.186 C 
ENDROOT
BRANCH   1   2
ATOM      2  C   UNL     1       6.180  -4.446  22.115  0.00  0.00    +0.253 C 
ATOM      3  O   UNL     1       5.151  -3.796  22.274  0.00  0.00    -0.284 OA
BRANCH   2   4
ATOM      4  C   UNL     1       6.080  -5.689  21.246  0.00  0.00    +0.373 C 
ATOM      5  O   UNL     1       5.997  -5.610  20.032  0.00  0.00    -0.242 OA
BRANCH   4   6
ATOM      6  O   UNL     1       6.078  -6.809  21.981  0.00  0.00    -0.475 OA
ATOM      7  H   UNL     1       5.289  -7.361  21.759  0.00  0.00    +0.295 HD
ENDBRANCH   4   6
ENDBRANCH   2   4
ENDBRANCH   1   2
BRANCH   1   8
ATOM      8  C   UNL     1       7.837  -4.861  23.930  0.00  0.00    +0.316 C 
ATOM      9  O   UNL     1       8.983  -5.103  24.296  0.00  0.00    -0.250 OA
BRANCH   8  10
ATOM     10  O   UNL     1       6.765  -5.283  24.622  0.00  0.00    -0.480 OA
ATOM     11  H   UNL     1       6.661  -4.941  25.543  0.00  0.00    +0.295 HD
ENDBRANCH   8  10
ENDBRANCH   1   8
BRANCH   1  12
ATOM     12  C   UNL     1       7.619  -2.607  22.940  0.00  0.00    +0.143 C 
BRANCH  12  13
ATOM     13  C   UNL     1       8.954  -2.039  22.544  0.00  0.00    +0.306 C 
ATOM     14  O   UNL     1       9.129  -1.418  21.507  0.00  0.00    -0.251 OA
BRANCH  13  15
ATOM     15  O   UNL     1       9.955  -2.314  23.403  0.00  0.00    -0.481 OA
ATOM     16  H   UNL     1       9.681  -2.402  24.347  0.00  0.00    +0.295 HD
ENDBRANCH  13  15
ENDBRANCH  12  13
ENDBRANCH   1  12
TORSDOF 8
ENDMDL
MODEL 6
REMARK VINA RESULT:      -4.3      3.554      4.999
REMARK  Name = 
REMARK  8 active torsions:
REMARK  status: ('A' for Active; 'I' for Inactive)
REMARK    1  A    between atoms: O_1  and  C_2
REMARK    2  A    between atoms: C_2  and  C_4
REMARK    3  A    between atoms: C_4  and  C_5
REMARK    4  A    between atoms: C_5  and  C_7
REMARK    5  A    between atoms: C_5  and  C_10
REMARK    6  A    between atoms: C_7  and  O_8
REMARK    7  A    between atoms: C_10  and  C_12
REMARK    8  A    between atoms: C_12  and  O_13
REMARK                            x       y       z     vdW  Elec       q    Type
REMARK                         _______ _______ _______ _____ _____    ______ ____
ROOT
ATOM      1  C   UNL     1       7.875  -4.009  23.744  0.00  0.00    +0.186 C 
ENDROOT
BRANCH   1   2
ATOM      2  C   UNL     1       8.990  -3.033  23.469  0.00  0.00    +0.253 C 
ATOM      3  O   UNL     1      10.120  -3.063  23.944  0.00  0.00    -0.284 OA
BRANCH   2   4
ATOM      4  C   UNL     1       8.694  -1.929  22.467  0.00  0.00    +0.373 C 
ATOM      5  O   UNL     1       7.651  -1.300  22.505  0.00  0.00    -0.242 OA
BRANCH   4   6
ATOM      6  O   UNL     1       9.688  -1.785  21.582  0.00  0.00    -0.475 OA
ATOM      7  H   UNL     1       9.933  -0.831  21.497  0.00  0.00    +0.295 HD
ENDBRANCH   4   6
ENDBRANCH   2   4
ENDBRANCH   1   2
BRANCH   1   8
ATOM      8  C   UNL     1       8.303  -5.085  24.707  0.00  0.00    +0.316 C 
ATOM      9  O   UNL     1       7.672  -5.333  25.729  0.00  0.00    -0.250 OA
BRANCH   8  10
ATOM     10  O   UNL     1       9.440  -5.731  24.398  0.00  0.00    -0.480 OA
ATOM     11  H   UNL     1       9.886  -6.228  25.126  0.00  0.00    +0.295 HD
ENDBRANCH   8  10
ENDBRANCH   1   8
BRANCH   1  12
ATOM     12  C   UNL     1       7.445  -4.665  22.428  0.00  0.00    +0.143 C 
BRANCH  12  13
ATOM     13  C   UNL     1       5.957  -4.574  22.229  0.00  0.00    +0.306 C 
ATOM     14  O   UNL     1       5.196  -5.496  22.478  0.00  0.00    -0.251 OA
BRANCH  13  15
ATOM     15  O   UNL     1       5.535  -3.407  21.704  0.00  0.00    -0.481 OA
ATOM     16  H   UNL     1       5.834  -2.600  22.188  0.00  0.00    +0.295 HD
ENDBRANCH  13  15
ENDBRANCH  12  13
ENDBRANCH   1  12
TORSDOF 8
ENDMDL
MODEL 7
REMARK VINA RESULT:      -4.3      1.465      3.296
REMARK  Name = 
REMARK  8 active torsions:
REMARK  status: ('A' for Active; 'I' for Inactive)
REMARK    1  A    between atoms: O_1  and  C_2
REMARK    2  A    between atoms: C_2  and  C_4
REMARK    3  A    between atoms: C_4  and  C_5
REMARK    4  A    between atoms: C_5  and  C_7
REMARK    5  A    between atoms: C_5  and  C_10
REMARK    6  A    between atoms: C_7  and  O_8
REMARK    7  A    between atoms: C_10  and  C_12
REMARK    8  A    between atoms: C_12  and  O_13
REMARK                            x       y       z     vdW  Elec       q    Type
REMARK                         _______ _______ _______ _____ _____    ______ ____
ROOT
ATOM      1  C   UNL     1       8.772   0.235  22.911  0.00  0.00    +0.186 C 
ENDROOT
BRANCH   1   2
ATOM      2  C   UNL     1       9.404   1.375  23.666  0.00  0.00    +0.253 C 
ATOM      3  O   UNL     1       9.319   1.589  24.871  0.00  0.00    -0.284 OA
BRANCH   2   4
ATOM      4  C   UNL     1      10.272   2.327  22.858  0.00  0.00    +0.373 C 
ATOM      5  O   UNL     1      11.063   3.080  23.399  0.00  0.00    -0.242 OA
BRANCH   4   6
ATOM      6  O   UNL     1      10.029   2.225  21.545  0.00  0.00    -0.475 OA
ATOM      7  H   UNL     1       9.582   3.043  21.216  0.00  0.00    +0.295 HD
ENDBRANCH   4   6
ENDBRANCH   2   4
ENDBRANCH   1   2
BRANCH   1   8
ATOM      8  C   UNL     1       7.320   0.501  22.615  0.00  0.00    +0.316 C 
ATOM      9  O   UNL     1       6.939   1.555  22.116  0.00  0.00    -0.250 OA
BRANCH   8  10
ATOM     10  O   UNL     1       6.462  -0.471  22.966  0.00  0.00    -0.480 OA
ATOM     11  H   UNL     1       5.501  -0.242  22.972  0.00  0.00    +0.295 HD
ENDBRANCH   8  10
ENDBRANCH   1   8
BRANCH   1  12
ATOM     12  C   UNL     1       8.881  -1.044  23.747  0.00  0.00    +0.143 C 
BRANCH  12  13
ATOM     13  C   UNL     1       9.892  -1.995  23.169  0.00  0.00    +0.306 C 
ATOM     14  O   UNL     1      10.288  -2.985  23.763  0.00  0.00    -0.251 OA
BRANCH  13  15
ATOM     15  O   UNL     1      10.365  -1.637  21.959  0.00  0.00    -0.481 OA
ATOM     16  H   UNL     1      10.937  -0.833  21.956  0.00  0.00    +0.295 HD
ENDBRANCH  13  15
ENDBRANCH  12  13
ENDBRANCH   1  12
TORSDOF 8
ENDMDL
MODEL 8
REMARK VINA RESULT:      -4.3      3.663      4.847
REMARK  Name = 
REMARK  8 active torsions:
REMARK  status: ('A' for Active; 'I' for Inactive)
REMARK    1  A    between atoms: O_1  and  C_2
REMARK    2  A    between atoms: C_2  and  C_4
REMARK    3  A    between atoms: C_4  and  C_5
REMARK    4  A    between atoms: C_5  and  C_7
REMARK    5  A    between atoms: C_5  and  C_10
REMARK    6  A    between atoms: C_7  and  O_8
REMARK    7  A    between atoms: C_10  and  C_12
REMARK    8  A    between atoms: C_12  and  O_13
REMARK                            x       y       z     vdW  Elec       q    Type
REMARK                         _______ _______ _______ _____ _____    ______ ____
ROOT
ATOM      1  C   UNL     1       7.766  -4.423  23.043  0.00  0.00    +0.186 C 
ENDROOT
BRANCH   1   2
ATOM      2  C   UNL     1       7.689  -2.925  22.907  0.00  0.00    +0.253 C 
ATOM      3  O   UNL     1       6.698  -2.225  23.091  0.00  0.00    -0.284 OA
BRANCH   2   4
ATOM      4  C   UNL     1       8.982  -2.208  22.554  0.00  0.00    +0.373 C 
ATOM      5  O   UNL     1       9.030  -1.396  21.645  0.00  0.00    -0.242 OA
BRANCH   4   6
ATOM      6  O   UNL     1       9.996  -2.601  23.335  0.00  0.00    -0.475 OA
ATOM      7  H   UNL     1      10.259  -3.527  23.112  0.00  0.00    +0.295 HD
ENDBRANCH   4   6
ENDBRANCH   2   4
ENDBRANCH   1   2
BRANCH   1   8
ATOM      8  C   UNL     1       6.808  -5.116  22.111  0.00  0.00    +0.316 C 
ATOM      9  O   UNL     1       6.868  -6.322  21.892  0.00  0.00    -0.250 OA
BRANCH   8  10
ATOM     10  O   UNL     1       5.907  -4.327  21.501  0.00  0.00    -0.480 OA
ATOM     11  H   UNL     1       5.428  -3.672  22.065  0.00  0.00    +0.295 HD
ENDBRANCH   8  10
ENDBRANCH   1   8
BRANCH   1  12
ATOM     12  C   UNL     1       7.426  -4.817  24.484  0.00  0.00    +0.143 C 
BRANCH  12  13
ATOM     13  C   UNL     1       8.652  -5.249  25.240  0.00  0.00    +0.306 C 
ATOM     14  O   UNL     1       9.784  -5.105  24.807  0.00  0.00    -0.251 OA
BRANCH  13  15
ATOM     15  O   UNL     1       8.396  -5.857  26.415  0.00  0.00    -0.481 OA
ATOM     16  H   UNL     1       7.631  -6.480  26.404  0.00  0.00    +0.295 HD
ENDBRANCH  13  15
ENDBRANCH  12  13
ENDBRANCH   1  12
TORSDOF 8
ENDMDL
MODEL 9
REMARK VINA RESULT:      -4.3      4.274      5.862
REMARK  Name = 
REMARK  8 active torsions:
REMARK  status: ('A' for Active; 'I' for Inactive)
REMARK    1  A    between atoms: O_1  and  C_2
REMARK    2  A    between atoms: C_2  and  C_4
REMARK    3  A    between atoms: C_4  and  C_5
REMARK    4  A    between atoms: C_5  and  C_7
REMARK    5  A    between atoms: C_5  and  C_10
REMARK    6  A    between atoms: C_7  and  O_8
REMARK    7  A    between atoms: C_10  and  C_12
REMARK    8  A    between atoms: C_12  and  O_13
REMARK                            x       y       z     vdW  Elec       q    Type
REMARK                         _______ _______ _______ _____ _____    ______ ____
ROOT
ATOM      1  C   UNL     1       7.191  -4.668  25.214  0.00  0.00    +0.186 C 
ENDROOT
BRANCH   1   2
ATOM      2  C   UNL     1       8.619  -4.594  24.738  0.00  0.00    +0.253 C 
ATOM      3  O   UNL     1       9.370  -5.542  24.534  0.00  0.00    -0.284 OA
BRANCH   2   4
ATOM      4  C   UNL     1       9.163  -3.207  24.437  0.00  0.00    +0.373 C 
ATOM      5  O   UNL     1      10.221  -3.054  23.850  0.00  0.00    -0.242 OA
BRANCH   4   6
ATOM      6  O   UNL     1       8.358  -2.246  24.907  0.00  0.00    -0.475 OA
ATOM      7  H   UNL     1       7.443  -2.364  24.553  0.00  0.00    +0.295 HD
ENDBRANCH   4   6
ENDBRANCH   2   4
ENDBRANCH   1   2
BRANCH   1   8
ATOM      8  C   UNL     1       7.040  -5.614  26.375  0.00  0.00    +0.316 C 
ATOM      9  O   UNL     1       6.026  -6.283  26.543  0.00  0.00    -0.250 OA
BRANCH   8  10
ATOM     10  O   UNL     1       8.068  -5.652  27.239  0.00  0.00    -0.480 OA
ATOM     11  H   UNL     1       8.632  -6.463  27.233  0.00  0.00    +0.295 HD
ENDBRANCH   8  10
ENDBRANCH   1   8
BRANCH   1  12
ATOM     12  C   UNL     1       6.301  -5.150  24.063  0.00  0.00    +0.143 C 
BRANCH  12  13
ATOM     13  C   UNL     1       5.462  -4.031  23.511  0.00  0.00    +0.306 C 
ATOM     14  O   UNL     1       4.803  -4.138  22.489  0.00  0.00    -0.251 OA
BRANCH  13  15
ATOM     15  O   UNL     1       5.539  -2.881  24.209  0.00  0.00    -0.481 OA
ATOM     16  H   UNL     1       5.173  -2.924  25.124  0.00  0.00    +0.295 HD
ENDBRANCH  13  15
ENDBRANCH  12  13
ENDBRANCH   1  12
TORSDOF 8
ENDMDL
