MODEL 1
REMARK VINA RESULT:      -8.1      0.000      0.000
REMARK  Name = 
REMARK  4 active torsions:
REMARK  status: ('A' for Active; 'I' for Inactive)
REMARK    1  A    between atoms: C_1  and  C_2
REMARK    2  A    between atoms: C_2  and  N_3
REMARK    3  A    between atoms: N_5  and  C_6
REMARK    4  A    between atoms: N_18  and  C_19
REMARK                            x       y       z     vdW  Elec       q    Type
REMARK                         _______ _______ _______ _____ _____    ______ ____
ROOT
ATOM      1  N   UNL     1       8.627  -0.501  24.653  0.00  0.00    -0.297 N 
ATOM      2  C   UNL     1       9.069   0.390  23.709  0.00  0.00    +0.167 A 
ATOM      3  N   UNL     1       9.881   1.446  23.873  0.00  0.00    -0.195 NA
ATOM      4  C   UNL     1      10.129   2.089  22.709  0.00  0.00    +0.222 A 
ATOM      5  N   UNL     1       9.706   1.711  21.481  0.00  0.00    -0.220 NA
ATOM      6  C   UNL     1       8.889   0.635  21.374  0.00  0.00    +0.146 A 
ATOM      7  N   UNL     1      10.922   3.238  22.717  0.00  0.00    -0.279 N 
ATOM      8  H   UNL     1      10.996   3.528  21.747  0.00  0.00    +0.155 HD
ATOM      9  C   UNL     1       8.533  -0.060  22.518  0.00  0.00    +0.128 A 
ATOM     10  N   UNL     1       7.741  -1.149  22.719  0.00  0.00    -0.211 NA
ATOM     11  C   UNL     1       7.791  -1.395  24.013  0.00  0.00    +0.202 A 
ATOM     12  N   UNL     1       7.172  -2.402  24.667  0.00  0.00    -0.284 N 
ATOM     13  H   UNL     1       6.950  -2.363  25.655  0.00  0.00    +0.155 HD
ENDROOT
BRANCH   7  14
ATOM     14  C   UNL     1      10.770   4.354  23.571  0.00  0.00    +0.105 A 
ATOM     15  C   UNL     1       9.545   4.790  24.097  0.00  0.00    +0.147 A 
ATOM     16  F   UNL     1       8.404   4.141  23.819  0.00  0.00    -0.203 F 
ATOM     17  C   UNL     1       9.454   5.948  24.874  0.00  0.00    +0.040 A 
ATOM     18  C   UNL     1      10.593   6.701  25.147  0.00  0.00    +0.006 A 
ATOM     19  C   UNL     1      11.821   6.294  24.632  0.00  0.00    +0.040 A 
ATOM     20  C   UNL     1      11.895   5.143  23.848  0.00  0.00    +0.147 A 
ATOM     21  F   UNL     1      13.089   4.796  23.339  0.00  0.00    -0.203 F 
ENDBRANCH   7  14
BRANCH  12  22
ATOM     22  C   UNL     1       6.803  -3.620  24.047  0.00  0.00    +0.052 A 
ATOM     23  C   UNL     1       5.464  -4.041  23.987  0.00  0.00    +0.062 A 
ATOM     24 CL   UNL     1       4.208  -3.117  24.738  0.00  0.00    -0.082 Cl
ATOM     25  C   UNL     1       5.110  -5.209  23.303  0.00  0.00    +0.022 A 
ATOM     26  C   UNL     1       6.091  -5.977  22.672  0.00  0.00    +0.002 A 
ATOM     27  C   UNL     1       7.419  -5.577  22.722  0.00  0.00    +0.002 A 
ATOM     28  C   UNL     1       7.767  -4.408  23.395  0.00  0.00    +0.025 A 
ENDBRANCH  12  22
BRANCH   1  30
ATOM     29  C   UNL     1       8.025  -0.028  27.015  0.00  0.00    +0.027 C 
ATOM     30  C   UNL     1       9.067  -0.549  26.032  0.00  0.00    +0.123 C 
ENDBRANCH   1  30
TORSDOF 3
ENDMDL
MODEL 2
REMARK VINA RESULT:      -8.0      3.591      8.574
REMARK  Name = 
REMARK  4 active torsions:
REMARK  status: ('A' for Active; 'I' for Inactive)
REMARK    1  A    between atoms: C_1  and  C_2
REMARK    2  A    between atoms: C_2  and  N_3
REMARK    3  A    between atoms: N_5  and  C_6
REMARK    4  A    between atoms: N_18  and  C_19
REMARK                            x       y       z     vdW  Elec       q    Type
REMARK                         _______ _______ _______ _____ _____    ______ ____
ROOT
ATOM      1  N   UNL     1       7.906   1.194  23.385  0.00  0.00    -0.297 N 
ATOM      2  C   UNL     1       8.348  -0.104  23.370  0.00  0.00    +0.167 A 
ATOM      3  N   UNL     1       7.676  -1.211  23.019  0.00  0.00    -0.195 NA
ATOM      4  C   UNL     1       8.441  -2.323  23.098  0.00  0.00    +0.222 A 
ATOM      5  N   UNL     1       9.758  -2.368  23.406  0.00  0.00    -0.220 NA
ATOM      6  C   UNL     1      10.387  -1.219  23.750  0.00  0.00    +0.146 A 
ATOM      7  N   UNL     1       7.874  -3.566  22.809  0.00  0.00    -0.279 N 
ATOM      8  H   UNL     1       8.628  -4.240  22.901  0.00  0.00    +0.155 HD
ATOM      9  C   UNL     1       9.674  -0.032  23.752  0.00  0.00    +0.128 A 
ATOM     10  N   UNL     1      10.027   1.248  24.052  0.00  0.00    -0.211 NA
ATOM     11  C   UNL     1       8.947   1.976  23.845  0.00  0.00    +0.202 A 
ATOM     12  N   UNL     1       8.836   3.314  23.995  0.00  0.00    -0.284 N 
ATOM     13  H   UNL     1       7.951   3.778  24.162  0.00  0.00    +0.155 HD
ENDROOT
BRANCH   7  14
ATOM     14  C   UNL     1       6.666  -4.078  23.334  0.00  0.00    +0.105 A 
ATOM     15  C   UNL     1       5.394  -3.790  22.820  0.00  0.00    +0.147 A 
ATOM     16  F   UNL     1       5.243  -2.991  21.752  0.00  0.00    -0.203 F 
ATOM     17  C   UNL     1       4.232  -4.268  23.434  0.00  0.00    +0.040 A 
ATOM     18  C   UNL     1       4.317  -5.051  24.582  0.00  0.00    +0.006 A 
ATOM     19  C   UNL     1       5.568  -5.347  25.117  0.00  0.00    +0.040 A 
ATOM     20  C   UNL     1       6.718  -4.854  24.500  0.00  0.00    +0.147 A 
ATOM     21  F   UNL     1       7.907  -5.130  25.060  0.00  0.00    -0.203 F 
ENDBRANCH   7  14
BRANCH  12  22
ATOM     22  C   UNL     1       9.935   4.201  23.898  0.00  0.00    +0.052 A 
ATOM     23  C   UNL     1       9.891   5.493  24.449  0.00  0.00    +0.062 A 
ATOM     24 CL   UNL     1       8.455   6.084  25.211  0.00  0.00    -0.082 Cl
ATOM     25  C   UNL     1      11.014   6.326  24.411  0.00  0.00    +0.022 A 
ATOM     26  C   UNL     1      12.198   5.883  23.818  0.00  0.00    +0.002 A 
ATOM     27  C   UNL     1      12.259   4.610  23.267  0.00  0.00    +0.002 A 
ATOM     28  C   UNL     1      11.143   3.779  23.315  0.00  0.00    +0.025 A 
ENDBRANCH  12  22
BRANCH   1  30
ATOM     29  C   UNL     1       5.612   1.921  23.999  0.00  0.00    +0.027 C 
ATOM     30  C   UNL     1       6.623   1.649  22.891  0.00  0.00    +0.123 C 
ENDBRANCH   1  30
TORSDOF 3
ENDMDL
MODEL 3
REMARK VINA RESULT:      -7.9      3.289      5.542
REMARK  Name = 
REMARK  4 active torsions:
REMARK  status: ('A' for Active; 'I' for Inactive)
REMARK    1  A    between atoms: C_1  and  C_2
REMARK    2  A    between atoms: C_2  and  N_3
REMARK    3  A    between atoms: N_5  and  C_6
REMARK    4  A    between atoms: N_18  and  C_19
REMARK                            x       y       z     vdW  Elec       q    Type
REMARK                         _______ _______ _______ _____ _____    ______ ____
ROOT
ATOM      1  N   UNL     1       4.689  -3.637  24.097  0.00  0.00    -0.297 N 
ATOM      2  C   UNL     1       5.944  -3.603  23.545  0.00  0.00    +0.167 A 
ATOM      3  N   UNL     1       6.976  -2.807  23.866  0.00  0.00    -0.195 NA
ATOM      4  C   UNL     1       8.078  -3.073  23.130  0.00  0.00    +0.222 A 
ATOM      5  N   UNL     1       8.212  -4.067  22.222  0.00  0.00    -0.220 NA
ATOM      6  C   UNL     1       7.139  -4.842  21.939  0.00  0.00    +0.146 A 
ATOM      7  N   UNL     1       9.227  -2.299  23.311  0.00  0.00    -0.279 N 
ATOM      8  H   UNL     1       9.924  -2.692  22.687  0.00  0.00    +0.155 HD
ATOM      9  C   UNL     1       5.945  -4.612  22.603  0.00  0.00    +0.128 A 
ATOM     10  N   UNL     1       4.724  -5.210  22.526  0.00  0.00    -0.211 NA
ATOM     11  C   UNL     1       3.969  -4.601  23.418  0.00  0.00    +0.202 A 
ATOM     12  N   UNL     1       2.679  -4.878  23.708  0.00  0.00    -0.284 N 
ATOM     13  H   UNL     1       2.050  -4.201  24.124  0.00  0.00    +0.155 HD
ENDROOT
BRANCH   7  14
ATOM     14  C   UNL     1       9.292  -0.888  23.325  0.00  0.00    +0.105 A 
ATOM     15  C   UNL     1       9.352  -0.086  22.176  0.00  0.00    +0.147 A 
ATOM     16  F   UNL     1       9.339  -0.632  20.950  0.00  0.00    -0.203 F 
ATOM     17  C   UNL     1       9.492   1.302  22.259  0.00  0.00    +0.040 A 
ATOM     18  C   UNL     1       9.574   1.925  23.502  0.00  0.00    +0.006 A 
ATOM     19  C   UNL     1       9.523   1.152  24.659  0.00  0.00    +0.040 A 
ATOM     20  C   UNL     1       9.395  -0.234  24.560  0.00  0.00    +0.147 A 
ATOM     21  F   UNL     1       9.381  -0.954  25.694  0.00  0.00    -0.203 F 
ENDBRANCH   7  14
BRANCH  12  22
ATOM     22  C   UNL     1       2.090  -6.147  23.493  0.00  0.00    +0.052 A 
ATOM     23  C   UNL     1       2.401  -7.252  24.304  0.00  0.00    +0.062 A 
ATOM     24 CL   UNL     1       3.580  -7.125  25.563  0.00  0.00    -0.082 Cl
ATOM     25  C   UNL     1       1.750  -8.477  24.124  0.00  0.00    +0.022 A 
ATOM     26  C   UNL     1       0.781  -8.619  23.129  0.00  0.00    +0.002 A 
ATOM     27  C   UNL     1       0.462  -7.538  22.317  0.00  0.00    +0.002 A 
ATOM     28  C   UNL     1       1.105  -6.317  22.505  0.00  0.00    +0.025 A 
ENDBRANCH  12  22
BRANCH   1  30
ATOM     29  C   UNL     1       4.620  -3.544  26.577  0.00  0.00    +0.027 C 
ATOM     30  C   UNL     1       4.261  -2.878  25.254  0.00  0.00    +0.123 C 
ENDBRANCH   1  30
TORSDOF 3
ENDMDL
MODEL 4
REMARK VINA RESULT:      -7.8      3.247      5.362
REMARK  Name = 
REMARK  4 active torsions:
REMARK  status: ('A' for Active; 'I' for Inactive)
REMARK    1  A    between atoms: C_1  and  C_2
REMARK    2  A    between atoms: C_2  and  N_3
REMARK    3  A    between atoms: N_5  and  C_6
REMARK    4  A    between atoms: N_18  and  C_19
REMARK                            x       y       z     vdW  Elec       q    Type
REMARK                         _______ _______ _______ _____ _____    ______ ____
ROOT
ATOM      1  N   UNL     1       5.247  -2.864  25.211  0.00  0.00    -0.297 N 
ATOM      2  C   UNL     1       6.513  -3.110  24.743  0.00  0.00    +0.167 A 
ATOM      3  N   UNL     1       7.572  -2.286  24.728  0.00  0.00    -0.195 NA
ATOM      4  C   UNL     1       8.675  -2.877  24.216  0.00  0.00    +0.222 A 
ATOM      5  N   UNL     1       8.783  -4.168  23.826  0.00  0.00    -0.220 NA
ATOM      6  C   UNL     1       7.682  -4.956  23.865  0.00  0.00    +0.146 A 
ATOM      7  N   UNL     1       9.852  -2.136  24.088  0.00  0.00    -0.279 N 
ATOM      8  H   UNL     1      10.543  -2.781  23.717  0.00  0.00    +0.155 HD
ATOM      9  C   UNL     1       6.487  -4.426  24.324  0.00  0.00    +0.128 A 
ATOM     10  N   UNL     1       5.243  -4.960  24.468  0.00  0.00    -0.211 NA
ATOM     11  C   UNL     1       4.499  -4.003  24.987  0.00  0.00    +0.202 A 
ATOM     12  N   UNL     1       3.193  -4.089  25.322  0.00  0.00    -0.284 N 
ATOM     13  H   UNL     1       2.587  -3.280  25.385  0.00  0.00    +0.155 HD
ENDROOT
BRANCH   7  14
ATOM     14  C   UNL     1       9.978  -0.859  23.498  0.00  0.00    +0.105 A 
ATOM     15  C   UNL     1      10.384   0.295  24.183  0.00  0.00    +0.147 A 
ATOM     16  F   UNL     1      10.701   0.249  25.487  0.00  0.00    -0.203 F 
ATOM     17  C   UNL     1      10.414   1.545  23.558  0.00  0.00    +0.040 A 
ATOM     18  C   UNL     1      10.038   1.670  22.223  0.00  0.00    +0.006 A 
ATOM     19  C   UNL     1       9.624   0.541  21.521  0.00  0.00    +0.040 A 
ATOM     20  C   UNL     1       9.588  -0.698  22.161  0.00  0.00    +0.147 A 
ATOM     21  F   UNL     1       9.153  -1.761  21.465  0.00  0.00    -0.203 F 
ENDBRANCH   7  14
BRANCH  12  22
ATOM     22  C   UNL     1       2.554  -5.308  25.651  0.00  0.00    +0.052 A 
ATOM     23  C   UNL     1       1.870  -6.066  24.685  0.00  0.00    +0.062 A 
ATOM     24 CL   UNL     1       1.719  -5.501  23.057  0.00  0.00    -0.082 Cl
ATOM     25  C   UNL     1       1.311  -7.307  25.012  0.00  0.00    +0.022 A 
ATOM     26  C   UNL     1       1.423  -7.806  26.311  0.00  0.00    +0.002 A 
ATOM     27  C   UNL     1       2.093  -7.070  27.279  0.00  0.00    +0.002 A 
ATOM     28  C   UNL     1       2.658  -5.841  26.947  0.00  0.00    +0.025 A 
ENDBRANCH  12  22
BRANCH   1  30
ATOM     29  C   UNL     1       5.057  -1.750  27.422  0.00  0.00    +0.027 C 
ATOM     30  C   UNL     1       4.831  -1.670  25.917  0.00  0.00    +0.123 C 
ENDBRANCH   1  30
TORSDOF 3
ENDMDL
MODEL 5
REMARK VINA RESULT:      -7.7      3.428      8.843
REMARK  Name = 
REMARK  4 active torsions:
REMARK  status: ('A' for Active; 'I' for Inactive)
REMARK    1  A    between atoms: C_1  and  C_2
REMARK    2  A    between atoms: C_2  and  N_3
REMARK    3  A    between atoms: N_5  and  C_6
REMARK    4  A    between atoms: N_18  and  C_19
REMARK                            x       y       z     vdW  Elec       q    Type
REMARK                         _______ _______ _______ _____ _____    ______ ____
ROOT
ATOM      1  N   UNL     1       9.126   1.132  23.481  0.00  0.00    -0.297 N 
ATOM      2  C   UNL     1       8.500   0.256  24.331  0.00  0.00    +0.167 A 
ATOM      3  N   UNL     1       8.384  -1.077  24.220  0.00  0.00    -0.195 NA
ATOM      4  C   UNL     1       7.723  -1.623  25.265  0.00  0.00    +0.222 A 
ATOM      5  N   UNL     1       7.282  -0.967  26.364  0.00  0.00    -0.220 NA
ATOM      6  C   UNL     1       7.428   0.378  26.424  0.00  0.00    +0.146 A 
ATOM      7  N   UNL     1       7.478  -2.998  25.278  0.00  0.00    -0.279 N 
ATOM      8  H   UNL     1       7.005  -3.185  26.156  0.00  0.00    +0.155 HD
ATOM      9  C   UNL     1       8.046   1.038  25.374  0.00  0.00    +0.128 A 
ATOM     10  N   UNL     1       8.322   2.354  25.156  0.00  0.00    -0.211 NA
ATOM     11  C   UNL     1       8.957   2.400  24.001  0.00  0.00    +0.202 A 
ATOM     12  N   UNL     1       9.445   3.503  23.393  0.00  0.00    -0.284 N 
ATOM     13  H   UNL     1       9.607   3.554  22.394  0.00  0.00    +0.155 HD
ENDROOT
BRANCH   7  14
ATOM     14  C   UNL     1       6.918  -3.758  24.226  0.00  0.00    +0.105 A 
ATOM     15  C   UNL     1       5.608  -3.607  23.749  0.00  0.00    +0.147 A 
ATOM     16  F   UNL     1       4.782  -2.688  24.274  0.00  0.00    -0.203 F 
ATOM     17  C   UNL     1       5.090  -4.444  22.756  0.00  0.00    +0.040 A 
ATOM     18  C   UNL     1       5.876  -5.457  22.213  0.00  0.00    +0.006 A 
ATOM     19  C   UNL     1       7.178  -5.633  22.674  0.00  0.00    +0.040 A 
ATOM     20  C   UNL     1       7.678  -4.798  23.673  0.00  0.00    +0.147 A 
ATOM     21  F   UNL     1       8.926  -5.015  24.118  0.00  0.00    -0.203 F 
ENDBRANCH   7  14
BRANCH  12  22
ATOM     22  C   UNL     1       9.809   4.679  24.091  0.00  0.00    +0.052 A 
ATOM     23  C   UNL     1      11.091   5.242  23.969  0.00  0.00    +0.062 A 
ATOM     24 CL   UNL     1      12.310   4.475  23.011  0.00  0.00    -0.082 Cl
ATOM     25  C   UNL     1      11.407   6.447  24.606  0.00  0.00    +0.022 A 
ATOM     26  C   UNL     1      10.448   7.106  25.378  0.00  0.00    +0.002 A 
ATOM     27  C   UNL     1       9.177   6.563  25.511  0.00  0.00    +0.002 A 
ATOM     28  C   UNL     1       8.862   5.369  24.867  0.00  0.00    +0.025 A 
ENDBRANCH  12  22
BRANCH   1  30
ATOM     29  C   UNL     1       9.068   0.427  21.100  0.00  0.00    +0.027 C 
ATOM     30  C   UNL     1       9.914   0.759  22.324  0.00  0.00    +0.123 C 
ENDBRANCH   1  30
TORSDOF 3
ENDMDL
MODEL 6
REMARK VINA RESULT:      -7.7      3.622      8.913
REMARK  Name = 
REMARK  4 active torsions:
REMARK  status: ('A' for Active; 'I' for Inactive)
REMARK    1  A    between atoms: C_1  and  C_2
REMARK    2  A    between atoms: C_2  and  N_3
REMARK    3  A    between atoms: N_5  and  C_6
REMARK    4  A    between atoms: N_18  and  C_19
REMARK                            x       y       z     vdW  Elec       q    Type
REMARK                         _______ _______ _______ _____ _____    ______ ____
ROOT
ATOM      1  N   UNL     1       7.981   0.744  22.637  0.00  0.00    -0.297 N 
ATOM      2  C   UNL     1       7.274  -0.090  23.466  0.00  0.00    +0.167 A 
ATOM      3  N   UNL     1       7.420  -1.412  23.642  0.00  0.00    -0.195 NA
ATOM      4  C   UNL     1       6.566  -1.905  24.567  0.00  0.00    +0.222 A 
ATOM      5  N   UNL     1       5.702  -1.186  25.321  0.00  0.00    -0.220 NA
ATOM      6  C   UNL     1       5.598   0.147  25.103  0.00  0.00    +0.146 A 
ATOM      7  N   UNL     1       6.560  -3.275  24.833  0.00  0.00    -0.279 N 
ATOM      8  H   UNL     1       5.874  -3.409  25.569  0.00  0.00    +0.155 HD
ATOM      9  C   UNL     1       6.394   0.738  24.135  0.00  0.00    +0.128 A 
ATOM     10  N   UNL     1       6.504   2.023  23.699  0.00  0.00    -0.211 NA
ATOM     11  C   UNL     1       7.451   2.011  22.782  0.00  0.00    +0.202 A 
ATOM     12  N   UNL     1       7.915   3.074  22.088  0.00  0.00    -0.284 N 
ATOM     13  H   UNL     1       8.370   2.986  21.187  0.00  0.00    +0.155 HD
ENDROOT
BRANCH   7  14
ATOM     14  C   UNL     1       6.490  -4.313  23.877  0.00  0.00    +0.105 A 
ATOM     15  C   UNL     1       7.598  -5.025  23.397  0.00  0.00    +0.147 A 
ATOM     16  F   UNL     1       8.836  -4.761  23.843  0.00  0.00    -0.203 F 
ATOM     17  C   UNL     1       7.470  -5.990  22.393  0.00  0.00    +0.040 A 
ATOM     18  C   UNL     1       6.221  -6.267  21.844  0.00  0.00    +0.006 A 
ATOM     19  C   UNL     1       5.104  -5.570  22.298  0.00  0.00    +0.040 A 
ATOM     20  C   UNL     1       5.249  -4.603  23.292  0.00  0.00    +0.147 A 
ATOM     21  F   UNL     1       4.158  -3.925  23.684  0.00  0.00    -0.203 F 
ENDBRANCH   7  14
BRANCH  12  22
ATOM     22  C   UNL     1       7.843   4.404  22.565  0.00  0.00    +0.052 A 
ATOM     23  C   UNL     1       8.873   4.968  23.337  0.00  0.00    +0.062 A 
ATOM     24 CL   UNL     1      10.249   4.028  23.803  0.00  0.00    -0.082 Cl
ATOM     25  C   UNL     1       8.820   6.309  23.732  0.00  0.00    +0.022 A 
ATOM     26  C   UNL     1       7.734   7.106  23.366  0.00  0.00    +0.002 A 
ATOM     27  C   UNL     1       6.706   6.566  22.604  0.00  0.00    +0.002 A 
ATOM     28  C   UNL     1       6.767   5.233  22.203  0.00  0.00    +0.025 A 
ENDBRANCH  12  22
BRANCH   1  30
ATOM     29  C   UNL     1      10.424   0.306  22.678  0.00  0.00    +0.027 C 
ATOM     30  C   UNL     1       9.141   0.365  21.857  0.00  0.00    +0.123 C 
ENDBRANCH   1  30
TORSDOF 3
ENDMDL
MODEL 7
REMARK VINA RESULT:      -7.7      3.618      5.640
REMARK  Name = 
REMARK  4 active torsions:
REMARK  status: ('A' for Active; 'I' for Inactive)
REMARK    1  A    between atoms: C_1  and  C_2
REMARK    2  A    between atoms: C_2  and  N_3
REMARK    3  A    between atoms: N_5  and  C_6
REMARK    4  A    between atoms: N_18  and  C_19
REMARK                            x       y       z     vdW  Elec       q    Type
REMARK                         _______ _______ _______ _____ _____    ______ ____
ROOT
ATOM      1  N   UNL     1       5.981  -2.786  26.376  0.00  0.00    -0.297 N 
ATOM      2  C   UNL     1       7.049  -3.076  25.565  0.00  0.00    +0.167 A 
ATOM      3  N   UNL     1       8.081  -2.287  25.228  0.00  0.00    -0.195 NA
ATOM      4  C   UNL     1       8.971  -2.917  24.429  0.00  0.00    +0.222 A 
ATOM      5  N   UNL     1       8.924  -4.215  24.049  0.00  0.00    -0.220 NA
ATOM      6  C   UNL     1       7.861  -4.967  24.420  0.00  0.00    +0.146 A 
ATOM      7  N   UNL     1      10.080  -2.216  23.952  0.00  0.00    -0.279 N 
ATOM      8  H   UNL     1      10.615  -2.886  23.408  0.00  0.00    +0.155 HD
ATOM      9  C   UNL     1       6.866  -4.395  25.196  0.00  0.00    +0.128 A 
ATOM     10  N   UNL     1       5.703  -4.888  25.705  0.00  0.00    -0.211 NA
ATOM     11  C   UNL     1       5.169  -3.902  26.399  0.00  0.00    +0.202 A 
ATOM     12  N   UNL     1       4.015  -3.943  27.100  0.00  0.00    -0.284 N 
ATOM     13  H   UNL     1       3.475  -3.114  27.322  0.00  0.00    +0.155 HD
ENDROOT
BRANCH   7  14
ATOM     14  C   UNL     1      10.064  -0.949  23.327  0.00  0.00    +0.105 A 
ATOM     15  C   UNL     1      10.494   0.239  23.933  0.00  0.00    +0.147 A 
ATOM     16  F   UNL     1      10.976   0.242  25.186  0.00  0.00    -0.203 F 
ATOM     17  C   UNL     1      10.381   1.474  23.286  0.00  0.00    +0.040 A 
ATOM     18  C   UNL     1       9.832   1.547  22.009  0.00  0.00    +0.006 A 
ATOM     19  C   UNL     1       9.391   0.383  21.386  0.00  0.00    +0.040 A 
ATOM     20  C   UNL     1       9.500  -0.840  22.048  0.00  0.00    +0.147 A 
ATOM     21  F   UNL     1       9.035  -1.940  21.433  0.00  0.00    -0.203 F 
ENDBRANCH   7  14
BRANCH  12  22
ATOM     22  C   UNL     1       3.465  -5.138  27.623  0.00  0.00    +0.052 A 
ATOM     23  C   UNL     1       3.931  -5.702  28.822  0.00  0.00    +0.062 A 
ATOM     24 CL   UNL     1       5.257  -4.994  29.679  0.00  0.00    -0.082 Cl
ATOM     25  C   UNL     1       3.323  -6.840  29.363  0.00  0.00    +0.022 A 
ATOM     26  C   UNL     1       2.241  -7.435  28.710  0.00  0.00    +0.002 A 
ATOM     27  C   UNL     1       1.768  -6.892  27.523  0.00  0.00    +0.002 A 
ATOM     28  C   UNL     1       2.369  -5.753  26.992  0.00  0.00    +0.025 A 
ENDBRANCH  12  22
BRANCH   1  30
ATOM     29  C   UNL     1       5.053  -0.483  26.409  0.00  0.00    +0.027 C 
ATOM     30  C   UNL     1       5.822  -1.572  27.149  0.00  0.00    +0.123 C 
ENDBRANCH   1  30
TORSDOF 3
ENDMDL
MODEL 8
REMARK VINA RESULT:      -7.6      3.638      8.621
REMARK  Name = 
REMARK  4 active torsions:
REMARK  status: ('A' for Active; 'I' for Inactive)
REMARK    1  A    between atoms: C_1  and  C_2
REMARK    2  A    between atoms: C_2  and  N_3
REMARK    3  A    between atoms: N_5  and  C_6
REMARK    4  A    between atoms: N_18  and  C_19
REMARK                            x       y       z     vdW  Elec       q    Type
REMARK                         _______ _______ _______ _____ _____    ______ ____
ROOT
ATOM      1  N   UNL     1       7.017   1.129  24.828  0.00  0.00    -0.297 N 
ATOM      2  C   UNL     1       7.834   0.038  24.665  0.00  0.00    +0.167 A 
ATOM      3  N   UNL     1       7.487  -1.250  24.518  0.00  0.00    -0.195 NA
ATOM      4  C   UNL     1       8.560  -2.055  24.350  0.00  0.00    +0.222 A 
ATOM      5  N   UNL     1       9.850  -1.657  24.248  0.00  0.00    -0.220 NA
ATOM      6  C   UNL     1      10.142  -0.344  24.401  0.00  0.00    +0.146 A 
ATOM      7  N   UNL     1       8.371  -3.433  24.230  0.00  0.00    -0.279 N 
ATOM      8  H   UNL     1       9.296  -3.826  24.083  0.00  0.00    +0.155 HD
ATOM      9  C   UNL     1       9.114   0.555  24.632  0.00  0.00    +0.128 A 
ATOM     10  N   UNL     1       9.102   1.903  24.828  0.00  0.00    -0.211 NA
ATOM     11  C   UNL     1       7.833   2.234  24.964  0.00  0.00    +0.202 A 
ATOM     12  N   UNL     1       7.341   3.478  25.156  0.00  0.00    -0.284 N 
ATOM     13  H   UNL     1       6.441   3.653  25.588  0.00  0.00    +0.155 HD
ENDROOT
BRANCH   7  14
ATOM     14  C   UNL     1       7.600  -4.250  25.087  0.00  0.00    +0.105 A 
ATOM     15  C   UNL     1       7.964  -4.590  26.397  0.00  0.00    +0.147 A 
ATOM     16  F   UNL     1       9.103  -4.132  26.940  0.00  0.00    -0.203 F 
ATOM     17  C   UNL     1       7.193  -5.466  27.167  0.00  0.00    +0.040 A 
ATOM     18  C   UNL     1       6.032  -6.025  26.640  0.00  0.00    +0.006 A 
ATOM     19  C   UNL     1       5.651  -5.710  25.338  0.00  0.00    +0.040 A 
ATOM     20  C   UNL     1       6.436  -4.843  24.578  0.00  0.00    +0.147 A 
ATOM     21  F   UNL     1       6.058  -4.585  23.316  0.00  0.00    -0.203 F 
ENDBRANCH   7  14
BRANCH  12  22
ATOM     22  C   UNL     1       8.015   4.653  24.745  0.00  0.00    +0.052 A 
ATOM     23  C   UNL     1       7.948   5.115  23.420  0.00  0.00    +0.062 A 
ATOM     24 CL   UNL     1       7.094   4.222  22.210  0.00  0.00    -0.082 Cl
ATOM     25  C   UNL     1       8.556   6.320  23.051  0.00  0.00    +0.022 A 
ATOM     26  C   UNL     1       9.244   7.079  24.000  0.00  0.00    +0.002 A 
ATOM     27  C   UNL     1       9.321   6.636  25.314  0.00  0.00    +0.002 A 
ATOM     28  C   UNL     1       8.706   5.442  25.680  0.00  0.00    +0.025 A 
ENDBRANCH  12  22
BRANCH   1  30
ATOM     29  C   UNL     1       4.894   0.943  26.102  0.00  0.00    +0.027 C 
ATOM     30  C   UNL     1       5.571   1.113  24.747  0.00  0.00    +0.123 C 
ENDBRANCH   1  30
TORSDOF 3
ENDMDL
MODEL 9
REMARK VINA RESULT:      -7.6      3.454      8.909
REMARK  Name = 
REMARK  4 active torsions:
REMARK  status: ('A' for Active; 'I' for Inactive)
REMARK    1  A    between atoms: C_1  and  C_2
REMARK    2  A    between atoms: C_2  and  N_3
REMARK    3  A    between atoms: N_5  and  C_6
REMARK    4  A    between atoms: N_18  and  C_19
REMARK                            x       y       z     vdW  Elec       q    Type
REMARK                         _______ _______ _______ _____ _____    ______ ____
ROOT
ATOM      1  N   UNL     1       8.958   0.927  23.443  0.00  0.00    -0.297 N 
ATOM      2  C   UNL     1       8.238   0.099  24.267  0.00  0.00    +0.167 A 
ATOM      3  N   UNL     1       8.190  -1.242  24.268  0.00  0.00    -0.195 NA
ATOM      4  C   UNL     1       7.392  -1.727  25.246  0.00  0.00    +0.222 A 
ATOM      5  N   UNL     1       6.757  -0.999  26.194  0.00  0.00    -0.220 NA
ATOM      6  C   UNL     1       6.842   0.352  26.147  0.00  0.00    +0.146 A 
ATOM      7  N   UNL     1       7.199  -3.106  25.353  0.00  0.00    -0.279 N 
ATOM      8  H   UNL     1       6.600  -3.238  26.161  0.00  0.00    +0.155 HD
ATOM      9  C   UNL     1       7.594   0.947  25.147  0.00  0.00    +0.128 A 
ATOM     10  N   UNL     1       7.852   2.250  24.848  0.00  0.00    -0.211 NA
ATOM     11  C   UNL     1       8.661   2.226  23.807  0.00  0.00    +0.202 A 
ATOM     12  N   UNL     1       9.198   3.294  23.178  0.00  0.00    -0.284 N 
ATOM     13  H   UNL     1       9.515   3.264  22.216  0.00  0.00    +0.155 HD
ENDROOT
BRANCH   7  14
ATOM     14  C   UNL     1       6.843  -3.985  24.305  0.00  0.00    +0.105 A 
ATOM     15  C   UNL     1       7.711  -4.921  23.726  0.00  0.00    +0.147 A 
ATOM     16  F   UNL     1       8.976  -5.051  24.157  0.00  0.00    -0.203 F 
ATOM     17  C   UNL     1       7.318  -5.709  22.640  0.00  0.00    +0.040 A 
ATOM     18  C   UNL     1       6.039  -5.579  22.107  0.00  0.00    +0.006 A 
ATOM     19  C   UNL     1       5.158  -4.652  22.659  0.00  0.00    +0.040 A 
ATOM     20  C   UNL     1       5.568  -3.864  23.734  0.00  0.00    +0.147 A 
ATOM     21  F   UNL     1       4.707  -2.957  24.223  0.00  0.00    -0.203 F 
ENDBRANCH   7  14
BRANCH  12  22
ATOM     22  C   UNL     1       9.402   4.545  23.808  0.00  0.00    +0.052 A 
ATOM     23  C   UNL     1      10.677   5.129  23.892  0.00  0.00    +0.062 A 
ATOM     24 CL   UNL     1      12.073   4.303  23.290  0.00  0.00    -0.082 Cl
ATOM     25  C   UNL     1      10.847   6.401  24.449  0.00  0.00    +0.022 A 
ATOM     26  C   UNL     1       9.745   7.108  24.934  0.00  0.00    +0.002 A 
ATOM     27  C   UNL     1       8.477   6.546  24.860  0.00  0.00    +0.002 A 
ATOM     28  C   UNL     1       8.310   5.284  24.296  0.00  0.00    +0.025 A 
ENDBRANCH  12  22
BRANCH   1  30
ATOM     29  C   UNL     1       9.305  -0.036  21.181  0.00  0.00    +0.027 C 
ATOM     30  C   UNL     1       9.934   0.494  22.465  0.00  0.00    +0.123 C 
ENDBRANCH   1  30
TORSDOF 3
ENDMDL
