MODEL 1
REMARK VINA RESULT:      -5.3      0.000      0.000
REMARK  Name = 
REMARK  8 active torsions:
REMARK  status: ('A' for Active; 'I' for Inactive)
REMARK    1  A    between atoms: C_1  and  O_2
REMARK    2  A    between atoms: O_2  and  C_3
REMARK    3  A    between atoms: C_3  and  C_5
REMARK    4  A    between atoms: C_7  and  O_8
REMARK    5  A    between atoms: O_8  and  C_9
REMARK    6  A    between atoms: C_10  and  O_11
REMARK    7  A    between atoms: C_12  and  O_13
REMARK    8  A    between atoms: O_13  and  C_14
REMARK                            x       y       z     vdW  Elec       q    Type
REMARK                         _______ _______ _______ _____ _____    ______ ____
ROOT
ATOM      1  C   UNL     1       6.681  -4.404  23.559  0.00  0.00    +0.066 A 
ATOM      2  C   UNL     1       6.388  -5.148  24.708  0.00  0.00    +0.064 A 
ATOM      3  C   UNL     1       7.349  -5.302  25.709  0.00  0.00    +0.166 A 
ATOM      4  C   UNL     1       8.624  -4.710  25.558  0.00  0.00    +0.201 A 
ATOM      5  C   UNL     1       8.927  -3.950  24.420  0.00  0.00    +0.166 A 
ATOM      6  C   UNL     1       7.943  -3.814  23.429  0.00  0.00    +0.064 A 
ENDROOT
BRANCH   1   7
ATOM      7  C   UNL     1       5.685  -4.212  22.469  0.00  0.00    +0.339 C 
ATOM      8  O   UNL     1       5.256  -3.124  22.121  0.00  0.00    -0.245 OA
BRANCH   7  10
ATOM      9  C   UNL     1       6.188  -5.887  20.908  0.00  0.00    +0.280 C 
ATOM     10  O   UNL     1       5.328  -5.412  21.944  0.00  0.00    -0.464 OA
ENDBRANCH   7  10
ENDBRANCH   1   7
BRANCH   3  11
ATOM     11  O   UNL     1       7.133  -5.994  26.876  0.00  0.00    -0.491 OA
ATOM     12  C   UNL     1       6.244  -5.426  27.830  0.00  0.00    +0.277 C 
ENDBRANCH   3  11
BRANCH   4  13
ATOM     13  O   UNL     1       9.516  -4.963  26.567  0.00  0.00    -0.501 OA
ATOM     14  H   UNL     1       9.056  -5.381  27.303  0.00  0.00    +0.292 HD
ENDBRANCH   4  13
BRANCH   5  15
ATOM     15  O   UNL     1      10.073  -3.296  24.068  0.00  0.00    -0.491 OA
ATOM     16  C   UNL     1      10.046  -2.063  23.376  0.00  0.00    +0.277 C 
ENDBRANCH   5  15
TORSDOF 5
ENDMDL
MODEL 2
REMARK VINA RESULT:      -5.2      0.860      3.425
REMARK  Name = 
REMARK  8 active torsions:
REMARK  status: ('A' for Active; 'I' for Inactive)
REMARK    1  A    between atoms: C_1  and  O_2
REMARK    2  A    between atoms: O_2  and  C_3
REMARK    3  A    between atoms: C_3  and  C_5
REMARK    4  A    between atoms: C_7  and  O_8
REMARK    5  A    between atoms: O_8  and  C_9
REMARK    6  A    between atoms: C_10  and  O_11
REMARK    7  A    between atoms: C_12  and  O_13
REMARK    8  A    between atoms: O_13  and  C_14
REMARK                            x       y       z     vdW  Elec       q    Type
REMARK                         _______ _______ _______ _____ _____    ______ ____
ROOT
ATOM      1  C   UNL     1       6.314  -4.690  23.657  0.00  0.00    +0.066 A 
ATOM      2  C   UNL     1       7.589  -4.137  23.491  0.00  0.00    +0.064 A 
ATOM      3  C   UNL     1       8.547  -4.265  24.497  0.00  0.00    +0.166 A 
ATOM      4  C   UNL     1       8.227  -4.950  25.691  0.00  0.00    +0.201 A 
ATOM      5  C   UNL     1       6.960  -5.523  25.866  0.00  0.00    +0.166 A 
ATOM      6  C   UNL     1       6.015  -5.377  24.839  0.00  0.00    +0.064 A 
ENDROOT
BRANCH   1   7
ATOM      7  C   UNL     1       5.263  -4.580  22.609  0.00  0.00    +0.339 C 
ATOM      8  O   UNL     1       4.066  -4.551  22.843  0.00  0.00    -0.245 OA
BRANCH   7  10
ATOM      9  C   UNL     1       6.145  -5.809  20.819  0.00  0.00    +0.280 C 
ATOM     10  O   UNL     1       5.833  -4.533  21.378  0.00  0.00    -0.464 OA
ENDBRANCH   7  10
ENDBRANCH   1   7
BRANCH   3  11
ATOM     11  O   UNL     1       9.827  -3.774  24.402  0.00  0.00    -0.491 OA
ATOM     12  C   UNL     1      10.005  -2.497  23.800  0.00  0.00    +0.277 C 
ENDBRANCH   3  11
BRANCH   4  13
ATOM     13  O   UNL     1       9.214  -4.976  26.641  0.00  0.00    -0.501 OA
ATOM     14  H   UNL     1       9.281  -5.863  27.009  0.00  0.00    +0.292 HD
ENDBRANCH   4  13
BRANCH   5  15
ATOM     15  O   UNL     1       6.438  -6.221  26.918  0.00  0.00    -0.491 OA
ATOM     16  C   UNL     1       5.075  -6.592  26.965  0.00  0.00    +0.277 C 
ENDBRANCH   5  15
TORSDOF 5
ENDMDL
MODEL 3
REMARK VINA RESULT:      -4.7      2.057      3.770
REMARK  Name = 
REMARK  8 active torsions:
REMARK  status: ('A' for Active; 'I' for Inactive)
REMARK    1  A    between atoms: C_1  and  O_2
REMARK    2  A    between atoms: O_2  and  C_3
REMARK    3  A    between atoms: C_3  and  C_5
REMARK    4  A    between atoms: C_7  and  O_8
REMARK    5  A    between atoms: O_8  and  C_9
REMARK    6  A    between atoms: C_10  and  O_11
REMARK    7  A    between atoms: C_12  and  O_13
REMARK    8  A    between atoms: O_13  and  C_14
REMARK                            x       y       z     vdW  Elec       q    Type
REMARK                         _______ _______ _______ _____ _____    ______ ____
ROOT
ATOM      1  C   UNL     1       6.742  -3.159  22.841  0.00  0.00    +0.066 A 
ATOM      2  C   UNL     1       6.698  -1.762  22.927  0.00  0.00    +0.064 A 
ATOM      3  C   UNL     1       7.744  -1.063  23.529  0.00  0.00    +0.166 A 
ATOM      4  C   UNL     1       8.849  -1.766  24.060  0.00  0.00    +0.201 A 
ATOM      5  C   UNL     1       8.915  -3.164  23.967  0.00  0.00    +0.166 A 
ATOM      6  C   UNL     1       7.848  -3.842  23.359  0.00  0.00    +0.064 A 
ENDROOT
BRANCH   1   7
ATOM      7  C   UNL     1       5.650  -3.946  22.204  0.00  0.00    +0.339 C 
ATOM      8  O   UNL     1       4.568  -4.158  22.726  0.00  0.00    -0.245 OA
BRANCH   7  10
ATOM      9  C   UNL     1       6.147  -5.812  20.876  0.00  0.00    +0.280 C 
ATOM     10  O   UNL     1       6.045  -4.392  20.984  0.00  0.00    -0.464 OA
ENDBRANCH   7  10
ENDBRANCH   1   7
BRANCH   3  11
ATOM     11  O   UNL     1       7.789   0.307  23.631  0.00  0.00    -0.491 OA
ATOM     12  C   UNL     1       7.784   1.063  22.426  0.00  0.00    +0.277 C 
ENDBRANCH   3  11
BRANCH   4  13
ATOM     13  O   UNL     1       9.798  -0.996  24.679  0.00  0.00    -0.501 OA
ATOM     14  H   UNL     1       9.878  -1.266  25.599  0.00  0.00    +0.292 HD
ENDBRANCH   4  13
BRANCH   5  15
ATOM     15  O   UNL     1       9.870  -4.038  24.401  0.00  0.00    -0.491 OA
ATOM     16  C   UNL     1       9.640  -4.918  25.483  0.00  0.00    +0.277 C 
ENDBRANCH   5  15
TORSDOF 5
ENDMDL
MODEL 4
REMARK VINA RESULT:      -4.7      1.323      3.653
REMARK  Name = 
REMARK  8 active torsions:
REMARK  status: ('A' for Active; 'I' for Inactive)
REMARK    1  A    between atoms: C_1  and  O_2
REMARK    2  A    between atoms: O_2  and  C_3
REMARK    3  A    between atoms: C_3  and  C_5
REMARK    4  A    between atoms: C_7  and  O_8
REMARK    5  A    between atoms: O_8  and  C_9
REMARK    6  A    between atoms: C_10  and  O_11
REMARK    7  A    between atoms: C_12  and  O_13
REMARK    8  A    between atoms: O_13  and  C_14
REMARK                            x       y       z     vdW  Elec       q    Type
REMARK                         _______ _______ _______ _____ _____    ______ ____
ROOT
ATOM      1  C   UNL     1       5.657  -5.127  23.946  0.00  0.00    +0.066 A 
ATOM      2  C   UNL     1       6.917  -4.527  24.051  0.00  0.00    +0.064 A 
ATOM      3  C   UNL     1       7.691  -4.713  25.197  0.00  0.00    +0.166 A 
ATOM      4  C   UNL     1       7.197  -5.505  26.259  0.00  0.00    +0.201 A 
ATOM      5  C   UNL     1       5.944  -6.126  26.162  0.00  0.00    +0.166 A 
ATOM      6  C   UNL     1       5.186  -5.919  24.999  0.00  0.00    +0.064 A 
ENDROOT
BRANCH   1   7
ATOM      7  C   UNL     1       4.800  -4.958  22.740  0.00  0.00    +0.339 C 
ATOM      8  O   UNL     1       3.590  -5.119  22.735  0.00  0.00    -0.245 OA
BRANCH   7  10
ATOM      9  C   UNL     1       6.130  -5.727  20.970  0.00  0.00    +0.280 C 
ATOM     10  O   UNL     1       5.561  -4.619  21.669  0.00  0.00    -0.464 OA
ENDBRANCH   7  10
ENDBRANCH   1   7
BRANCH   3  11
ATOM     11  O   UNL     1       8.946  -4.180  25.367  0.00  0.00    -0.491 OA
ATOM     12  C   UNL     1       9.222  -2.924  24.760  0.00  0.00    +0.277 C 
ENDBRANCH   3  11
BRANCH   4  13
ATOM     13  O   UNL     1       8.005  -5.583  27.362  0.00  0.00    -0.501 OA
ATOM     14  H   UNL     1       8.921  -5.445  27.098  0.00  0.00    +0.292 HD
ENDBRANCH   4  13
BRANCH   5  15
ATOM     15  O   UNL     1       5.278  -6.923  27.048  0.00  0.00    -0.491 OA
ATOM     16  C   UNL     1       4.629  -6.394  28.187  0.00  0.00    +0.277 C 
ENDBRANCH   5  15
TORSDOF 5
ENDMDL
MODEL 5
REMARK VINA RESULT:      -4.7      2.825      4.010
REMARK  Name = 
REMARK  8 active torsions:
REMARK  status: ('A' for Active; 'I' for Inactive)
REMARK    1  A    between atoms: C_1  and  O_2
REMARK    2  A    between atoms: O_2  and  C_3
REMARK    3  A    between atoms: C_3  and  C_5
REMARK    4  A    between atoms: C_7  and  O_8
REMARK    5  A    between atoms: O_8  and  C_9
REMARK    6  A    between atoms: C_10  and  O_11
REMARK    7  A    between atoms: C_12  and  O_13
REMARK    8  A    between atoms: O_13  and  C_14
REMARK                            x       y       z     vdW  Elec       q    Type
REMARK                         _______ _______ _______ _____ _____    ______ ____
ROOT
ATOM      1  C   UNL     1       8.913  -3.234  24.805  0.00  0.00    +0.066 A 
ATOM      2  C   UNL     1       8.494  -2.583  25.972  0.00  0.00    +0.064 A 
ATOM      3  C   UNL     1       8.743  -1.221  26.143  0.00  0.00    +0.166 A 
ATOM      4  C   UNL     1       9.427  -0.498  25.140  0.00  0.00    +0.201 A 
ATOM      5  C   UNL     1       9.839  -1.132  23.959  0.00  0.00    +0.166 A 
ATOM      6  C   UNL     1       9.578  -2.503  23.814  0.00  0.00    +0.064 A 
ENDROOT
BRANCH   1   7
ATOM      7  C   UNL     1       8.666  -4.685  24.578  0.00  0.00    +0.339 C 
ATOM      8  O   UNL     1       9.516  -5.551  24.709  0.00  0.00    -0.245 OA
BRANCH   7  10
ATOM      9  C   UNL     1       7.216  -5.255  22.828  0.00  0.00    +0.280 C 
ATOM     10  O   UNL     1       7.379  -4.887  24.198  0.00  0.00    -0.464 OA
ENDBRANCH   7  10
ENDBRANCH   1   7
BRANCH   3  11
ATOM     11  O   UNL     1       8.343  -0.504  27.245  0.00  0.00    -0.491 OA
ATOM     12  C   UNL     1       6.970  -0.146  27.342  0.00  0.00    +0.277 C 
ENDBRANCH   3  11
BRANCH   4  13
ATOM     13  O   UNL     1       9.672   0.820  25.424  0.00  0.00    -0.501 OA
ATOM     14  H   UNL     1      10.522   0.898  25.869  0.00  0.00    +0.292 HD
ENDBRANCH   4  13
BRANCH   5  15
ATOM     15  O   UNL     1      10.502  -0.640  22.872  0.00  0.00    -0.491 OA
ATOM     16  C   UNL     1       9.842   0.117  21.876  0.00  0.00    +0.277 C 
ENDBRANCH   5  15
TORSDOF 5
ENDMDL
MODEL 6
REMARK VINA RESULT:      -4.7      1.288      4.557
REMARK  Name = 
REMARK  8 active torsions:
REMARK  status: ('A' for Active; 'I' for Inactive)
REMARK    1  A    between atoms: C_1  and  O_2
REMARK    2  A    between atoms: O_2  and  C_3
REMARK    3  A    between atoms: C_3  and  C_5
REMARK    4  A    between atoms: C_7  and  O_8
REMARK    5  A    between atoms: O_8  and  C_9
REMARK    6  A    between atoms: C_10  and  O_11
REMARK    7  A    between atoms: C_12  and  O_13
REMARK    8  A    between atoms: O_13  and  C_14
REMARK                            x       y       z     vdW  Elec       q    Type
REMARK                         _______ _______ _______ _____ _____    ______ ____
ROOT
ATOM      1  C   UNL     1       7.294  -4.849  25.421  0.00  0.00    +0.066 A 
ATOM      2  C   UNL     1       8.323  -3.901  25.458  0.00  0.00    +0.064 A 
ATOM      3  C   UNL     1       8.618  -3.141  24.326  0.00  0.00    +0.166 A 
ATOM      4  C   UNL     1       7.881  -3.334  23.136  0.00  0.00    +0.201 A 
ATOM      5  C   UNL     1       6.837  -4.269  23.088  0.00  0.00    +0.166 A 
ATOM      6  C   UNL     1       6.563  -5.021  24.240  0.00  0.00    +0.064 A 
ENDROOT
BRANCH   1   7
ATOM      7  C   UNL     1       6.942  -5.679  26.606  0.00  0.00    +0.339 C 
ATOM      8  O   UNL     1       7.561  -5.665  27.657  0.00  0.00    -0.245 OA
BRANCH   7  10
ATOM      9  C   UNL     1       4.990  -6.667  27.447  0.00  0.00    +0.280 C 
ATOM     10  O   UNL     1       5.857  -6.448  26.334  0.00  0.00    -0.464 OA
ENDBRANCH   7  10
ENDBRANCH   1   7
BRANCH   3  11
ATOM     11  O   UNL     1       9.594  -2.174  24.287  0.00  0.00    -0.491 OA
ATOM     12  C   UNL     1       9.347  -0.954  24.975  0.00  0.00    +0.277 C 
ENDBRANCH   3  11
BRANCH   4  13
ATOM     13  O   UNL     1       8.281  -2.580  22.064  0.00  0.00    -0.501 OA
ATOM     14  H   UNL     1       7.718  -2.776  21.307  0.00  0.00    +0.292 HD
ENDBRANCH   4  13
BRANCH   5  15
ATOM     15  O   UNL     1       6.003  -4.616  22.064  0.00  0.00    -0.491 OA
ATOM     16  C   UNL     1       6.355  -5.605  21.117  0.00  0.00    +0.277 C 
ENDBRANCH   5  15
TORSDOF 5
ENDMDL
MODEL 7
REMARK VINA RESULT:      -4.7      2.889      5.133
REMARK  Name = 
REMARK  8 active torsions:
REMARK  status: ('A' for Active; 'I' for Inactive)
REMARK    1  A    between atoms: C_1  and  O_2
REMARK    2  A    between atoms: O_2  and  C_3
REMARK    3  A    between atoms: C_3  and  C_5
REMARK    4  A    between atoms: C_7  and  O_8
REMARK    5  A    between atoms: O_8  and  C_9
REMARK    6  A    between atoms: C_10  and  O_11
REMARK    7  A    between atoms: C_12  and  O_13
REMARK    8  A    between atoms: O_13  and  C_14
REMARK                            x       y       z     vdW  Elec       q    Type
REMARK                         _______ _______ _______ _____ _____    ______ ____
ROOT
ATOM      1  C   UNL     1       8.974  -3.047  24.931  0.00  0.00    +0.066 A 
ATOM      2  C   UNL     1       9.618  -2.362  23.894  0.00  0.00    +0.064 A 
ATOM      3  C   UNL     1       9.865  -0.993  24.003  0.00  0.00    +0.166 A 
ATOM      4  C   UNL     1       9.456  -0.294  25.162  0.00  0.00    +0.201 A 
ATOM      5  C   UNL     1       8.824  -0.969  26.215  0.00  0.00    +0.166 A 
ATOM      6  C   UNL     1       8.586  -2.344  26.078  0.00  0.00    +0.064 A 
ENDROOT
BRANCH   1   7
ATOM      7  C   UNL     1       8.694  -4.507  24.858  0.00  0.00    +0.339 C 
ATOM      8  O   UNL     1       9.533  -5.350  24.586  0.00  0.00    -0.245 OA
BRANCH   7  10
ATOM      9  C   UNL     1       6.565  -4.906  23.963  0.00  0.00    +0.280 C 
ATOM     10  O   UNL     1       7.384  -4.746  25.121  0.00  0.00    -0.464 OA
ENDBRANCH   7  10
ENDBRANCH   1   7
BRANCH   3  11
ATOM     11  O   UNL     1      10.513  -0.253  23.043  0.00  0.00    -0.491 OA
ATOM     12  C   UNL     1       9.841  -0.034  21.808  0.00  0.00    +0.277 C 
ENDBRANCH   3  11
BRANCH   4  13
ATOM     13  O   UNL     1       9.693   1.056  25.152  0.00  0.00    -0.501 OA
ATOM     14  H   UNL     1      10.330   1.264  24.460  0.00  0.00    +0.292 HD
ENDBRANCH   4  13
BRANCH   5  15
ATOM     15  O   UNL     1       8.353  -0.505  27.410  0.00  0.00    -0.491 OA
ATOM     16  C   UNL     1       7.147   0.228  27.503  0.00  0.00    +0.277 C 
ENDBRANCH   5  15
TORSDOF 5
ENDMDL
MODEL 8
REMARK VINA RESULT:      -4.7      1.308      4.188
REMARK  Name = 
REMARK  8 active torsions:
REMARK  status: ('A' for Active; 'I' for Inactive)
REMARK    1  A    between atoms: C_1  and  O_2
REMARK    2  A    between atoms: O_2  and  C_3
REMARK    3  A    between atoms: C_3  and  C_5
REMARK    4  A    between atoms: C_7  and  O_8
REMARK    5  A    between atoms: O_8  and  C_9
REMARK    6  A    between atoms: C_10  and  O_11
REMARK    7  A    between atoms: C_12  and  O_13
REMARK    8  A    between atoms: O_13  and  C_14
REMARK                            x       y       z     vdW  Elec       q    Type
REMARK                         _______ _______ _______ _____ _____    ______ ____
ROOT
ATOM      1  C   UNL     1       8.653  -3.230  23.710  0.00  0.00    +0.066 A 
ATOM      2  C   UNL     1       8.530  -3.952  24.903  0.00  0.00    +0.064 A 
ATOM      3  C   UNL     1       7.531  -4.916  25.041  0.00  0.00    +0.166 A 
ATOM      4  C   UNL     1       6.635  -5.159  23.975  0.00  0.00    +0.201 A 
ATOM      5  C   UNL     1       6.755  -4.455  22.769  0.00  0.00    +0.166 A 
ATOM      6  C   UNL     1       7.767  -3.490  22.659  0.00  0.00    +0.064 A 
ENDROOT
BRANCH   1   7
ATOM      7  C   UNL     1       9.706  -2.195  23.518  0.00  0.00    +0.339 C 
ATOM      8  O   UNL     1      10.381  -2.088  22.508  0.00  0.00    -0.245 OA
BRANCH   7  10
ATOM      9  C   UNL     1      10.196  -0.068  24.371  0.00  0.00    +0.280 C 
ATOM     10  O   UNL     1       9.805  -1.417  24.626  0.00  0.00    -0.464 OA
ENDBRANCH   7  10
ENDBRANCH   1   7
BRANCH   3  11
ATOM     11  O   UNL     1       7.360  -5.684  26.168  0.00  0.00    -0.491 OA
ATOM     12  C   UNL     1       6.921  -5.034  27.354  0.00  0.00    +0.277 C 
ENDBRANCH   3  11
BRANCH   4  13
ATOM     13  O   UNL     1       5.656  -6.084  24.226  0.00  0.00    -0.501 OA
ATOM     14  H   UNL     1       6.040  -6.843  24.677  0.00  0.00    +0.292 HD
ENDBRANCH   4  13
BRANCH   5  15
ATOM     15  O   UNL     1       6.015  -4.526  21.623  0.00  0.00    -0.491 OA
ATOM     16  C   UNL     1       6.128  -5.613  20.727  0.00  0.00    +0.277 C 
ENDBRANCH   5  15
TORSDOF 5
ENDMDL
MODEL 9
REMARK VINA RESULT:      -4.6      1.184      4.789
REMARK  Name = 
REMARK  8 active torsions:
REMARK  status: ('A' for Active; 'I' for Inactive)
REMARK    1  A    between atoms: C_1  and  O_2
REMARK    2  A    between atoms: O_2  and  C_3
REMARK    3  A    between atoms: C_3  and  C_5
REMARK    4  A    between atoms: C_7  and  O_8
REMARK    5  A    between atoms: O_8  and  C_9
REMARK    6  A    between atoms: C_10  and  O_11
REMARK    7  A    between atoms: C_12  and  O_13
REMARK    8  A    between atoms: O_13  and  C_14
REMARK                            x       y       z     vdW  Elec       q    Type
REMARK                         _______ _______ _______ _____ _____    ______ ____
ROOT
ATOM      1  C   UNL     1       8.413  -3.436  23.871  0.00  0.00    +0.066 A 
ATOM      2  C   UNL     1       7.548  -3.671  22.796  0.00  0.00    +0.064 A 
ATOM      3  C   UNL     1       6.537  -4.627  22.904  0.00  0.00    +0.166 A 
ATOM      4  C   UNL     1       6.390  -5.365  24.100  0.00  0.00    +0.201 A 
ATOM      5  C   UNL     1       7.239  -5.131  25.191  0.00  0.00    +0.166 A 
ATOM      6  C   UNL     1       8.248  -4.166  25.054  0.00  0.00    +0.064 A 
ENDROOT
BRANCH   1   7
ATOM      7  C   UNL     1       9.503  -2.424  23.802  0.00  0.00    +0.339 C 
ATOM      8  O   UNL     1      10.571  -2.609  23.242  0.00  0.00    -0.245 OA
BRANCH   7  10
ATOM      9  C   UNL     1      10.168  -0.317  24.583  0.00  0.00    +0.280 C 
ATOM     10  O   UNL     1       9.134  -1.294  24.457  0.00  0.00    -0.464 OA
ENDBRANCH   7  10
ENDBRANCH   1   7
BRANCH   3  11
ATOM     11  O   UNL     1       5.633  -4.899  21.905  0.00  0.00    -0.491 OA
ATOM     12  C   UNL     1       6.080  -5.669  20.796  0.00  0.00    +0.277 C 
ENDBRANCH   3  11
BRANCH   4  13
ATOM     13  O   UNL     1       5.405  -6.318  24.089  0.00  0.00    -0.501 OA
ATOM     14  H   UNL     1       5.784  -7.167  23.839  0.00  0.00    +0.292 HD
ENDBRANCH   4  13
BRANCH   5  15
ATOM     15  O   UNL     1       7.279  -5.714  26.425  0.00  0.00    -0.491 OA
ATOM     16  C   UNL     1       6.542  -5.201  27.517  0.00  0.00    +0.277 C 
ENDBRANCH   5  15
TORSDOF 5
ENDMDL
