MODEL 1
REMARK VINA RESULT:      -7.0      0.000      0.000
REMARK  Name = 
REMARK  13 active torsions:
REMARK  status: ('A' for Active; 'I' for Inactive)
REMARK    1  A    between atoms: C_2  and  C_3
REMARK    2  A    between atoms: C_2  and  N_10
REMARK    3  A    between atoms: C_2  and  C_33
REMARK    4  A    between atoms: C_3  and  C_4
REMARK    5  A    between atoms: C_11  and  C_13
REMARK    6  A    between atoms: C_13  and  C_15
REMARK    7  A    between atoms: C_13  and  N_22
REMARK    8  A    between atoms: C_15  and  C_16
REMARK    9  A    between atoms: C_23  and  O_25
REMARK   10  A    between atoms: O_25  and  C_26
REMARK   11  A    between atoms: C_26  and  C_27
REMARK   12  A    between atoms: C_33  and  C_35
REMARK   13  A    between atoms: C_35  and  O_36
REMARK                            x       y       z     vdW  Elec       q    Type
REMARK                         _______ _______ _______ _____ _____    ______ ____
ROOT
ATOM      1  C   UNL     1       8.640  -2.431  25.151  0.00  0.00    +0.166 C 
ENDROOT
BRANCH   1   4
ATOM      2  N   UNL     1       8.980  -0.356  23.869  0.00  0.00    -0.304 N 
ATOM      3  H   UNL     1       9.511  -0.940  23.232  0.00  0.00    +0.149 HD
ATOM      4  C   UNL     1       8.351  -0.925  24.972  0.00  0.00    +0.234 C 
ATOM      5  O   UNL     1       7.727  -0.231  25.767  0.00  0.00    -0.274 OA
BRANCH   2   6
ATOM      6  C   UNL     1       8.952   1.089  23.623  0.00  0.00    +0.146 C 
BRANCH   6   7
ATOM      7  C   UNL     1       8.256   1.273  22.275  0.00  0.00    +0.179 C 
ATOM      8  O   UNL     1       8.818   1.044  21.200  0.00  0.00    -0.293 OA
BRANCH   7   9
ATOM      9  C   UNL     1       6.771   1.615  22.334  0.00  0.00    +0.232 C 
BRANCH   9  10
ATOM     10  O   UNL     1       6.093   0.935  23.378  0.00  0.00    -0.387 OA
ATOM     11  H   UNL     1       6.778   0.471  23.899  0.00  0.00    +0.210 HD
ENDBRANCH   9  10
ENDBRANCH   7   9
ENDBRANCH   6   7
BRANCH   6  12
ATOM     12  C   UNL     1      10.376   1.680  23.612  0.00  0.00    +0.065 C 
BRANCH  12  13
ATOM     13  C   UNL     1      10.425   3.189  23.725  0.00  0.00    -0.045 A 
ATOM     14  C   UNL     1      11.584   3.886  23.352  0.00  0.00    +0.004 A 
ATOM     15  C   UNL     1      11.634   5.279  23.424  0.00  0.00    +0.000 A 
ATOM     16  C   UNL     1      10.526   5.993  23.873  0.00  0.00    +0.000 A 
ATOM     17  C   UNL     1       9.375   5.312  24.267  0.00  0.00    +0.000 A 
ATOM     18  C   UNL     1       9.326   3.916  24.201  0.00  0.00    +0.004 A 
ENDBRANCH  12  13
ENDBRANCH   6  12
ENDBRANCH   2   6
ENDBRANCH   1   4
BRANCH   1  19
ATOM     19  N   UNL     1       7.470  -3.035  25.811  0.00  0.00    -0.269 N 
ATOM     20  H   UNL     1       6.540  -2.679  25.646  0.00  0.00    +0.153 HD
ATOM     21  C   UNL     1       7.575  -4.075  26.693  0.00  0.00    +0.401 C 
ATOM     22  O   UNL     1       8.612  -4.631  27.007  0.00  0.00    -0.226 OA
BRANCH  21  23
ATOM     23  O   UNL     1       6.348  -4.399  27.172  0.00  0.00    -0.446 OA
BRANCH  23  24
ATOM     24  C   UNL     1       5.907  -5.725  26.839  0.00  0.00    +0.269 C 
BRANCH  24  25
ATOM     25  C   UNL     1       4.917  -5.679  25.704  0.00  0.00    -0.010 A 
ATOM     26  C   UNL     1       4.385  -4.455  25.272  0.00  0.00    +0.007 A 
ATOM     27  C   UNL     1       3.456  -4.414  24.230  0.00  0.00    +0.000 A 
ATOM     28  C   UNL     1       3.056  -5.594  23.605  0.00  0.00    +0.000 A 
ATOM     29  C   UNL     1       3.581  -6.816  24.024  0.00  0.00    +0.000 A 
ATOM     30  C   UNL     1       4.509  -6.859  25.066  0.00  0.00    +0.007 A 
ENDBRANCH  24  25
ENDBRANCH  23  24
ENDBRANCH  21  23
ENDBRANCH   1  19
BRANCH   1  31
ATOM     31  C   UNL     1       9.017  -3.175  23.857  0.00  0.00    +0.067 C 
BRANCH  31  32
ATOM     32  C   UNL     1       7.900  -3.870  23.120  0.00  0.00    -0.045 A 
ATOM     33  C   UNL     1       7.817  -5.269  23.161  0.00  0.00    +0.004 A 
ATOM     34  C   UNL     1       6.879  -5.952  22.388  0.00  0.00    +0.000 A 
ATOM     35  C   UNL     1       6.005  -5.240  21.572  0.00  0.00    +0.000 A 
ATOM     36  C   UNL     1       6.059  -3.847  21.542  0.00  0.00    +0.000 A 
ATOM     37  C   UNL     1       7.000  -3.160  22.315  0.00  0.00    +0.004 A 
ENDBRANCH  31  32
ENDBRANCH   1  31
TORSDOF 13
ENDMDL
MODEL 2
REMARK VINA RESULT:      -6.9      2.230      3.441
REMARK  Name = 
REMARK  13 active torsions:
REMARK  status: ('A' for Active; 'I' for Inactive)
REMARK    1  A    between atoms: C_2  and  C_3
REMARK    2  A    between atoms: C_2  and  N_10
REMARK    3  A    between atoms: C_2  and  C_33
REMARK    4  A    between atoms: C_3  and  C_4
REMARK    5  A    between atoms: C_11  and  C_13
REMARK    6  A    between atoms: C_13  and  C_15
REMARK    7  A    between atoms: C_13  and  N_22
REMARK    8  A    between atoms: C_15  and  C_16
REMARK    9  A    between atoms: C_23  and  O_25
REMARK   10  A    between atoms: O_25  and  C_26
REMARK   11  A    between atoms: C_26  and  C_27
REMARK   12  A    between atoms: C_33  and  C_35
REMARK   13  A    between atoms: C_35  and  O_36
REMARK                            x       y       z     vdW  Elec       q    Type
REMARK                         _______ _______ _______ _____ _____    ______ ____
ROOT
ATOM      1  C   UNL     1       8.323  -3.276  26.646  0.00  0.00    +0.166 C 
ENDROOT
BRANCH   1   4
ATOM      2  N   UNL     1       7.061  -1.196  26.266  0.00  0.00    -0.304 N 
ATOM      3  H   UNL     1       6.299  -1.810  25.998  0.00  0.00    +0.149 HD
ATOM      4  C   UNL     1       8.263  -1.734  26.714  0.00  0.00    +0.234 C 
ATOM      5  O   UNL     1       9.203  -1.009  27.018  0.00  0.00    -0.274 OA
BRANCH   2   6
ATOM      6  C   UNL     1       6.872   0.249  26.109  0.00  0.00    +0.146 C 
BRANCH   6   7
ATOM      7  C   UNL     1       5.774   0.640  27.097  0.00  0.00    +0.179 C 
ATOM      8  O   UNL     1       4.573   0.518  26.840  0.00  0.00    -0.293 OA
BRANCH   7   9
ATOM      9  C   UNL     1       6.247   1.054  28.487  0.00  0.00    +0.232 C 
BRANCH   9  10
ATOM     10  O   UNL     1       7.660   1.052  28.609  0.00  0.00    -0.387 OA
ATOM     11  H   UNL     1       7.919   1.959  28.868  0.00  0.00    +0.210 HD
ENDBRANCH   9  10
ENDBRANCH   7   9
ENDBRANCH   6   7
BRANCH   6  12
ATOM     12  C   UNL     1       6.484   0.606  24.660  0.00  0.00    +0.065 C 
BRANCH  12  13
ATOM     13  C   UNL     1       7.626   1.142  23.824  0.00  0.00    -0.045 A 
ATOM     14  C   UNL     1       8.904   1.290  24.386  0.00  0.00    +0.004 A 
ATOM     15  C   UNL     1       9.972   1.757  23.618  0.00  0.00    +0.000 A 
ATOM     16  C   UNL     1       9.776   2.085  22.279  0.00  0.00    +0.000 A 
ATOM     17  C   UNL     1       8.508   1.962  21.713  0.00  0.00    +0.000 A 
ATOM     18  C   UNL     1       7.436   1.501  22.482  0.00  0.00    +0.004 A 
ENDBRANCH  12  13
ENDBRANCH   6  12
ENDBRANCH   2   6
ENDBRANCH   1   4
BRANCH   1  19
ATOM     19  N   UNL     1       6.945  -3.782  26.760  0.00  0.00    -0.269 N 
ATOM     20  H   UNL     1       6.161  -3.235  26.433  0.00  0.00    +0.153 HD
ATOM     21  C   UNL     1       6.645  -4.988  27.331  0.00  0.00    +0.401 C 
ATOM     22  O   UNL     1       7.459  -5.780  27.774  0.00  0.00    -0.226 OA
BRANCH  21  23
ATOM     23  O   UNL     1       5.302  -5.177  27.335  0.00  0.00    -0.446 OA
BRANCH  23  24
ATOM     24  C   UNL     1       4.839  -6.196  26.435  0.00  0.00    +0.269 C 
BRANCH  24  25
ATOM     25  C   UNL     1       4.922  -5.714  25.009  0.00  0.00    -0.010 A 
ATOM     26  C   UNL     1       4.231  -4.562  24.606  0.00  0.00    +0.007 A 
ATOM     27  C   UNL     1       4.297  -4.123  23.281  0.00  0.00    +0.000 A 
ATOM     28  C   UNL     1       5.058  -4.828  22.349  0.00  0.00    +0.000 A 
ATOM     29  C   UNL     1       5.752  -5.972  22.741  0.00  0.00    +0.000 A 
ATOM     30  C   UNL     1       5.687  -6.412  24.064  0.00  0.00    +0.007 A 
ENDBRANCH  24  25
ENDBRANCH  23  24
ENDBRANCH  21  23
ENDBRANCH   1  19
BRANCH   1  31
ATOM     31  C   UNL     1       9.041  -3.841  25.408  0.00  0.00    +0.067 C 
BRANCH  31  32
ATOM     32  C   UNL     1       9.036  -2.984  24.166  0.00  0.00    -0.045 A 
ATOM     33  C   UNL     1       7.878  -2.926  23.378  0.00  0.00    +0.004 A 
ATOM     34  C   UNL     1       7.878  -2.251  22.158  0.00  0.00    +0.000 A 
ATOM     35  C   UNL     1       9.036  -1.617  21.718  0.00  0.00    +0.000 A 
ATOM     36  C   UNL     1      10.187  -1.644  22.506  0.00  0.00    +0.000 A 
ATOM     37  C   UNL     1      10.189  -2.322  23.728  0.00  0.00    +0.004 A 
ENDBRANCH  31  32
ENDBRANCH   1  31
TORSDOF 13
ENDMDL
MODEL 3
REMARK VINA RESULT:      -6.8      1.550      2.349
REMARK  Name = 
REMARK  13 active torsions:
REMARK  status: ('A' for Active; 'I' for Inactive)
REMARK    1  A    between atoms: C_2  and  C_3
REMARK    2  A    between atoms: C_2  and  N_10
REMARK    3  A    between atoms: C_2  and  C_33
REMARK    4  A    between atoms: C_3  and  C_4
REMARK    5  A    between atoms: C_11  and  C_13
REMARK    6  A    between atoms: C_13  and  C_15
REMARK    7  A    between atoms: C_13  and  N_22
REMARK    8  A    between atoms: C_15  and  C_16
REMARK    9  A    between atoms: C_23  and  O_25
REMARK   10  A    between atoms: O_25  and  C_26
REMARK   11  A    between atoms: C_26  and  C_27
REMARK   12  A    between atoms: C_33  and  C_35
REMARK   13  A    between atoms: C_35  and  O_36
REMARK                            x       y       z     vdW  Elec       q    Type
REMARK                         _______ _______ _______ _____ _____    ______ ____
ROOT
ATOM      1  C   UNL     1       9.377  -2.492  23.701  0.00  0.00    +0.166 C 
ENDROOT
BRANCH   1   4
ATOM      2  N   UNL     1       8.669  -0.337  24.659  0.00  0.00    -0.304 N 
ATOM      3  H   UNL     1       7.779  -0.798  24.816  0.00  0.00    +0.149 HD
ATOM      4  C   UNL     1       9.733  -1.046  24.113  0.00  0.00    +0.234 C 
ATOM      5  O   UNL     1      10.807  -0.498  23.892  0.00  0.00    -0.274 OA
BRANCH   2   6
ATOM      6  C   UNL     1       8.769   1.094  24.965  0.00  0.00    +0.146 C 
BRANCH   6   7
ATOM      7  C   UNL     1       7.665   1.384  25.982  0.00  0.00    +0.179 C 
ATOM      8  O   UNL     1       6.904   2.349  25.879  0.00  0.00    -0.293 OA
BRANCH   7   9
ATOM      9  C   UNL     1       7.459   0.325  27.060  0.00  0.00    +0.232 C 
BRANCH   9  10
ATOM     10  O   UNL     1       8.678  -0.241  27.514  0.00  0.00    -0.387 OA
ATOM     11  H   UNL     1       8.966   0.295  28.279  0.00  0.00    +0.210 HD
ENDBRANCH   9  10
ENDBRANCH   7   9
ENDBRANCH   6   7
BRANCH   6  12
ATOM     12  C   UNL     1       8.608   1.948  23.693  0.00  0.00    +0.065 C 
BRANCH  12  13
ATOM     13  C   UNL     1       9.492   3.177  23.652  0.00  0.00    -0.045 A 
ATOM     14  C   UNL     1      10.871   3.046  23.429  0.00  0.00    +0.004 A 
ATOM     15  C   UNL     1      11.693   4.172  23.360  0.00  0.00    +0.000 A 
ATOM     16  C   UNL     1      11.147   5.443  23.516  0.00  0.00    +0.000 A 
ATOM     17  C   UNL     1       9.782   5.587  23.758  0.00  0.00    +0.000 A 
ATOM     18  C   UNL     1       8.958   4.460  23.834  0.00  0.00    +0.004 A 
ENDBRANCH  12  13
ENDBRANCH   6  12
ENDBRANCH   2   6
ENDBRANCH   1   4
BRANCH   1  19
ATOM     19  N   UNL     1       8.807  -3.164  24.880  0.00  0.00    -0.269 N 
ATOM     20  H   UNL     1       8.044  -2.750  25.396  0.00  0.00    +0.153 HD
ATOM     21  C   UNL     1       9.285  -4.354  25.356  0.00  0.00    +0.401 C 
ATOM     22  O   UNL     1      10.193  -4.997  24.860  0.00  0.00    -0.226 OA
BRANCH  21  23
ATOM     23  O   UNL     1       8.599  -4.716  26.468  0.00  0.00    -0.446 OA
BRANCH  23  24
ATOM     24  C   UNL     1       7.497  -3.856  26.798  0.00  0.00    +0.269 C 
BRANCH  24  25
ATOM     25  C   UNL     1       6.188  -4.558  26.541  0.00  0.00    -0.010 A 
ATOM     26  C   UNL     1       4.974  -3.866  26.659  0.00  0.00    +0.007 A 
ATOM     27  C   UNL     1       3.761  -4.520  26.434  0.00  0.00    +0.000 A 
ATOM     28  C   UNL     1       3.749  -5.869  26.083  0.00  0.00    +0.000 A 
ATOM     29  C   UNL     1       4.951  -6.566  25.959  0.00  0.00    +0.000 A 
ATOM     30  C   UNL     1       6.165  -5.914  26.184  0.00  0.00    +0.007 A 
ENDBRANCH  24  25
ENDBRANCH  23  24
ENDBRANCH  21  23
ENDBRANCH   1  19
BRANCH   1  31
ATOM     31  C   UNL     1       8.456  -2.605  22.473  0.00  0.00    +0.067 C 
BRANCH  31  32
ATOM     32  C   UNL     1       7.237  -3.481  22.614  0.00  0.00    -0.045 A 
ATOM     33  C   UNL     1       7.322  -4.837  22.264  0.00  0.00    +0.004 A 
ATOM     34  C   UNL     1       6.186  -5.644  22.256  0.00  0.00    +0.000 A 
ATOM     35  C   UNL     1       4.952  -5.107  22.610  0.00  0.00    +0.000 A 
ATOM     36  C   UNL     1       4.858  -3.768  22.986  0.00  0.00    +0.000 A 
ATOM     37  C   UNL     1       5.996  -2.955  22.992  0.00  0.00    +0.004 A 
ENDBRANCH  31  32
ENDBRANCH   1  31
TORSDOF 13
ENDMDL
MODEL 4
REMARK VINA RESULT:      -6.8      2.356      7.838
REMARK  Name = 
REMARK  13 active torsions:
REMARK  status: ('A' for Active; 'I' for Inactive)
REMARK    1  A    between atoms: C_2  and  C_3
REMARK    2  A    between atoms: C_2  and  N_10
REMARK    3  A    between atoms: C_2  and  C_33
REMARK    4  A    between atoms: C_3  and  C_4
REMARK    5  A    between atoms: C_11  and  C_13
REMARK    6  A    between atoms: C_13  and  C_15
REMARK    7  A    between atoms: C_13  and  N_22
REMARK    8  A    between atoms: C_15  and  C_16
REMARK    9  A    between atoms: C_23  and  O_25
REMARK   10  A    between atoms: O_25  and  C_26
REMARK   11  A    between atoms: C_26  and  C_27
REMARK   12  A    between atoms: C_33  and  C_35
REMARK   13  A    between atoms: C_35  and  O_36
REMARK                            x       y       z     vdW  Elec       q    Type
REMARK                         _______ _______ _______ _____ _____    ______ ____
ROOT
ATOM      1  C   UNL     1       7.790  -3.155  25.970  0.00  0.00    +0.166 C 
ENDROOT
BRANCH   1   4
ATOM      2  N   UNL     1       6.396  -4.006  24.127  0.00  0.00    -0.304 N 
ATOM      3  H   UNL     1       6.519  -3.083  23.724  0.00  0.00    +0.149 HD
ATOM      4  C   UNL     1       7.026  -4.331  25.323  0.00  0.00    +0.234 C 
ATOM      5  O   UNL     1       6.869  -5.432  25.838  0.00  0.00    -0.274 OA
BRANCH   2   6
ATOM      6  C   UNL     1       5.497  -4.943  23.446  0.00  0.00    +0.146 C 
BRANCH   6   7
ATOM      7  C   UNL     1       5.953  -4.979  21.988  0.00  0.00    +0.179 C 
ATOM      8  O   UNL     1       5.558  -4.166  21.148  0.00  0.00    -0.293 OA
BRANCH   7   9
ATOM      9  C   UNL     1       7.046  -5.991  21.657  0.00  0.00    +0.232 C 
BRANCH   9  10
ATOM     10  O   UNL     1       8.106  -5.979  22.600  0.00  0.00    -0.387 OA
ATOM     11  H   UNL     1       8.029  -6.806  23.116  0.00  0.00    +0.210 HD
ENDBRANCH   9  10
ENDBRANCH   7   9
ENDBRANCH   6   7
BRANCH   6  12
ATOM     12  C   UNL     1       4.028  -4.496  23.571  0.00  0.00    +0.065 C 
BRANCH  12  13
ATOM     13  C   UNL     1       3.561  -4.277  24.994  0.00  0.00    -0.045 A 
ATOM     14  C   UNL     1       3.286  -5.376  25.822  0.00  0.00    +0.004 A 
ATOM     15  C   UNL     1       2.881  -5.189  27.145  0.00  0.00    +0.000 A 
ATOM     16  C   UNL     1       2.745  -3.901  27.657  0.00  0.00    +0.000 A 
ATOM     17  C   UNL     1       2.996  -2.800  26.839  0.00  0.00    +0.000 A 
ATOM     18  C   UNL     1       3.395  -2.985  25.512  0.00  0.00    +0.004 A 
ENDBRANCH  12  13
ENDBRANCH   6  12
ENDBRANCH   2   6
ENDBRANCH   1   4
BRANCH   1  19
ATOM     19  N   UNL     1       8.737  -2.634  24.970  0.00  0.00    -0.269 N 
ATOM     20  H   UNL     1       8.664  -1.685  24.630  0.00  0.00    +0.153 HD
ATOM     21  C   UNL     1       9.735  -3.397  24.430  0.00  0.00    +0.401 C 
ATOM     22  O   UNL     1       9.974  -4.555  24.723  0.00  0.00    -0.226 OA
BRANCH  21  23
ATOM     23  O   UNL     1      10.425  -2.674  23.513  0.00  0.00    -0.446 OA
BRANCH  23  24
ATOM     24  C   UNL     1       9.605  -1.928  22.600  0.00  0.00    +0.269 C 
BRANCH  24  25
ATOM     25  C   UNL     1       9.832  -0.449  22.778  0.00  0.00    -0.010 A 
ATOM     26  C   UNL     1      10.541   0.033  23.888  0.00  0.00    +0.007 A 
ATOM     27  C   UNL     1      10.740   1.406  24.061  0.00  0.00    +0.000 A 
ATOM     28  C   UNL     1      10.238   2.307  23.124  0.00  0.00    +0.000 A 
ATOM     29  C   UNL     1       9.535   1.838  22.015  0.00  0.00    +0.000 A 
ATOM     30  C   UNL     1       9.335   0.467  21.841  0.00  0.00    +0.007 A 
ENDBRANCH  24  25
ENDBRANCH  23  24
ENDBRANCH  21  23
ENDBRANCH   1  19
BRANCH   1  31
ATOM     31  C   UNL     1       6.895  -2.043  26.547  0.00  0.00    +0.067 C 
BRANCH  31  32
ATOM     32  C   UNL     1       6.943  -0.702  25.859  0.00  0.00    -0.045 A 
ATOM     33  C   UNL     1       7.630   0.357  26.469  0.00  0.00    +0.004 A 
ATOM     34  C   UNL     1       7.586   1.642  25.929  0.00  0.00    +0.000 A 
ATOM     35  C   UNL     1       6.862   1.878  24.763  0.00  0.00    +0.000 A 
ATOM     36  C   UNL     1       6.198   0.828  24.131  0.00  0.00    +0.000 A 
ATOM     37  C   UNL     1       6.239  -0.461  24.673  0.00  0.00    +0.004 A 
ENDBRANCH  31  32
ENDBRANCH   1  31
TORSDOF 13
ENDMDL
MODEL 5
REMARK VINA RESULT:      -6.7      1.975      3.074
REMARK  Name = 
REMARK  13 active torsions:
REMARK  status: ('A' for Active; 'I' for Inactive)
REMARK    1  A    between atoms: C_2  and  C_3
REMARK    2  A    between atoms: C_2  and  N_10
REMARK    3  A    between atoms: C_2  and  C_33
REMARK    4  A    between atoms: C_3  and  C_4
REMARK    5  A    between atoms: C_11  and  C_13
REMARK    6  A    between atoms: C_13  and  C_15
REMARK    7  A    between atoms: C_13  and  N_22
REMARK    8  A    between atoms: C_15  and  C_16
REMARK    9  A    between atoms: C_23  and  O_25
REMARK   10  A    between atoms: O_25  and  C_26
REMARK   11  A    between atoms: C_26  and  C_27
REMARK   12  A    between atoms: C_33  and  C_35
REMARK   13  A    between atoms: C_35  and  O_36
REMARK                            x       y       z     vdW  Elec       q    Type
REMARK                         _______ _______ _______ _____ _____    ______ ____
ROOT
ATOM      1  C   UNL     1       8.367  -3.063  26.098  0.00  0.00    +0.166 C 
ENDROOT
BRANCH   1   4
ATOM      2  N   UNL     1       6.970  -1.051  25.840  0.00  0.00    -0.304 N 
ATOM      3  H   UNL     1       6.300  -1.678  25.407  0.00  0.00    +0.149 HD
ATOM      4  C   UNL     1       8.160  -1.554  26.355  0.00  0.00    +0.234 C 
ATOM      5  O   UNL     1       8.993  -0.808  26.858  0.00  0.00    -0.274 OA
BRANCH   2   6
ATOM      6  C   UNL     1       6.669   0.384  25.847  0.00  0.00    +0.146 C 
BRANCH   6   7
ATOM      7  C   UNL     1       5.402   0.543  26.688  0.00  0.00    +0.179 C 
ATOM      8  O   UNL     1       4.277   0.292  26.248  0.00  0.00    -0.293 OA
BRANCH   7   9
ATOM      9  C   UNL     1       5.618   0.890  28.157  0.00  0.00    +0.232 C 
BRANCH   9  10
ATOM     10  O   UNL     1       6.978   0.798  28.548  0.00  0.00    -0.387 OA
ATOM     11  H   UNL     1       6.991   0.324  29.403  0.00  0.00    +0.210 HD
ENDBRANCH   9  10
ENDBRANCH   7   9
ENDBRANCH   6   7
BRANCH   6  12
ATOM     12  C   UNL     1       6.471   0.919  24.416  0.00  0.00    +0.065 C 
BRANCH  12  13
ATOM     13  C   UNL     1       7.756   1.104  23.637  0.00  0.00    -0.045 A 
ATOM     14  C   UNL     1       7.853   0.640  22.316  0.00  0.00    +0.004 A 
ATOM     15  C   UNL     1       9.022   0.830  21.577  0.00  0.00    +0.000 A 
ATOM     16  C   UNL     1      10.110   1.484  22.150  0.00  0.00    +0.000 A 
ATOM     17  C   UNL     1      10.034   1.932  23.468  0.00  0.00    +0.000 A 
ATOM     18  C   UNL     1       8.866   1.738  24.211  0.00  0.00    +0.004 A 
ENDBRANCH  12  13
ENDBRANCH   6  12
ENDBRANCH   2   6
ENDBRANCH   1   4
BRANCH   1  19
ATOM     19  N   UNL     1       7.107  -3.749  26.432  0.00  0.00    -0.269 N 
ATOM     20  H   UNL     1       6.214  -3.328  26.220  0.00  0.00    +0.153 HD
ATOM     21  C   UNL     1       7.072  -4.961  27.064  0.00  0.00    +0.401 C 
ATOM     22  O   UNL     1       8.047  -5.614  27.391  0.00  0.00    -0.226 OA
BRANCH  21  23
ATOM     23  O   UNL     1       5.786  -5.333  27.279  0.00  0.00    -0.446 OA
BRANCH  23  24
ATOM     24  C   UNL     1       5.354  -6.465  26.509  0.00  0.00    +0.269 C 
BRANCH  24  25
ATOM     25  C   UNL     1       4.441  -6.024  25.394  0.00  0.00    -0.010 A 
ATOM     26  C   UNL     1       4.020  -6.936  24.415  0.00  0.00    +0.007 A 
ATOM     27  C   UNL     1       3.185  -6.523  23.373  0.00  0.00    +0.000 A 
ATOM     28  C   UNL     1       2.758  -5.198  23.304  0.00  0.00    +0.000 A 
ATOM     29  C   UNL     1       3.168  -4.284  24.274  0.00  0.00    +0.000 A 
ATOM     30  C   UNL     1       4.002  -4.695  25.316  0.00  0.00    +0.007 A 
ENDBRANCH  24  25
ENDBRANCH  23  24
ENDBRANCH  21  23
ENDBRANCH   1  19
BRANCH   1  31
ATOM     31  C   UNL     1       8.854  -3.416  24.681  0.00  0.00    +0.067 C 
BRANCH  31  32
ATOM     32  C   UNL     1       7.811  -3.877  23.695  0.00  0.00    -0.045 A 
ATOM     33  C   UNL     1       7.719  -5.241  23.381  0.00  0.00    +0.004 A 
ATOM     34  C   UNL     1       6.857  -5.686  22.380  0.00  0.00    +0.000 A 
ATOM     35  C   UNL     1       6.068  -4.771  21.689  0.00  0.00    +0.000 A 
ATOM     36  C   UNL     1       6.129  -3.416  22.010  0.00  0.00    +0.000 A 
ATOM     37  C   UNL     1       6.995  -2.967  23.012  0.00  0.00    +0.004 A 
ENDBRANCH  31  32
ENDBRANCH   1  31
TORSDOF 13
ENDMDL
MODEL 6
REMARK VINA RESULT:      -6.7      2.219      7.605
REMARK  Name = 
REMARK  13 active torsions:
REMARK  status: ('A' for Active; 'I' for Inactive)
REMARK    1  A    between atoms: C_2  and  C_3
REMARK    2  A    between atoms: C_2  and  N_10
REMARK    3  A    between atoms: C_2  and  C_33
REMARK    4  A    between atoms: C_3  and  C_4
REMARK    5  A    between atoms: C_11  and  C_13
REMARK    6  A    between atoms: C_13  and  C_15
REMARK    7  A    between atoms: C_13  and  N_22
REMARK    8  A    between atoms: C_15  and  C_16
REMARK    9  A    between atoms: C_23  and  O_25
REMARK   10  A    between atoms: O_25  and  C_26
REMARK   11  A    between atoms: C_26  and  C_27
REMARK   12  A    between atoms: C_33  and  C_35
REMARK   13  A    between atoms: C_35  and  O_36
REMARK                            x       y       z     vdW  Elec       q    Type
REMARK                         _______ _______ _______ _____ _____    ______ ____
ROOT
ATOM      1  C   UNL     1       9.131  -2.524  24.711  0.00  0.00    +0.166 C 
ENDROOT
BRANCH   1   4
ATOM      2  N   UNL     1       7.272  -3.963  23.978  0.00  0.00    -0.304 N 
ATOM      3  H   UNL     1       6.733  -3.104  23.951  0.00  0.00    +0.149 HD
ATOM      4  C   UNL     1       8.623  -3.926  24.308  0.00  0.00    +0.234 C 
ATOM      5  O   UNL     1       9.284  -4.956  24.371  0.00  0.00    -0.274 OA
BRANCH   2   6
ATOM      6  C   UNL     1       6.573  -5.226  23.722  0.00  0.00    +0.146 C 
BRANCH   6   7
ATOM      7  C   UNL     1       5.741  -4.998  22.460  0.00  0.00    +0.179 C 
ATOM      8  O   UNL     1       4.767  -5.697  22.170  0.00  0.00    -0.293 OA
BRANCH   7   9
ATOM      9  C   UNL     1       6.093  -3.756  21.647  0.00  0.00    +0.232 C 
BRANCH   9  10
ATOM     10  O   UNL     1       5.497  -2.576  22.163  0.00  0.00    -0.387 OA
ATOM     11  H   UNL     1       5.074  -2.125  21.406  0.00  0.00    +0.210 HD
ENDBRANCH   9  10
ENDBRANCH   7   9
ENDBRANCH   6   7
BRANCH   6  12
ATOM     12  C   UNL     1       5.689  -5.627  24.919  0.00  0.00    +0.065 C 
BRANCH  12  13
ATOM     13  C   UNL     1       5.148  -4.457  25.713  0.00  0.00    -0.045 A 
ATOM     14  C   UNL     1       4.074  -3.703  25.215  0.00  0.00    +0.004 A 
ATOM     15  C   UNL     1       3.547  -2.640  25.949  0.00  0.00    +0.000 A 
ATOM     16  C   UNL     1       4.088  -2.314  27.190  0.00  0.00    +0.000 A 
ATOM     17  C   UNL     1       5.168  -3.042  27.688  0.00  0.00    +0.000 A 
ATOM     18  C   UNL     1       5.701  -4.103  26.951  0.00  0.00    +0.004 A 
ENDBRANCH  12  13
ENDBRANCH   6  12
ENDBRANCH   2   6
ENDBRANCH   1   4
BRANCH   1  19
ATOM     19  N   UNL     1       8.822  -1.603  23.604  0.00  0.00    -0.269 N 
ATOM     20  H   UNL     1       7.940  -1.113  23.567  0.00  0.00    +0.153 HD
ATOM     21  C   UNL     1       9.683  -1.381  22.565  0.00  0.00    +0.401 C 
ATOM     22  O   UNL     1      10.788  -1.880  22.446  0.00  0.00    -0.226 OA
BRANCH  21  23
ATOM     23  O   UNL     1       9.124  -0.521  21.678  0.00  0.00    -0.446 OA
BRANCH  23  24
ATOM     24  C   UNL     1       9.702   0.794  21.673  0.00  0.00    +0.269 C 
BRANCH  24  25
ATOM     25  C   UNL     1       8.936   1.707  22.596  0.00  0.00    -0.010 A 
ATOM     26  C   UNL     1       7.718   2.271  22.189  0.00  0.00    +0.007 A 
ATOM     27  C   UNL     1       7.015   3.129  23.039  0.00  0.00    +0.000 A 
ATOM     28  C   UNL     1       7.519   3.425  24.304  0.00  0.00    +0.000 A 
ATOM     29  C   UNL     1       8.727   2.867  24.720  0.00  0.00    +0.000 A 
ATOM     30  C   UNL     1       9.432   2.010  23.872  0.00  0.00    +0.007 A 
ENDBRANCH  24  25
ENDBRANCH  23  24
ENDBRANCH  21  23
ENDBRANCH   1  19
BRANCH   1  31
ATOM     31  C   UNL     1       8.597  -2.005  26.057  0.00  0.00    +0.067 C 
BRANCH  31  32
ATOM     32  C   UNL     1       7.597  -0.877  26.005  0.00  0.00    -0.045 A 
ATOM     33  C   UNL     1       7.517   0.018  27.082  0.00  0.00    +0.004 A 
ATOM     34  C   UNL     1       6.519   0.991  27.127  0.00  0.00    +0.000 A 
ATOM     35  C   UNL     1       5.597   1.087  26.089  0.00  0.00    +0.000 A 
ATOM     36  C   UNL     1       5.683   0.221  25.000  0.00  0.00    +0.000 A 
ATOM     37  C   UNL     1       6.681  -0.757  24.953  0.00  0.00    +0.004 A 
ENDBRANCH  31  32
ENDBRANCH   1  31
TORSDOF 13
ENDMDL
MODEL 7
REMARK VINA RESULT:      -6.5      2.377      5.004
REMARK  Name = 
REMARK  13 active torsions:
REMARK  status: ('A' for Active; 'I' for Inactive)
REMARK    1  A    between atoms: C_2  and  C_3
REMARK    2  A    between atoms: C_2  and  N_10
REMARK    3  A    between atoms: C_2  and  C_33
REMARK    4  A    between atoms: C_3  and  C_4
REMARK    5  A    between atoms: C_11  and  C_13
REMARK    6  A    between atoms: C_13  and  C_15
REMARK    7  A    between atoms: C_13  and  N_22
REMARK    8  A    between atoms: C_15  and  C_16
REMARK    9  A    between atoms: C_23  and  O_25
REMARK   10  A    between atoms: O_25  and  C_26
REMARK   11  A    between atoms: C_26  and  C_27
REMARK   12  A    between atoms: C_33  and  C_35
REMARK   13  A    between atoms: C_35  and  O_36
REMARK                            x       y       z     vdW  Elec       q    Type
REMARK                         _______ _______ _______ _____ _____    ______ ____
ROOT
ATOM      1  C   UNL     1       5.921  -0.673  25.222  0.00  0.00    +0.166 C 
ENDROOT
BRANCH   1   4
ATOM      2  N   UNL     1       7.843  -2.051  24.536  0.00  0.00    -0.304 N 
ATOM      3  H   UNL     1       8.242  -1.783  25.430  0.00  0.00    +0.149 HD
ATOM      4  C   UNL     1       6.564  -1.628  24.192  0.00  0.00    +0.234 C 
ATOM      5  O   UNL     1       6.076  -1.919  23.106  0.00  0.00    -0.274 OA
BRANCH   2   6
ATOM      6  C   UNL     1       8.674  -2.832  23.614  0.00  0.00    +0.146 C 
BRANCH   6   7
ATOM      7  C   UNL     1       8.681  -4.259  24.162  0.00  0.00    +0.179 C 
ATOM      8  O   UNL     1       8.185  -5.209  23.549  0.00  0.00    -0.293 OA
BRANCH   7   9
ATOM      9  C   UNL     1       9.470  -4.474  25.449  0.00  0.00    +0.232 C 
BRANCH   9  10
ATOM     10  O   UNL     1      10.329  -5.601  25.384  0.00  0.00    -0.387 OA
ATOM     11  H   UNL     1      10.800  -5.544  24.529  0.00  0.00    +0.210 HD
ENDBRANCH   9  10
ENDBRANCH   7   9
ENDBRANCH   6   7
BRANCH   6  12
ATOM     12  C   UNL     1      10.099  -2.253  23.521  0.00  0.00    +0.065 C 
BRANCH  12  13
ATOM     13  C   UNL     1      10.150  -0.762  23.265  0.00  0.00    -0.045 A 
ATOM     14  C   UNL     1       9.752  -0.246  22.022  0.00  0.00    +0.004 A 
ATOM     15  C   UNL     1       9.768   1.129  21.782  0.00  0.00    +0.000 A 
ATOM     16  C   UNL     1      10.185   2.006  22.780  0.00  0.00    +0.000 A 
ATOM     17  C   UNL     1      10.603   1.505  24.013  0.00  0.00    +0.000 A 
ATOM     18  C   UNL     1      10.593   0.128  24.253  0.00  0.00    +0.004 A 
ENDBRANCH  12  13
ENDBRANCH   6  12
ENDBRANCH   2   6
ENDBRANCH   1   4
BRANCH   1  19
ATOM     19  N   UNL     1       5.525  -1.478  26.390  0.00  0.00    -0.269 N 
ATOM     20  H   UNL     1       6.132  -1.563  27.192  0.00  0.00    +0.153 HD
ATOM     21  C   UNL     1       4.346  -2.169  26.445  0.00  0.00    +0.401 C 
ATOM     22  O   UNL     1       3.493  -2.178  25.575  0.00  0.00    -0.226 OA
BRANCH  21  23
ATOM     23  O   UNL     1       4.263  -2.849  27.615  0.00  0.00    -0.446 OA
BRANCH  23  24
ATOM     24  C   UNL     1       5.165  -3.961  27.726  0.00  0.00    +0.269 C 
BRANCH  24  25
ATOM     25  C   UNL     1       4.658  -5.130  26.922  0.00  0.00    -0.010 A 
ATOM     26  C   UNL     1       5.371  -5.588  25.805  0.00  0.00    +0.007 A 
ATOM     27  C   UNL     1       4.894  -6.663  25.051  0.00  0.00    +0.000 A 
ATOM     28  C   UNL     1       3.704  -7.294  25.410  0.00  0.00    +0.000 A 
ATOM     29  C   UNL     1       2.989  -6.849  26.521  0.00  0.00    +0.000 A 
ATOM     30  C   UNL     1       3.464  -5.775  27.276  0.00  0.00    +0.007 A 
ENDBRANCH  24  25
ENDBRANCH  23  24
ENDBRANCH  21  23
ENDBRANCH   1  19
BRANCH   1  31
ATOM     31  C   UNL     1       6.795   0.528  25.622  0.00  0.00    +0.067 C 
BRANCH  31  32
ATOM     32  C   UNL     1       6.899   1.658  24.629  0.00  0.00    -0.045 A 
ATOM     33  C   UNL     1       7.374   2.906  25.058  0.00  0.00    +0.004 A 
ATOM     34  C   UNL     1       7.361   4.007  24.202  0.00  0.00    +0.000 A 
ATOM     35  C   UNL     1       6.883   3.868  22.902  0.00  0.00    +0.000 A 
ATOM     36  C   UNL     1       6.433   2.626  22.455  0.00  0.00    +0.000 A 
ATOM     37  C   UNL     1       6.443   1.522  23.313  0.00  0.00    +0.004 A 
ENDBRANCH  31  32
ENDBRANCH   1  31
TORSDOF 13
ENDMDL
MODEL 8
REMARK VINA RESULT:      -6.4      2.051      8.050
REMARK  Name = 
REMARK  13 active torsions:
REMARK  status: ('A' for Active; 'I' for Inactive)
REMARK    1  A    between atoms: C_2  and  C_3
REMARK    2  A    between atoms: C_2  and  N_10
REMARK    3  A    between atoms: C_2  and  C_33
REMARK    4  A    between atoms: C_3  and  C_4
REMARK    5  A    between atoms: C_11  and  C_13
REMARK    6  A    between atoms: C_13  and  C_15
REMARK    7  A    between atoms: C_13  and  N_22
REMARK    8  A    between atoms: C_15  and  C_16
REMARK    9  A    between atoms: C_23  and  O_25
REMARK   10  A    between atoms: O_25  and  C_26
REMARK   11  A    between atoms: C_26  and  C_27
REMARK   12  A    between atoms: C_33  and  C_35
REMARK   13  A    between atoms: C_35  and  O_36
REMARK                            x       y       z     vdW  Elec       q    Type
REMARK                         _______ _______ _______ _____ _____    ______ ____
ROOT
ATOM      1  C   UNL     1       5.988  -1.087  25.982  0.00  0.00    +0.166 C 
ENDROOT
BRANCH   1   4
ATOM      2  N   UNL     1       5.527  -3.506  25.963  0.00  0.00    -0.304 N 
ATOM      3  H   UNL     1       6.456  -3.592  25.565  0.00  0.00    +0.149 HD
ATOM      4  C   UNL     1       5.042  -2.256  26.335  0.00  0.00    +0.234 C 
ATOM      5  O   UNL     1       3.912  -2.131  26.793  0.00  0.00    -0.274 OA
BRANCH   2   6
ATOM      6  C   UNL     1       4.707  -4.717  26.072  0.00  0.00    +0.146 C 
BRANCH   6   7
ATOM      7  C   UNL     1       5.670  -5.843  26.450  0.00  0.00    +0.179 C 
ATOM      8  O   UNL     1       5.283  -6.978  26.743  0.00  0.00    -0.293 OA
BRANCH   7   9
ATOM      9  C   UNL     1       7.155  -5.528  26.298  0.00  0.00    +0.232 C 
BRANCH   9  10
ATOM     10  O   UNL     1       7.693  -4.864  27.430  0.00  0.00    -0.387 OA
ATOM     11  H   UNL     1       7.270  -5.266  28.215  0.00  0.00    +0.210 HD
ENDBRANCH   9  10
ENDBRANCH   7   9
ENDBRANCH   6   7
BRANCH   6  12
ATOM     12  C   UNL     1       3.975  -5.016  24.750  0.00  0.00    +0.065 C 
BRANCH  12  13
ATOM     13  C   UNL     1       4.863  -4.982  23.524  0.00  0.00    -0.045 A 
ATOM     14  C   UNL     1       5.079  -3.774  22.843  0.00  0.00    +0.004 A 
ATOM     15  C   UNL     1       5.917  -3.724  21.728  0.00  0.00    +0.000 A 
ATOM     16  C   UNL     1       6.549  -4.880  21.279  0.00  0.00    +0.000 A 
ATOM     17  C   UNL     1       6.328  -6.091  21.934  0.00  0.00    +0.000 A 
ATOM     18  C   UNL     1       5.484  -6.145  23.047  0.00  0.00    +0.004 A 
ENDBRANCH  12  13
ENDBRANCH   6  12
ENDBRANCH   2   6
ENDBRANCH   1   4
BRANCH   1  19
ATOM     19  N   UNL     1       6.854  -1.531  24.877  0.00  0.00    -0.269 N 
ATOM     20  H   UNL     1       6.560  -1.435  23.915  0.00  0.00    +0.153 HD
ATOM     21  C   UNL     1       8.073  -2.116  25.083  0.00  0.00    +0.401 C 
ATOM     22  O   UNL     1       8.588  -2.308  26.170  0.00  0.00    -0.226 OA
BRANCH  21  23
ATOM     23  O   UNL     1       8.628  -2.457  23.894  0.00  0.00    -0.446 OA
BRANCH  23  24
ATOM     24  C   UNL     1       9.998  -2.051  23.735  0.00  0.00    +0.269 C 
BRANCH  24  25
ATOM     25  C   UNL     1      10.072  -0.602  23.327  0.00  0.00    -0.010 A 
ATOM     26  C   UNL     1      10.677   0.343  24.168  0.00  0.00    +0.007 A 
ATOM     27  C   UNL     1      10.733   1.689  23.796  0.00  0.00    +0.000 A 
ATOM     28  C   UNL     1      10.192   2.100  22.579  0.00  0.00    +0.000 A 
ATOM     29  C   UNL     1       9.592   1.167  21.734  0.00  0.00    +0.000 A 
ATOM     30  C   UNL     1       9.534  -0.178  22.104  0.00  0.00    +0.007 A 
ENDBRANCH  24  25
ENDBRANCH  23  24
ENDBRANCH  21  23
ENDBRANCH   1  19
BRANCH   1  31
ATOM     31  C   UNL     1       5.280   0.241  25.659  0.00  0.00    +0.067 C 
BRANCH  31  32
ATOM     32  C   UNL     1       6.141   1.364  25.139  0.00  0.00    -0.045 A 
ATOM     33  C   UNL     1       7.105   1.936  25.981  0.00  0.00    +0.004 A 
ATOM     34  C   UNL     1       7.827   3.059  25.580  0.00  0.00    +0.000 A 
ATOM     35  C   UNL     1       7.601   3.615  24.324  0.00  0.00    +0.000 A 
ATOM     36  C   UNL     1       6.665   3.040  23.466  0.00  0.00    +0.000 A 
ATOM     37  C   UNL     1       5.938   1.915  23.868  0.00  0.00    +0.004 A 
ENDBRANCH  31  32
ENDBRANCH   1  31
TORSDOF 13
ENDMDL
MODEL 9
REMARK VINA RESULT:      -6.4      2.091      3.981
REMARK  Name = 
REMARK  13 active torsions:
REMARK  status: ('A' for Active; 'I' for Inactive)
REMARK    1  A    between atoms: C_2  and  C_3
REMARK    2  A    between atoms: C_2  and  N_10
REMARK    3  A    between atoms: C_2  and  C_33
REMARK    4  A    between atoms: C_3  and  C_4
REMARK    5  A    between atoms: C_11  and  C_13
REMARK    6  A    between atoms: C_13  and  C_15
REMARK    7  A    between atoms: C_13  and  N_22
REMARK    8  A    between atoms: C_15  and  C_16
REMARK    9  A    between atoms: C_23  and  O_25
REMARK   10  A    between atoms: O_25  and  C_26
REMARK   11  A    between atoms: C_26  and  C_27
REMARK   12  A    between atoms: C_33  and  C_35
REMARK   13  A    between atoms: C_35  and  O_36
REMARK                            x       y       z     vdW  Elec       q    Type
REMARK                         _______ _______ _______ _____ _____    ______ ____
ROOT
ATOM      1  C   UNL     1       9.156  -2.540  24.775  0.00  0.00    +0.166 C 
ENDROOT
BRANCH   1   4
ATOM      2  N   UNL     1       7.139  -1.133  24.886  0.00  0.00    -0.304 N 
ATOM      3  H   UNL     1       6.782  -1.739  24.155  0.00  0.00    +0.149 HD
ATOM      4  C   UNL     1       8.389  -1.379  25.444  0.00  0.00    +0.234 C 
ATOM      5  O   UNL     1       8.847  -0.643  26.311  0.00  0.00    -0.274 OA
BRANCH   2   6
ATOM      6  C   UNL     1       6.329   0.024  25.282  0.00  0.00    +0.146 C 
BRANCH   6   7
ATOM      7  C   UNL     1       5.043  -0.547  25.878  0.00  0.00    +0.179 C 
ATOM      8  O   UNL     1       4.171   0.166  26.383  0.00  0.00    -0.293 OA
BRANCH   7   9
ATOM      9  C   UNL     1       4.824  -2.043  25.679  0.00  0.00    +0.232 C 
BRANCH   9  10
ATOM     10  O   UNL     1       5.466  -2.827  26.672  0.00  0.00    -0.387 OA
ATOM     11  H   UNL     1       5.678  -2.223  27.411  0.00  0.00    +0.210 HD
ENDBRANCH   9  10
ENDBRANCH   7   9
ENDBRANCH   6   7
BRANCH   6  12
ATOM     12  C   UNL     1       6.039   0.939  24.076  0.00  0.00    +0.065 C 
BRANCH  12  13
ATOM     13  C   UNL     1       6.813   2.241  24.082  0.00  0.00    -0.045 A 
ATOM     14  C   UNL     1       7.705   2.526  25.126  0.00  0.00    +0.004 A 
ATOM     15  C   UNL     1       8.445   3.710  25.129  0.00  0.00    +0.000 A 
ATOM     16  C   UNL     1       8.300   4.625  24.089  0.00  0.00    +0.000 A 
ATOM     17  C   UNL     1       7.402   4.363  23.055  0.00  0.00    +0.000 A 
ATOM     18  C   UNL     1       6.656   3.181  23.054  0.00  0.00    +0.004 A 
ENDBRANCH  12  13
ENDBRANCH   6  12
ENDBRANCH   2   6
ENDBRANCH   1   4
BRANCH   1  19
ATOM     19  N   UNL     1       8.164  -3.533  24.328  0.00  0.00    -0.269 N 
ATOM     20  H   UNL     1       7.241  -3.248  24.033  0.00  0.00    +0.153 HD
ATOM     21  C   UNL     1       8.417  -4.876  24.316  0.00  0.00    +0.401 C 
ATOM     22  O   UNL     1       9.471  -5.398  24.633  0.00  0.00    -0.226 OA
BRANCH  21  23
ATOM     23  O   UNL     1       7.317  -5.550  23.897  0.00  0.00    -0.446 OA
BRANCH  23  24
ATOM     24  C   UNL     1       6.269  -4.718  23.373  0.00  0.00    +0.269 C 
BRANCH  24  25
ATOM     25  C   UNL     1       4.923  -5.340  23.639  0.00  0.00    -0.010 A 
ATOM     26  C   UNL     1       3.744  -4.640  23.344  0.00  0.00    +0.007 A 
ATOM     27  C   UNL     1       2.496  -5.210  23.604  0.00  0.00    +0.000 A 
ATOM     28  C   UNL     1       2.414  -6.488  24.155  0.00  0.00    +0.000 A 
ATOM     29  C   UNL     1       3.580  -7.195  24.449  0.00  0.00    +0.000 A 
ATOM     30  C   UNL     1       4.828  -6.626  24.190  0.00  0.00    +0.007 A 
ENDBRANCH  24  25
ENDBRANCH  23  24
ENDBRANCH  21  23
ENDBRANCH   1  19
BRANCH   1  31
ATOM     31  C   UNL     1      10.100  -2.119  23.634  0.00  0.00    +0.067 C 
BRANCH  31  32
ATOM     32  C   UNL     1       9.977  -0.700  23.137  0.00  0.00    -0.045 A 
ATOM     33  C   UNL     1       9.208  -0.439  21.994  0.00  0.00    +0.004 A 
ATOM     34  C   UNL     1       9.179   0.836  21.430  0.00  0.00    +0.000 A 
ATOM     35  C   UNL     1       9.911   1.867  22.012  0.00  0.00    +0.000 A 
ATOM     36  C   UNL     1      10.658   1.627  23.164  0.00  0.00    +0.000 A 
ATOM     37  C   UNL     1      10.691   0.349  23.730  0.00  0.00    +0.004 A 
ENDBRANCH  31  32
ENDBRANCH   1  31
TORSDOF 13
ENDMDL
