MODEL 1
REMARK VINA RESULT:      -7.5      0.000      0.000
REMARK  Name = 
REMARK  7 active torsions:
REMARK  status: ('A' for Active; 'I' for Inactive)
REMARK    1  A    between atoms: C_2  and  C_3
REMARK    2  A    between atoms: C_3  and  C_4
REMARK    3  A    between atoms: C_4  and  N_5
REMARK    4  A    between atoms: N_8  and  C_9
REMARK    5  A    between atoms: C_9  and  C_10
REMARK    6  A    between atoms: C_10  and  O_11
REMARK    7  A    between atoms: C_17  and  C_28
REMARK                            x       y       z     vdW  Elec       q    Type
REMARK                         _______ _______ _______ _____ _____    ______ ____
ROOT
ATOM      1  C   UNL     1       7.694  -5.261  26.560  0.00  0.00    -0.021 C 
ATOM      2  C   UNL     1       6.373  -5.571  26.552  0.00  0.00    -0.035 C 
ATOM      3  C   UNL     1       5.671  -5.709  27.882  0.00  0.00    -0.008 A 
ATOM      4  C   UNL     1       6.385  -6.160  29.018  0.00  0.00    +0.009 A 
ATOM      5  C   UNL     1       5.779  -6.292  30.271  0.00  0.00    +0.001 A 
ATOM      6  C   UNL     1       4.433  -5.998  30.423  0.00  0.00    +0.001 A 
ATOM      7  C   UNL     1       3.694  -5.598  29.315  0.00  0.00    +0.015 A 
ATOM      8  C   UNL     1       4.290  -5.463  28.047  0.00  0.00    +0.016 A 
ATOM      9  S   UNL     1       3.155  -5.020  26.738  0.00  0.00    -0.116 S 
ATOM     10  C   UNL     1       4.328  -4.679  25.390  0.00  0.00    +0.085 C 
ATOM     11  C   UNL     1       3.550  -4.522  24.107  0.00  0.00    -0.011 C 
ATOM     12  C   UNL     1       4.115  -4.794  22.919  0.00  0.00    +0.009 C 
ATOM     13  C   UNL     1       5.485  -5.261  22.835  0.00  0.00    +0.051 C 
ATOM     14  C   UNL     1       6.053  -5.807  23.935  0.00  0.00    -0.005 C 
ATOM     15  C   UNL     1       5.429  -5.782  25.330  0.00  0.00    +0.059 C 
ENDROOT
BRANCH  13  16
ATOM     16  C   UNL     1       6.197  -5.163  21.503  0.00  0.00    +0.417 C 
ATOM     17  F   UNL     1       7.535  -5.382  21.623  0.00  0.00    -0.166 F 
ATOM     18  F   UNL     1       6.053  -3.930  20.962  0.00  0.00    -0.166 F 
ATOM     19  F   UNL     1       5.736  -6.051  20.585  0.00  0.00    -0.166 F 
ENDBRANCH  13  16
BRANCH   1  20
ATOM     20  C   UNL     1       8.588  -5.238  25.363  0.00  0.00    +0.043 C 
BRANCH  20  21
ATOM     21  C   UNL     1       9.299  -3.933  24.985  0.00  0.00    +0.088 C 
BRANCH  21  22
ATOM     22  N   UNL     1       8.329  -2.975  24.403  0.00  0.00    -0.300 NA
ATOM     23  C   UNL     1       8.591  -2.634  22.985  0.00  0.00    +0.100 C 
ATOM     24  C   UNL     1       9.832  -1.736  22.768  0.00  0.00    +0.100 C 
ATOM     25  N   UNL     1       9.797  -0.469  23.541  0.00  0.00    -0.298 NA
ATOM     26  C   UNL     1       9.511  -0.801  24.959  0.00  0.00    +0.100 C 
ATOM     27  C   UNL     1       8.288  -1.723  25.183  0.00  0.00    +0.100 C 
BRANCH  25  28
ATOM     28  C   UNL     1       8.790   0.444  22.944  0.00  0.00    +0.112 C 
BRANCH  28  29
ATOM     29  C   UNL     1       9.127   0.884  21.514  0.00  0.00    +0.171 C 
BRANCH  29  30
ATOM     30  O   UNL     1       9.961   2.038  21.536  0.00  0.00    -0.394 OA
ATOM     31  H   UNL     1      10.314   2.117  20.627  0.00  0.00    +0.209 HD
ENDBRANCH  29  30
ENDBRANCH  28  29
ENDBRANCH  25  28
ENDBRANCH  21  22
ENDBRANCH  20  21
ENDBRANCH   1  20
TORSDOF 7
ENDMDL
MODEL 2
REMARK VINA RESULT:      -6.7      4.245      7.845
REMARK  Name = 
REMARK  7 active torsions:
REMARK  status: ('A' for Active; 'I' for Inactive)
REMARK    1  A    between atoms: C_2  and  C_3
REMARK    2  A    between atoms: C_3  and  C_4
REMARK    3  A    between atoms: C_4  and  N_5
REMARK    4  A    between atoms: N_8  and  C_9
REMARK    5  A    between atoms: C_9  and  C_10
REMARK    6  A    between atoms: C_10  and  O_11
REMARK    7  A    between atoms: C_17  and  C_28
REMARK                            x       y       z     vdW  Elec       q    Type
REMARK                         _______ _______ _______ _____ _____    ______ ____
ROOT
ATOM      1  C   UNL     1       5.614   0.708  24.919  0.00  0.00    -0.021 C 
ATOM      2  C   UNL     1       5.973   1.513  23.887  0.00  0.00    -0.035 C 
ATOM      3  C   UNL     1       5.272   2.845  23.754  0.00  0.00    -0.008 A 
ATOM      4  C   UNL     1       3.933   2.990  24.190  0.00  0.00    +0.009 A 
ATOM      5  C   UNL     1       3.250   4.206  24.097  0.00  0.00    +0.001 A 
ATOM      6  C   UNL     1       3.877   5.311  23.543  0.00  0.00    +0.001 A 
ATOM      7  C   UNL     1       5.176   5.187  23.062  0.00  0.00    +0.015 A 
ATOM      8  C   UNL     1       5.875   3.968  23.147  0.00  0.00    +0.016 A 
ATOM      9  S   UNL     1       7.499   3.991  22.398  0.00  0.00    -0.116 S 
ATOM     10  C   UNL     1       8.142   2.386  22.961  0.00  0.00    +0.085 C 
ATOM     11  C   UNL     1       9.427   2.101  22.225  0.00  0.00    -0.011 C 
ATOM     12  C   UNL     1       9.838   0.839  22.015  0.00  0.00    +0.009 C 
ATOM     13  C   UNL     1       9.049  -0.287  22.477  0.00  0.00    +0.051 C 
ATOM     14  C   UNL     1       7.737  -0.095  22.743  0.00  0.00    -0.005 C 
ATOM     15  C   UNL     1       7.060   1.275  22.798  0.00  0.00    +0.059 C 
ENDROOT
BRANCH  13  16
ATOM     16  C   UNL     1       9.722  -1.638  22.586  0.00  0.00    +0.417 C 
ATOM     17  F   UNL     1      10.995  -1.615  22.103  0.00  0.00    -0.166 F 
ATOM     18  F   UNL     1       9.055  -2.575  21.871  0.00  0.00    -0.166 F 
ATOM     19  F   UNL     1       9.796  -2.097  23.862  0.00  0.00    -0.166 F 
ENDBRANCH  13  16
BRANCH   1  20
ATOM     20  C   UNL     1       6.076  -0.698  25.124  0.00  0.00    +0.043 C 
BRANCH  20  21
ATOM     21  C   UNL     1       5.035  -1.816  25.262  0.00  0.00    +0.088 C 
BRANCH  21  22
ATOM     22  N   UNL     1       5.691  -3.140  25.142  0.00  0.00    -0.300 NA
ATOM     23  C   UNL     1       6.588  -3.268  23.970  0.00  0.00    +0.100 C 
ATOM     24  C   UNL     1       5.849  -3.348  22.613  0.00  0.00    +0.100 C 
ATOM     25  N   UNL     1       4.847  -4.440  22.539  0.00  0.00    -0.298 NA
ATOM     26  C   UNL     1       3.960  -4.333  23.725  0.00  0.00    +0.100 C 
ATOM     27  C   UNL     1       4.691  -4.224  25.084  0.00  0.00    +0.100 C 
BRANCH  25  28
ATOM     28  C   UNL     1       5.548  -5.746  22.457  0.00  0.00    +0.112 C 
BRANCH  28  29
ATOM     29  C   UNL     1       6.571  -5.825  21.316  0.00  0.00    +0.171 C 
BRANCH  29  30
ATOM     30  O   UNL     1       5.943  -5.546  20.069  0.00  0.00    -0.394 OA
ATOM     31  H   UNL     1       5.800  -6.419  19.652  0.00  0.00    +0.209 HD
ENDBRANCH  29  30
ENDBRANCH  28  29
ENDBRANCH  25  28
ENDBRANCH  21  22
ENDBRANCH  20  21
ENDBRANCH   1  20
TORSDOF 7
ENDMDL
MODEL 3
REMARK VINA RESULT:      -6.5      5.035      9.014
REMARK  Name = 
REMARK  7 active torsions:
REMARK  status: ('A' for Active; 'I' for Inactive)
REMARK    1  A    between atoms: C_2  and  C_3
REMARK    2  A    between atoms: C_3  and  C_4
REMARK    3  A    between atoms: C_4  and  N_5
REMARK    4  A    between atoms: N_8  and  C_9
REMARK    5  A    between atoms: C_9  and  C_10
REMARK    6  A    between atoms: C_10  and  O_11
REMARK    7  A    between atoms: C_17  and  C_28
REMARK                            x       y       z     vdW  Elec       q    Type
REMARK                         _______ _______ _______ _____ _____    ______ ____
ROOT
ATOM      1  C   UNL     1       5.745   2.043  24.176  0.00  0.00    -0.021 C 
ATOM      2  C   UNL     1       6.386   3.013  23.477  0.00  0.00    -0.035 C 
ATOM      3  C   UNL     1       5.581   4.211  23.031  0.00  0.00    -0.008 A 
ATOM      4  C   UNL     1       4.203   4.072  22.738  0.00  0.00    +0.009 A 
ATOM      5  C   UNL     1       3.417   5.155  22.334  0.00  0.00    +0.001 A 
ATOM      6  C   UNL     1       3.990   6.409  22.188  0.00  0.00    +0.001 A 
ATOM      7  C   UNL     1       5.352   6.568  22.422  0.00  0.00    +0.015 A 
ATOM      8  C   UNL     1       6.156   5.485  22.828  0.00  0.00    +0.016 A 
ATOM      9  S   UNL     1       7.893   5.874  22.997  0.00  0.00    -0.116 S 
ATOM     10  C   UNL     1       8.495   4.348  23.781  0.00  0.00    +0.085 C 
ATOM     11  C   UNL     1      10.004   4.376  23.786  0.00  0.00    -0.011 C 
ATOM     12  C   UNL     1      10.716   3.237  23.790  0.00  0.00    +0.009 C 
ATOM     13  C   UNL     1      10.055   1.946  23.775  0.00  0.00    +0.051 C 
ATOM     14  C   UNL     1       8.773   1.878  23.349  0.00  0.00    -0.005 C 
ATOM     15  C   UNL     1       7.889   3.095  23.078  0.00  0.00    +0.059 C 
ENDROOT
BRANCH  13  16
ATOM     16  C   UNL     1      10.853   0.727  24.186  0.00  0.00    +0.417 C 
ATOM     17  F   UNL     1      12.167   1.021  24.385  0.00  0.00    -0.166 F 
ATOM     18  F   UNL     1      10.811  -0.229  23.227  0.00  0.00    -0.166 F 
ATOM     19  F   UNL     1      10.402   0.155  25.332  0.00  0.00    -0.166 F 
ENDBRANCH  13  16
BRANCH   1  20
ATOM     20  C   UNL     1       6.327   0.722  24.563  0.00  0.00    +0.043 C 
BRANCH  20  21
ATOM     21  C   UNL     1       6.445  -0.383  23.507  0.00  0.00    +0.088 C 
BRANCH  21  22
ATOM     22  N   UNL     1       6.146  -1.702  24.114  0.00  0.00    -0.300 NA
ATOM     23  C   UNL     1       7.028  -2.061  25.248  0.00  0.00    +0.100 C 
ATOM     24  C   UNL     1       8.477  -2.416  24.837  0.00  0.00    +0.100 C 
ATOM     25  N   UNL     1       8.565  -3.503  23.831  0.00  0.00    -0.298 NA
ATOM     26  C   UNL     1       7.664  -3.162  22.702  0.00  0.00    +0.100 C 
ATOM     27  C   UNL     1       6.220  -2.779  23.107  0.00  0.00    +0.100 C 
BRANCH  25  28
ATOM     28  C   UNL     1       8.223  -4.797  24.475  0.00  0.00    +0.112 C 
BRANCH  28  29
ATOM     29  C   UNL     1       9.087  -5.122  25.701  0.00  0.00    +0.171 C 
BRANCH  29  30
ATOM     30  O   UNL     1      10.382  -5.552  25.293  0.00  0.00    -0.394 OA
ATOM     31  H   UNL     1      10.223  -6.218  24.595  0.00  0.00    +0.209 HD
ENDBRANCH  29  30
ENDBRANCH  28  29
ENDBRANCH  25  28
ENDBRANCH  21  22
ENDBRANCH  20  21
ENDBRANCH   1  20
TORSDOF 7
ENDMDL
MODEL 4
REMARK VINA RESULT:      -6.5      6.143      9.901
REMARK  Name = 
REMARK  7 active torsions:
REMARK  status: ('A' for Active; 'I' for Inactive)
REMARK    1  A    between atoms: C_2  and  C_3
REMARK    2  A    between atoms: C_3  and  C_4
REMARK    3  A    between atoms: C_4  and  N_5
REMARK    4  A    between atoms: N_8  and  C_9
REMARK    5  A    between atoms: C_9  and  C_10
REMARK    6  A    between atoms: C_10  and  O_11
REMARK    7  A    between atoms: C_17  and  C_28
REMARK                            x       y       z     vdW  Elec       q    Type
REMARK                         _______ _______ _______ _____ _____    ______ ____
ROOT
ATOM      1  C   UNL     1       7.337   2.922  22.645  0.00  0.00    -0.021 C 
ATOM      2  C   UNL     1       7.004   4.153  23.109  0.00  0.00    -0.035 C 
ATOM      3  C   UNL     1       5.541   4.442  23.353  0.00  0.00    -0.008 A 
ATOM      4  C   UNL     1       4.551   3.810  22.564  0.00  0.00    +0.009 A 
ATOM      5  C   UNL     1       3.186   4.039  22.763  0.00  0.00    +0.001 A 
ATOM      6  C   UNL     1       2.769   4.926  23.743  0.00  0.00    +0.001 A 
ATOM      7  C   UNL     1       3.720   5.599  24.502  0.00  0.00    +0.015 A 
ATOM      8  C   UNL     1       5.098   5.380  24.312  0.00  0.00    +0.016 A 
ATOM      9  S   UNL     1       6.158   6.401  25.327  0.00  0.00    -0.116 S 
ATOM     10  C   UNL     1       7.771   5.628  24.995  0.00  0.00    +0.085 C 
ATOM     11  C   UNL     1       8.851   6.508  25.575  0.00  0.00    -0.011 C 
ATOM     12  C   UNL     1      10.092   6.509  25.060  0.00  0.00    +0.009 C 
ATOM     13  C   UNL     1      10.426   5.676  23.921  0.00  0.00    +0.051 C 
ATOM     14  C   UNL     1       9.425   5.221  23.133  0.00  0.00    -0.005 C 
ATOM     15  C   UNL     1       7.939   5.344  23.471  0.00  0.00    +0.059 C 
ENDROOT
BRANCH  13  16
ATOM     16  C   UNL     1      11.887   5.400  23.638  0.00  0.00    +0.417 C 
ATOM     17  F   UNL     1      12.700   5.925  24.595  0.00  0.00    -0.166 F 
ATOM     18  F   UNL     1      12.268   5.952  22.461  0.00  0.00    -0.166 F 
ATOM     19  F   UNL     1      12.176   4.075  23.562  0.00  0.00    -0.166 F 
ENDBRANCH  13  16
BRANCH   1  20
ATOM     20  C   UNL     1       8.700   2.503  22.197  0.00  0.00    +0.043 C 
BRANCH  20  21
ATOM     21  C   UNL     1       9.388   1.323  22.893  0.00  0.00    +0.088 C 
BRANCH  21  22
ATOM     22  N   UNL     1       8.497   0.138  22.886  0.00  0.00    -0.300 NA
ATOM     23  C   UNL     1       8.225  -0.422  24.230  0.00  0.00    +0.100 C 
ATOM     24  C   UNL     1       9.431  -1.152  24.869  0.00  0.00    +0.100 C 
ATOM     25  N   UNL     1       9.988  -2.239  24.027  0.00  0.00    -0.298 NA
ATOM     26  C   UNL     1      10.240  -1.691  22.671  0.00  0.00    +0.100 C 
ATOM     27  C   UNL     1       9.047  -0.936  22.036  0.00  0.00    +0.100 C 
BRANCH  25  28
ATOM     28  C   UNL     1       9.047  -3.388  24.022  0.00  0.00    +0.112 C 
BRANCH  28  29
ATOM     29  C   UNL     1       9.223  -4.333  25.218  0.00  0.00    +0.171 C 
BRANCH  29  30
ATOM     30  O   UNL     1       9.990  -5.472  24.840  0.00  0.00    -0.394 OA
ATOM     31  H   UNL     1       9.371  -6.228  24.896  0.00  0.00    +0.209 HD
ENDBRANCH  29  30
ENDBRANCH  28  29
ENDBRANCH  25  28
ENDBRANCH  21  22
ENDBRANCH  20  21
ENDBRANCH   1  20
TORSDOF 7
ENDMDL
MODEL 5
REMARK VINA RESULT:      -6.5      4.224      6.248
REMARK  Name = 
REMARK  7 active torsions:
REMARK  status: ('A' for Active; 'I' for Inactive)
REMARK    1  A    between atoms: C_2  and  C_3
REMARK    2  A    between atoms: C_3  and  C_4
REMARK    3  A    between atoms: C_4  and  N_5
REMARK    4  A    between atoms: N_8  and  C_9
REMARK    5  A    between atoms: C_9  and  C_10
REMARK    6  A    between atoms: C_10  and  O_11
REMARK    7  A    between atoms: C_17  and  C_28
REMARK                            x       y       z     vdW  Elec       q    Type
REMARK                         _______ _______ _______ _____ _____    ______ ____
ROOT
ATOM      1  C   UNL     1       5.514  -0.918  25.176  0.00  0.00    -0.021 C 
ATOM      2  C   UNL     1       6.176  -1.933  24.564  0.00  0.00    -0.035 C 
ATOM      3  C   UNL     1       5.388  -3.167  24.194  0.00  0.00    -0.008 A 
ATOM      4  C   UNL     1       4.277  -3.562  24.977  0.00  0.00    +0.009 A 
ATOM      5  C   UNL     1       3.512  -4.689  24.665  0.00  0.00    +0.001 A 
ATOM      6  C   UNL     1       3.849  -5.473  23.572  0.00  0.00    +0.001 A 
ATOM      7  C   UNL     1       4.964  -5.138  22.812  0.00  0.00    +0.015 A 
ATOM      8  C   UNL     1       5.744  -4.006  23.115  0.00  0.00    +0.016 A 
ATOM      9  S   UNL     1       7.181  -3.795  22.072  0.00  0.00    -0.116 S 
ATOM     10  C   UNL     1       7.720  -2.136  22.590  0.00  0.00    +0.085 C 
ATOM     11  C   UNL     1       9.079  -1.867  21.994  0.00  0.00    -0.011 C 
ATOM     12  C   UNL     1       9.939  -1.023  22.588  0.00  0.00    +0.009 C 
ATOM     13  C   UNL     1       9.591  -0.355  23.827  0.00  0.00    +0.051 C 
ATOM     14  C   UNL     1       8.602  -0.877  24.590  0.00  0.00    -0.005 C 
ATOM     15  C   UNL     1       7.674  -2.005  24.143  0.00  0.00    +0.059 C 
ENDROOT
BRANCH  13  16
ATOM     16  C   UNL     1      10.389   0.864  24.235  0.00  0.00    +0.417 C 
ATOM     17  F   UNL     1      10.547   1.738  23.203  0.00  0.00    -0.166 F 
ATOM     18  F   UNL     1      11.633   0.519  24.644  0.00  0.00    -0.166 F 
ATOM     19  F   UNL     1       9.820   1.560  25.253  0.00  0.00    -0.166 F 
ENDBRANCH  13  16
BRANCH   1  20
ATOM     20  C   UNL     1       6.146   0.307  25.755  0.00  0.00    +0.043 C 
BRANCH  20  21
ATOM     21  C   UNL     1       5.805   1.678  25.162  0.00  0.00    +0.088 C 
BRANCH  21  22
ATOM     22  N   UNL     1       6.935   2.174  24.341  0.00  0.00    -0.300 NA
ATOM     23  C   UNL     1       7.387   3.540  24.694  0.00  0.00    +0.100 C 
ATOM     24  C   UNL     1       6.404   4.660  24.280  0.00  0.00    +0.100 C 
ATOM     25  N   UNL     1       6.063   4.654  22.835  0.00  0.00    -0.298 NA
ATOM     26  C   UNL     1       5.632   3.282  22.468  0.00  0.00    +0.100 C 
ATOM     27  C   UNL     1       6.597   2.152  22.904  0.00  0.00    +0.100 C 
BRANCH  25  28
ATOM     28  C   UNL     1       7.234   5.123  22.052  0.00  0.00    +0.112 C 
BRANCH  28  29
ATOM     29  C   UNL     1       7.826   6.445  22.560  0.00  0.00    +0.171 C 
BRANCH  29  30
ATOM     30  O   UNL     1       9.221   6.298  22.808  0.00  0.00    -0.394 OA
ATOM     31  H   UNL     1       9.637   7.088  22.408  0.00  0.00    +0.209 HD
ENDBRANCH  29  30
ENDBRANCH  28  29
ENDBRANCH  25  28
ENDBRANCH  21  22
ENDBRANCH  20  21
ENDBRANCH   1  20
TORSDOF 7
ENDMDL
MODEL 6
REMARK VINA RESULT:      -6.4      3.980      5.887
REMARK  Name = 
REMARK  7 active torsions:
REMARK  status: ('A' for Active; 'I' for Inactive)
REMARK    1  A    between atoms: C_2  and  C_3
REMARK    2  A    between atoms: C_3  and  C_4
REMARK    3  A    between atoms: C_4  and  N_5
REMARK    4  A    between atoms: N_8  and  C_9
REMARK    5  A    between atoms: C_9  and  C_10
REMARK    6  A    between atoms: C_10  and  O_11
REMARK    7  A    between atoms: C_17  and  C_28
REMARK                            x       y       z     vdW  Elec       q    Type
REMARK                         _______ _______ _______ _____ _____    ______ ____
ROOT
ATOM      1  C   UNL     1       6.982  -1.889  26.430  0.00  0.00    -0.021 C 
ATOM      2  C   UNL     1       7.387  -2.624  25.364  0.00  0.00    -0.035 C 
ATOM      3  C   UNL     1       6.646  -3.907  25.069  0.00  0.00    -0.008 A 
ATOM      4  C   UNL     1       6.066  -4.651  26.125  0.00  0.00    +0.009 A 
ATOM      5  C   UNL     1       5.362  -5.837  25.898  0.00  0.00    +0.001 A 
ATOM      6  C   UNL     1       5.235  -6.330  24.608  0.00  0.00    +0.001 A 
ATOM      7  C   UNL     1       5.835  -5.647  23.555  0.00  0.00    +0.015 A 
ATOM      8  C   UNL     1       6.549  -4.453  23.770  0.00  0.00    +0.016 A 
ATOM      9  S   UNL     1       7.314  -3.773  22.304  0.00  0.00    -0.116 S 
ATOM     10  C   UNL     1       7.860  -2.158  22.938  0.00  0.00    +0.085 C 
ATOM     11  C   UNL     1       8.758  -1.518  21.908  0.00  0.00    -0.011 C 
ATOM     12  C   UNL     1       9.704  -0.636  22.269  0.00  0.00    +0.009 C 
ATOM     13  C   UNL     1       9.900  -0.283  23.662  0.00  0.00    +0.051 C 
ATOM     14  C   UNL     1       9.432  -1.120  24.616  0.00  0.00    -0.005 C 
ATOM     15  C   UNL     1       8.521  -2.316  24.341  0.00  0.00    +0.059 C 
ENDROOT
BRANCH  13  16
ATOM     16  C   UNL     1      10.668   0.982  23.981  0.00  0.00    +0.417 C 
ATOM     17  F   UNL     1      10.016   1.760  24.888  0.00  0.00    -0.166 F 
ATOM     18  F   UNL     1      10.840   1.741  22.873  0.00  0.00    -0.166 F 
ATOM     19  F   UNL     1      11.905   0.742  24.489  0.00  0.00    -0.166 F 
ENDBRANCH  13  16
BRANCH   1  20
ATOM     20  C   UNL     1       7.682  -0.684  26.970  0.00  0.00    +0.043 C 
BRANCH  20  21
ATOM     21  C   UNL     1       6.906   0.630  27.119  0.00  0.00    +0.088 C 
BRANCH  21  22
ATOM     22  N   UNL     1       7.325   1.591  26.071  0.00  0.00    -0.300 NA
ATOM     23  C   UNL     1       7.106   3.011  26.429  0.00  0.00    +0.100 C 
ATOM     24  C   UNL     1       5.619   3.441  26.435  0.00  0.00    +0.100 C 
ATOM     25  N   UNL     1       4.916   3.181  25.154  0.00  0.00    -0.298 NA
ATOM     26  C   UNL     1       5.152   1.765  24.776  0.00  0.00    +0.100 C 
ATOM     27  C   UNL     1       6.634   1.319  24.796  0.00  0.00    +0.100 C 
BRANCH  25  28
ATOM     28  C   UNL     1       5.392   4.142  24.127  0.00  0.00    +0.112 C 
BRANCH  28  29
ATOM     29  C   UNL     1       4.966   3.779  22.699  0.00  0.00    +0.171 C 
BRANCH  29  30
ATOM     30  O   UNL     1       6.100   3.746  21.838  0.00  0.00    -0.394 OA
ATOM     31  H   UNL     1       6.080   4.595  21.355  0.00  0.00    +0.209 HD
ENDBRANCH  29  30
ENDBRANCH  28  29
ENDBRANCH  25  28
ENDBRANCH  21  22
ENDBRANCH  20  21
ENDBRANCH   1  20
TORSDOF 7
ENDMDL
MODEL 7
REMARK VINA RESULT:      -6.2      4.569      7.070
REMARK  Name = 
REMARK  7 active torsions:
REMARK  status: ('A' for Active; 'I' for Inactive)
REMARK    1  A    between atoms: C_2  and  C_3
REMARK    2  A    between atoms: C_3  and  C_4
REMARK    3  A    between atoms: C_4  and  N_5
REMARK    4  A    between atoms: N_8  and  C_9
REMARK    5  A    between atoms: C_9  and  C_10
REMARK    6  A    between atoms: C_10  and  O_11
REMARK    7  A    between atoms: C_17  and  C_28
REMARK                            x       y       z     vdW  Elec       q    Type
REMARK                         _______ _______ _______ _____ _____    ______ ____
ROOT
ATOM      1  C   UNL     1       7.986  -0.082  26.947  0.00  0.00    -0.021 C 
ATOM      2  C   UNL     1       7.327   1.055  26.608  0.00  0.00    -0.035 C 
ATOM      3  C   UNL     1       6.457   1.706  27.658  0.00  0.00    -0.008 A 
ATOM      4  C   UNL     1       5.819   0.915  28.642  0.00  0.00    +0.009 A 
ATOM      5  C   UNL     1       5.016   1.475  29.639  0.00  0.00    +0.001 A 
ATOM      6  C   UNL     1       4.805   2.845  29.669  0.00  0.00    +0.001 A 
ATOM      7  C   UNL     1       5.379   3.644  28.686  0.00  0.00    +0.015 A 
ATOM      8  C   UNL     1       6.189   3.093  27.675  0.00  0.00    +0.016 A 
ATOM      9  S   UNL     1       6.764   4.272  26.460  0.00  0.00    -0.116 S 
ATOM     10  C   UNL     1       7.957   3.246  25.547  0.00  0.00    +0.085 C 
ATOM     11  C   UNL     1       8.380   3.994  24.307  0.00  0.00    -0.011 C 
ATOM     12  C   UNL     1       8.797   3.336  23.213  0.00  0.00    +0.009 C 
ATOM     13  C   UNL     1       8.839   1.887  23.185  0.00  0.00    +0.051 C 
ATOM     14  C   UNL     1       8.090   1.200  24.078  0.00  0.00    -0.005 C 
ATOM     15  C   UNL     1       7.359   1.835  25.260  0.00  0.00    +0.059 C 
ENDROOT
BRANCH  13  16
ATOM     16  C   UNL     1       9.677   1.213  22.121  0.00  0.00    +0.417 C 
ATOM     17  F   UNL     1      10.350   0.135  22.609  0.00  0.00    -0.166 F 
ATOM     18  F   UNL     1      10.611   2.060  21.625  0.00  0.00    -0.166 F 
ATOM     19  F   UNL     1       8.946   0.772  21.065  0.00  0.00    -0.166 F 
ENDBRANCH  13  16
BRANCH   1  20
ATOM     20  C   UNL     1       8.760  -0.949  26.008  0.00  0.00    +0.043 C 
BRANCH  20  21
ATOM     21  C   UNL     1       8.400  -2.435  25.890  0.00  0.00    +0.088 C 
BRANCH  21  22
ATOM     22  N   UNL     1       8.896  -2.978  24.603  0.00  0.00    -0.300 NA
ATOM     23  C   UNL     1       8.061  -2.620  23.432  0.00  0.00    +0.100 C 
ATOM     24  C   UNL     1       6.696  -3.346  23.380  0.00  0.00    +0.100 C 
ATOM     25  N   UNL     1       6.803  -4.826  23.426  0.00  0.00    -0.298 NA
ATOM     26  C   UNL     1       7.658  -5.191  24.584  0.00  0.00    +0.100 C 
ATOM     27  C   UNL     1       9.014  -4.448  24.658  0.00  0.00    +0.100 C 
BRANCH  25  28
ATOM     28  C   UNL     1       7.336  -5.321  22.132  0.00  0.00    +0.112 C 
BRANCH  28  29
ATOM     29  C   UNL     1       6.249  -5.600  21.085  0.00  0.00    +0.171 C 
BRANCH  29  30
ATOM     30  O   UNL     1       5.079  -6.116  21.712  0.00  0.00    -0.394 OA
ATOM     31  H   UNL     1       5.391  -6.517  22.547  0.00  0.00    +0.209 HD
ENDBRANCH  29  30
ENDBRANCH  28  29
ENDBRANCH  25  28
ENDBRANCH  21  22
ENDBRANCH  20  21
ENDBRANCH   1  20
TORSDOF 7
ENDMDL
MODEL 8
REMARK VINA RESULT:      -6.2      4.589      8.639
REMARK  Name = 
REMARK  7 active torsions:
REMARK  status: ('A' for Active; 'I' for Inactive)
REMARK    1  A    between atoms: C_2  and  C_3
REMARK    2  A    between atoms: C_3  and  C_4
REMARK    3  A    between atoms: C_4  and  N_5
REMARK    4  A    between atoms: N_8  and  C_9
REMARK    5  A    between atoms: C_9  and  C_10
REMARK    6  A    between atoms: C_10  and  O_11
REMARK    7  A    between atoms: C_17  and  C_28
REMARK                            x       y       z     vdW  Elec       q    Type
REMARK                         _______ _______ _______ _____ _____    ______ ____
ROOT
ATOM      1  C   UNL     1       9.606   1.272  23.440  0.00  0.00    -0.021 C 
ATOM      2  C   UNL     1       9.289   2.374  24.165  0.00  0.00    -0.035 C 
ATOM      3  C   UNL     1      10.063   3.643  23.894  0.00  0.00    -0.008 A 
ATOM      4  C   UNL     1      11.409   3.576  23.464  0.00  0.00    +0.009 A 
ATOM      5  C   UNL     1      12.160   4.723  23.191  0.00  0.00    +0.001 A 
ATOM      6  C   UNL     1      11.593   5.977  23.363  0.00  0.00    +0.001 A 
ATOM      7  C   UNL     1      10.288   6.076  23.831  0.00  0.00    +0.015 A 
ATOM      8  C   UNL     1       9.521   4.930  24.112  0.00  0.00    +0.016 A 
ATOM      9  S   UNL     1       7.898   5.268  24.781  0.00  0.00    -0.116 S 
ATOM     10  C   UNL     1       7.168   3.603  24.728  0.00  0.00    +0.085 C 
ATOM     11  C   UNL     1       5.865   3.627  25.488  0.00  0.00    -0.011 C 
ATOM     12  C   UNL     1       5.384   2.516  26.069  0.00  0.00    +0.009 C 
ATOM     13  C   UNL     1       6.110   1.263  25.995  0.00  0.00    +0.051 C 
ATOM     14  C   UNL     1       7.432   1.294  25.710  0.00  0.00    -0.005 C 
ATOM     15  C   UNL     1       8.184   2.542  25.250  0.00  0.00    +0.059 C 
ENDROOT
BRANCH  13  16
ATOM     16  C   UNL     1       5.362  -0.019  26.295  0.00  0.00    +0.417 C 
ATOM     17  F   UNL     1       6.051  -0.823  27.150  0.00  0.00    -0.166 F 
ATOM     18  F   UNL     1       5.157  -0.739  25.166  0.00  0.00    -0.166 F 
ATOM     19  F   UNL     1       4.142   0.192  26.853  0.00  0.00    -0.166 F 
ENDBRANCH  13  16
BRANCH   1  20
ATOM     20  C   UNL     1       9.067  -0.103  23.669  0.00  0.00    +0.043 C 
BRANCH  20  21
ATOM     21  C   UNL     1       8.430  -0.864  22.500  0.00  0.00    +0.088 C 
BRANCH  21  22
ATOM     22  N   UNL     1       8.771  -2.304  22.584  0.00  0.00    -0.300 NA
ATOM     23  C   UNL     1       7.625  -3.212  22.351  0.00  0.00    +0.100 C 
ATOM     24  C   UNL     1       6.594  -3.240  23.505  0.00  0.00    +0.100 C 
ATOM     25  N   UNL     1       7.181  -3.578  24.825  0.00  0.00    -0.298 NA
ATOM     26  C   UNL     1       8.346  -2.687  25.054  0.00  0.00    +0.100 C 
ATOM     27  C   UNL     1       9.369  -2.632  23.893  0.00  0.00    +0.100 C 
BRANCH  25  28
ATOM     28  C   UNL     1       7.539  -5.019  24.850  0.00  0.00    +0.112 C 
BRANCH  28  29
ATOM     29  C   UNL     1       8.437  -5.411  26.031  0.00  0.00    +0.171 C 
BRANCH  29  30
ATOM     30  O   UNL     1       9.631  -6.028  25.560  0.00  0.00    -0.394 OA
ATOM     31  H   UNL     1       9.352  -6.580  24.802  0.00  0.00    +0.209 HD
ENDBRANCH  29  30
ENDBRANCH  28  29
ENDBRANCH  25  28
ENDBRANCH  21  22
ENDBRANCH  20  21
ENDBRANCH   1  20
TORSDOF 7
ENDMDL
MODEL 9
REMARK VINA RESULT:      -6.2      4.062      7.906
REMARK  Name = 
REMARK  7 active torsions:
REMARK  status: ('A' for Active; 'I' for Inactive)
REMARK    1  A    between atoms: C_2  and  C_3
REMARK    2  A    between atoms: C_3  and  C_4
REMARK    3  A    between atoms: C_4  and  N_5
REMARK    4  A    between atoms: N_8  and  C_9
REMARK    5  A    between atoms: C_9  and  C_10
REMARK    6  A    between atoms: C_10  and  O_11
REMARK    7  A    between atoms: C_17  and  C_28
REMARK                            x       y       z     vdW  Elec       q    Type
REMARK                         _______ _______ _______ _____ _____    ______ ____
ROOT
ATOM      1  C   UNL     1       7.630   0.485  26.199  0.00  0.00    -0.021 C 
ATOM      2  C   UNL     1       7.930   0.981  24.972  0.00  0.00    -0.035 C 
ATOM      3  C   UNL     1       8.340   2.432  24.878  0.00  0.00    -0.008 A 
ATOM      4  C   UNL     1       7.824   3.376  25.796  0.00  0.00    +0.009 A 
ATOM      5  C   UNL     1       8.185   4.727  25.754  0.00  0.00    +0.001 A 
ATOM      6  C   UNL     1       9.056   5.179  24.775  0.00  0.00    +0.001 A 
ATOM      7  C   UNL     1       9.543   4.283  23.829  0.00  0.00    +0.015 A 
ATOM      8  C   UNL     1       9.187   2.922  23.859  0.00  0.00    +0.016 A 
ATOM      9  S   UNL     1       9.849   1.952  22.510  0.00  0.00    -0.116 S 
ATOM     10  C   UNL     1       9.410   0.276  23.065  0.00  0.00    +0.085 C 
ATOM     11  C   UNL     1       9.669  -0.685  21.932  0.00  0.00    -0.011 C 
ATOM     12  C   UNL     1       8.980  -1.834  21.830  0.00  0.00    +0.009 C 
ATOM     13  C   UNL     1       7.957  -2.177  22.799  0.00  0.00    +0.051 C 
ATOM     14  C   UNL     1       7.414  -1.189  23.547  0.00  0.00    -0.005 C 
ATOM     15  C   UNL     1       7.946   0.243  23.600  0.00  0.00    +0.059 C 
ENDROOT
BRANCH  13  16
ATOM     16  C   UNL     1       7.507  -3.619  22.888  0.00  0.00    +0.417 C 
ATOM     17  F   UNL     1       6.181  -3.723  23.177  0.00  0.00    -0.166 F 
ATOM     18  F   UNL     1       8.169  -4.278  23.869  0.00  0.00    -0.166 F 
ATOM     19  F   UNL     1       7.713  -4.315  21.739  0.00  0.00    -0.166 F 
ENDBRANCH  13  16
BRANCH   1  20
ATOM     20  C   UNL     1       7.058  -0.868  26.473  0.00  0.00    +0.043 C 
BRANCH  20  21
ATOM     21  C   UNL     1       5.731  -0.981  27.231  0.00  0.00    +0.088 C 
BRANCH  21  22
ATOM     22  N   UNL     1       4.896  -2.054  26.640  0.00  0.00    -0.300 NA
ATOM     23  C   UNL     1       3.771  -2.489  27.500  0.00  0.00    +0.100 C 
ATOM     24  C   UNL     1       4.201  -3.308  28.741  0.00  0.00    +0.100 C 
ATOM     25  N   UNL     1       5.015  -4.505  28.416  0.00  0.00    -0.298 NA
ATOM     26  C   UNL     1       6.131  -4.080  27.534  0.00  0.00    +0.100 C 
ATOM     27  C   UNL     1       5.712  -3.238  26.305  0.00  0.00    +0.100 C 
BRANCH  25  28
ATOM     28  C   UNL     1       4.146  -5.537  27.795  0.00  0.00    +0.112 C 
BRANCH  28  29
ATOM     29  C   UNL     1       4.915  -6.755  27.268  0.00  0.00    +0.171 C 
BRANCH  29  30
ATOM     30  O   UNL     1       5.356  -7.568  28.352  0.00  0.00    -0.394 OA
ATOM     31  H   UNL     1       6.074  -7.059  28.778  0.00  0.00    +0.209 HD
ENDBRANCH  29  30
ENDBRANCH  28  29
ENDBRANCH  25  28
ENDBRANCH  21  22
ENDBRANCH  20  21
ENDBRANCH   1  20
TORSDOF 7
ENDMDL
