MODEL 1
REMARK VINA RESULT:      -4.7      0.000      0.000
REMARK  Name = 
REMARK  6 active torsions:
REMARK  status: ('A' for Active; 'I' for Inactive)
REMARK    1  A    between atoms: O_1  and  C_2
REMARK    2  A    between atoms: C_2  and  C_3
REMARK    3  A    between atoms: C_6  and  O_8
REMARK    4  A    between atoms: C_9  and  O_11
REMARK    5  A    between atoms: C_12  and  O_14
REMARK    6  A    between atoms: C_15  and  S_17
REMARK                            x       y       z     vdW  Elec       q    Type
REMARK                         _______ _______ _______ _____ _____    ______ ____
ROOT
ATOM      1  C   UNL     1       9.438  -2.059  23.850  0.00  0.00    +0.162 C 
ATOM      2  C   UNL     1       8.021  -2.314  23.292  0.00  0.00    +0.105 C 
ATOM      3  C   UNL     1       7.274  -3.318  24.186  0.00  0.00    +0.163 C 
ATOM      4  C   UNL     1       8.110  -4.576  24.449  0.00  0.00    +0.200 C 
ATOM      5  C   UNL     1       9.514  -4.177  24.937  0.00  0.00    +0.279 C 
ATOM      6  O   UNL     1      10.137  -3.314  23.999  0.00  0.00    -0.342 OA
ENDROOT
BRANCH   2   7
ATOM      7  S   UNL     1       7.053  -0.755  23.139  0.00  0.00    -0.170 S 
ATOM      8  H   UNL     1       6.322  -0.899  24.255  0.00  0.00    +0.102 HD
ENDBRANCH   2   7
BRANCH   3   9
ATOM      9  O   UNL     1       6.035  -3.726  23.587  0.00  0.00    -0.388 OA
ATOM     10  H   UNL     1       6.079  -3.432  22.654  0.00  0.00    +0.210 HD
ENDBRANCH   3   9
BRANCH   4  11
ATOM     11  O   UNL     1       7.373  -5.387  25.379  0.00  0.00    -0.384 OA
ATOM     12  H   UNL     1       6.518  -5.620  24.974  0.00  0.00    +0.210 HD
ENDBRANCH   4  11
BRANCH   5  13
ATOM     13  O   UNL     1      10.308  -5.342  25.071  0.00  0.00    -0.365 OA
ATOM     14  H   UNL     1      11.020  -5.245  24.417  0.00  0.00    +0.213 HD
ENDBRANCH   5  13
BRANCH   1  15
ATOM     15  C   UNL     1      10.285  -1.160  22.926  0.00  0.00    +0.188 C 
BRANCH  15  16
ATOM     16  O   UNL     1      10.229  -1.644  21.584  0.00  0.00    -0.392 OA
ATOM     17  H   UNL     1      11.141  -1.858  21.323  0.00  0.00    +0.210 HD
ENDBRANCH  15  16
ENDBRANCH   1  15
TORSDOF 6
ENDMDL
MODEL 2
REMARK VINA RESULT:      -4.6      3.787      5.734
REMARK  Name = 
REMARK  6 active torsions:
REMARK  status: ('A' for Active; 'I' for Inactive)
REMARK    1  A    between atoms: O_1  and  C_2
REMARK    2  A    between atoms: C_2  and  C_3
REMARK    3  A    between atoms: C_6  and  O_8
REMARK    4  A    between atoms: C_9  and  O_11
REMARK    5  A    between atoms: C_12  and  O_14
REMARK    6  A    between atoms: C_15  and  S_17
REMARK                            x       y       z     vdW  Elec       q    Type
REMARK                         _______ _______ _______ _____ _____    ______ ____
ROOT
ATOM      1  C   UNL     1       9.444   0.049  25.056  0.00  0.00    +0.162 C 
ATOM      2  C   UNL     1       9.245  -0.656  23.696  0.00  0.00    +0.105 C 
ATOM      3  C   UNL     1       9.958   0.132  22.584  0.00  0.00    +0.163 C 
ATOM      4  C   UNL     1       9.584   1.618  22.611  0.00  0.00    +0.200 C 
ATOM      5  C   UNL     1       9.766   2.176  24.034  0.00  0.00    +0.279 C 
ATOM      6  O   UNL     1       9.004   1.421  24.963  0.00  0.00    -0.342 OA
ENDROOT
BRANCH   2   7
ATOM      7  S   UNL     1       9.848  -2.396  23.731  0.00  0.00    -0.170 S 
ATOM      8  H   UNL     1      11.146  -2.121  23.926  0.00  0.00    +0.102 HD
ENDBRANCH   2   7
BRANCH   3   9
ATOM      9  O   UNL     1       9.626  -0.386  21.286  0.00  0.00    -0.388 OA
ATOM     10  H   UNL     1       9.262   0.369  20.781  0.00  0.00    +0.210 HD
ENDBRANCH   3   9
BRANCH   4  11
ATOM     11  O   UNL     1      10.385   2.274  21.615  0.00  0.00    -0.384 OA
ATOM     12  H   UNL     1      10.240   1.830  20.761  0.00  0.00    +0.210 HD
ENDBRANCH   4  11
BRANCH   5  13
ATOM     13  O   UNL     1       9.314   3.518  24.068  0.00  0.00    -0.365 OA
ATOM     14  H   UNL     1       9.429   3.852  23.164  0.00  0.00    +0.213 HD
ENDBRANCH   5  13
BRANCH   1  15
ATOM     15  C   UNL     1       8.644  -0.621  26.192  0.00  0.00    +0.188 C 
BRANCH  15  16
ATOM     16  O   UNL     1       9.322  -0.452  27.437  0.00  0.00    -0.392 OA
ATOM     17  H   UNL     1       9.635   0.468  27.465  0.00  0.00    +0.210 HD
ENDBRANCH  15  16
ENDBRANCH   1  15
TORSDOF 6
ENDMDL
MODEL 3
REMARK VINA RESULT:      -4.4      1.822      3.728
REMARK  Name = 
REMARK  6 active torsions:
REMARK  status: ('A' for Active; 'I' for Inactive)
REMARK    1  A    between atoms: O_1  and  C_2
REMARK    2  A    between atoms: C_2  and  C_3
REMARK    3  A    between atoms: C_6  and  O_8
REMARK    4  A    between atoms: C_9  and  O_11
REMARK    5  A    between atoms: C_12  and  O_14
REMARK    6  A    between atoms: C_15  and  S_17
REMARK                            x       y       z     vdW  Elec       q    Type
REMARK                         _______ _______ _______ _____ _____    ______ ____
ROOT
ATOM      1  C   UNL     1       6.476  -3.849  24.863  0.00  0.00    +0.162 C 
ATOM      2  C   UNL     1       7.729  -3.116  24.337  0.00  0.00    +0.105 C 
ATOM      3  C   UNL     1       8.950  -4.050  24.395  0.00  0.00    +0.163 C 
ATOM      4  C   UNL     1       9.103  -4.700  25.775  0.00  0.00    +0.200 C 
ATOM      5  C   UNL     1       7.768  -5.334  26.204  0.00  0.00    +0.279 C 
ATOM      6  O   UNL     1       6.732  -4.364  26.187  0.00  0.00    -0.342 OA
ENDROOT
BRANCH   2   7
ATOM      7  S   UNL     1       7.488  -2.488  22.622  0.00  0.00    -0.170 S 
ATOM      8  H   UNL     1       6.272  -3.017  22.418  0.00  0.00    +0.102 HD
ENDBRANCH   2   7
BRANCH   3   9
ATOM      9  O   UNL     1      10.162  -3.338  24.102  0.00  0.00    -0.388 OA
ATOM     10  H   UNL     1       9.890  -2.536  23.611  0.00  0.00    +0.210 HD
ENDBRANCH   3   9
BRANCH   4  11
ATOM     11  O   UNL     1      10.194  -5.631  25.685  0.00  0.00    -0.384 OA
ATOM     12  H   UNL     1      10.995  -5.143  25.422  0.00  0.00    +0.210 HD
ENDBRANCH   4  11
BRANCH   5  13
ATOM     13  O   UNL     1       7.893  -5.834  27.523  0.00  0.00    -0.365 OA
ATOM     14  H   UNL     1       8.716  -6.351  27.525  0.00  0.00    +0.213 HD
ENDBRANCH   5  13
BRANCH   1  15
ATOM     15  C   UNL     1       5.244  -2.924  24.953  0.00  0.00    +0.188 C 
BRANCH  15  16
ATOM     16  O   UNL     1       4.116  -3.548  24.339  0.00  0.00    -0.392 OA
ATOM     17  H   UNL     1       4.201  -4.504  24.499  0.00  0.00    +0.210 HD
ENDBRANCH  15  16
ENDBRANCH   1  15
TORSDOF 6
ENDMDL
MODEL 4
REMARK VINA RESULT:      -4.4      2.963      4.702
REMARK  Name = 
REMARK  6 active torsions:
REMARK  status: ('A' for Active; 'I' for Inactive)
REMARK    1  A    between atoms: O_1  and  C_2
REMARK    2  A    between atoms: C_2  and  C_3
REMARK    3  A    between atoms: C_6  and  O_8
REMARK    4  A    between atoms: C_9  and  O_11
REMARK    5  A    between atoms: C_12  and  O_14
REMARK    6  A    between atoms: C_15  and  S_17
REMARK                            x       y       z     vdW  Elec       q    Type
REMARK                         _______ _______ _______ _____ _____    ______ ____
ROOT
ATOM      1  C   UNL     1       6.270  -4.912  25.659  0.00  0.00    +0.162 C 
ATOM      2  C   UNL     1       7.203  -4.544  24.485  0.00  0.00    +0.105 C 
ATOM      3  C   UNL     1       6.449  -4.677  23.150  0.00  0.00    +0.163 C 
ATOM      4  C   UNL     1       5.746  -6.034  23.028  0.00  0.00    +0.200 C 
ATOM      5  C   UNL     1       4.906  -6.302  24.289  0.00  0.00    +0.279 C 
ATOM      6  O   UNL     1       5.718  -6.230  25.450  0.00  0.00    -0.342 OA
ENDROOT
BRANCH   2   7
ATOM      7  S   UNL     1       7.891  -2.845  24.661  0.00  0.00    -0.170 S 
ATOM      8  H   UNL     1       8.005  -2.572  23.352  0.00  0.00    +0.102 HD
ENDBRANCH   2   7
BRANCH   3   9
ATOM      9  O   UNL     1       7.340  -4.536  22.034  0.00  0.00    -0.388 OA
ATOM     10  H   UNL     1       6.774  -4.323  21.264  0.00  0.00    +0.210 HD
ENDBRANCH   3   9
BRANCH   4  11
ATOM     11  O   UNL     1       4.986  -6.008  21.809  0.00  0.00    -0.384 OA
ATOM     12  H   UNL     1       5.495  -5.518  21.138  0.00  0.00    +0.210 HD
ENDBRANCH   4  11
BRANCH   5  13
ATOM     13  O   UNL     1       4.350  -7.603  24.210  0.00  0.00    -0.365 OA
ATOM     14  H   UNL     1       4.989  -8.183  24.655  0.00  0.00    +0.213 HD
ENDBRANCH   5  13
BRANCH   1  15
ATOM     15  C   UNL     1       7.005  -4.924  27.016  0.00  0.00    +0.188 C 
BRANCH  15  16
ATOM     16  O   UNL     1       7.998  -5.951  27.028  0.00  0.00    -0.392 OA
ATOM     17  H   UNL     1       8.835  -5.530  27.289  0.00  0.00    +0.210 HD
ENDBRANCH  15  16
ENDBRANCH   1  15
TORSDOF 6
ENDMDL
MODEL 5
REMARK VINA RESULT:      -4.3      2.264      3.539
REMARK  Name = 
REMARK  6 active torsions:
REMARK  status: ('A' for Active; 'I' for Inactive)
REMARK    1  A    between atoms: O_1  and  C_2
REMARK    2  A    between atoms: C_2  and  C_3
REMARK    3  A    between atoms: C_6  and  O_8
REMARK    4  A    between atoms: C_9  and  O_11
REMARK    5  A    between atoms: C_12  and  O_14
REMARK    6  A    between atoms: C_15  and  S_17
REMARK                            x       y       z     vdW  Elec       q    Type
REMARK                         _______ _______ _______ _____ _____    ______ ____
ROOT
ATOM      1  C   UNL     1       8.178  -4.463  24.589  0.00  0.00    +0.162 C 
ATOM      2  C   UNL     1       7.841  -2.983  24.303  0.00  0.00    +0.105 C 
ATOM      3  C   UNL     1       6.559  -2.888  23.459  0.00  0.00    +0.163 C 
ATOM      4  C   UNL     1       6.623  -3.795  22.225  0.00  0.00    +0.200 C 
ATOM      5  C   UNL     1       7.031  -5.219  22.644  0.00  0.00    +0.279 C 
ATOM      6  O   UNL     1       8.264  -5.193  23.347  0.00  0.00    -0.342 OA
ENDROOT
BRANCH   2   7
ATOM      7  S   UNL     1       7.655  -2.009  25.855  0.00  0.00    -0.170 S 
ATOM      8  H   UNL     1       8.961  -1.832  26.102  0.00  0.00    +0.102 HD
ENDBRANCH   2   7
BRANCH   3   9
ATOM      9  O   UNL     1       6.331  -1.543  23.010  0.00  0.00    -0.388 OA
ATOM     10  H   UNL     1       6.968  -0.986  23.502  0.00  0.00    +0.210 HD
ENDBRANCH   3   9
BRANCH   4  11
ATOM     11  O   UNL     1       5.343  -3.718  21.576  0.00  0.00    -0.384 OA
ATOM     12  H   UNL     1       5.432  -4.075  20.674  0.00  0.00    +0.210 HD
ENDBRANCH   4  11
BRANCH   5  13
ATOM     13  O   UNL     1       7.192  -6.017  21.485  0.00  0.00    -0.365 OA
ATOM     14  H   UNL     1       7.926  -5.613  20.994  0.00  0.00    +0.213 HD
ENDBRANCH   5  13
BRANCH   1  15
ATOM     15  C   UNL     1       9.525  -4.631  25.323  0.00  0.00    +0.188 C 
BRANCH  15  16
ATOM     16  O   UNL     1       9.818  -6.017  25.501  0.00  0.00    -0.392 OA
ATOM     17  H   UNL     1       9.654  -6.452  24.647  0.00  0.00    +0.210 HD
ENDBRANCH  15  16
ENDBRANCH   1  15
TORSDOF 6
ENDMDL
MODEL 6
REMARK VINA RESULT:      -4.3      1.924      4.039
REMARK  Name = 
REMARK  6 active torsions:
REMARK  status: ('A' for Active; 'I' for Inactive)
REMARK    1  A    between atoms: O_1  and  C_2
REMARK    2  A    between atoms: C_2  and  C_3
REMARK    3  A    between atoms: C_6  and  O_8
REMARK    4  A    between atoms: C_9  and  O_11
REMARK    5  A    between atoms: C_12  and  O_14
REMARK    6  A    between atoms: C_15  and  S_17
REMARK                            x       y       z     vdW  Elec       q    Type
REMARK                         _______ _______ _______ _____ _____    ______ ____
ROOT
ATOM      1  C   UNL     1       6.749  -5.262  24.929  0.00  0.00    +0.162 C 
ATOM      2  C   UNL     1       6.596  -3.756  24.623  0.00  0.00    +0.105 C 
ATOM      3  C   UNL     1       7.865  -3.226  23.934  0.00  0.00    +0.163 C 
ATOM      4  C   UNL     1       9.134  -3.612  24.703  0.00  0.00    +0.200 C 
ATOM      5  C   UNL     1       9.125  -5.123  24.998  0.00  0.00    +0.279 C 
ATOM      6  O   UNL     1       7.948  -5.484  25.702  0.00  0.00    -0.342 OA
ENDROOT
BRANCH   2   7
ATOM      7  S   UNL     1       5.116  -3.413  23.582  0.00  0.00    -0.170 S 
ATOM      8  H   UNL     1       5.749  -3.354  22.402  0.00  0.00    +0.102 HD
ENDBRANCH   2   7
BRANCH   3   9
ATOM      9  O   UNL     1       7.834  -1.795  23.818  0.00  0.00    -0.388 OA
ATOM     10  H   UNL     1       6.991  -1.511  24.226  0.00  0.00    +0.210 HD
ENDBRANCH   3   9
BRANCH   4  11
ATOM     11  O   UNL     1      10.254  -3.171  23.920  0.00  0.00    -0.384 OA
ATOM     12  H   UNL     1      11.004  -3.770  24.089  0.00  0.00    +0.210 HD
ENDBRANCH   4  11
BRANCH   5  13
ATOM     13  O   UNL     1      10.246  -5.446  25.801  0.00  0.00    -0.365 OA
ATOM     14  H   UNL     1      10.422  -4.650  26.330  0.00  0.00    +0.213 HD
ENDBRANCH   5  13
BRANCH   1  15
ATOM     15  C   UNL     1       5.562  -5.824  25.738  0.00  0.00    +0.188 C 
BRANCH  15  16
ATOM     16  O   UNL     1       6.036  -6.487  26.910  0.00  0.00    -0.392 OA
ATOM     17  H   UNL     1       5.462  -7.260  27.048  0.00  0.00    +0.210 HD
ENDBRANCH  15  16
ENDBRANCH   1  15
TORSDOF 6
ENDMDL
MODEL 7
REMARK VINA RESULT:      -4.2      2.237      4.437
REMARK  Name = 
REMARK  6 active torsions:
REMARK  status: ('A' for Active; 'I' for Inactive)
REMARK    1  A    between atoms: O_1  and  C_2
REMARK    2  A    between atoms: C_2  and  C_3
REMARK    3  A    between atoms: C_6  and  O_8
REMARK    4  A    between atoms: C_9  and  O_11
REMARK    5  A    between atoms: C_12  and  O_14
REMARK    6  A    between atoms: C_15  and  S_17
REMARK                            x       y       z     vdW  Elec       q    Type
REMARK                         _______ _______ _______ _____ _____    ______ ____
ROOT
ATOM      1  C   UNL     1       8.815  -2.342  24.597  0.00  0.00    +0.162 C 
ATOM      2  C   UNL     1       9.122  -1.077  25.429  0.00  0.00    +0.105 C 
ATOM      3  C   UNL     1       9.142   0.162  24.517  0.00  0.00    +0.163 C 
ATOM      4  C   UNL     1      10.038  -0.049  23.291  0.00  0.00    +0.200 C 
ATOM      5  C   UNL     1       9.669  -1.372  22.597  0.00  0.00    +0.279 C 
ATOM      6  O   UNL     1       9.759  -2.453  23.511  0.00  0.00    -0.342 OA
ENDROOT
BRANCH   2   7
ATOM      7  S   UNL     1       7.910  -0.843  26.795  0.00  0.00    -0.170 S 
ATOM      8  H   UNL     1       6.882  -1.485  26.222  0.00  0.00    +0.102 HD
ENDBRANCH   2   7
BRANCH   3   9
ATOM      9  O   UNL     1       9.619   1.317  25.223  0.00  0.00    -0.388 OA
ATOM     10  H   UNL     1      10.567   1.149  25.403  0.00  0.00    +0.210 HD
ENDBRANCH   3   9
BRANCH   4  11
ATOM     11  O   UNL     1       9.894   1.113  22.458  0.00  0.00    -0.384 OA
ATOM     12  H   UNL     1      10.695   1.200  21.910  0.00  0.00    +0.210 HD
ENDBRANCH   4  11
BRANCH   5  13
ATOM     13  O   UNL     1      10.573  -1.607  21.532  0.00  0.00    -0.365 OA
ATOM     14  H   UNL     1      11.351  -2.020  21.942  0.00  0.00    +0.213 HD
ENDBRANCH   5  13
BRANCH   1  15
ATOM     15  C   UNL     1       8.909  -3.636  25.432  0.00  0.00    +0.188 C 
BRANCH  15  16
ATOM     16  O   UNL     1       9.829  -4.545  24.827  0.00  0.00    -0.392 OA
ATOM     17  H   UNL     1       9.663  -4.519  23.869  0.00  0.00    +0.210 HD
ENDBRANCH  15  16
ENDBRANCH   1  15
TORSDOF 6
ENDMDL
MODEL 8
REMARK VINA RESULT:      -4.2      2.486      3.374
REMARK  Name = 
REMARK  6 active torsions:
REMARK  status: ('A' for Active; 'I' for Inactive)
REMARK    1  A    between atoms: O_1  and  C_2
REMARK    2  A    between atoms: C_2  and  C_3
REMARK    3  A    between atoms: C_6  and  O_8
REMARK    4  A    between atoms: C_9  and  O_11
REMARK    5  A    between atoms: C_12  and  O_14
REMARK    6  A    between atoms: C_15  and  S_17
REMARK                            x       y       z     vdW  Elec       q    Type
REMARK                         _______ _______ _______ _____ _____    ______ ____
ROOT
ATOM      1  C   UNL     1       8.941   0.928  23.141  0.00  0.00    +0.162 C 
ATOM      2  C   UNL     1       7.486   0.476  22.890  0.00  0.00    +0.105 C 
ATOM      3  C   UNL     1       7.336  -1.021  23.213  0.00  0.00    +0.163 C 
ATOM      4  C   UNL     1       8.412  -1.863  22.517  0.00  0.00    +0.200 C 
ATOM      5  C   UNL     1       9.803  -1.265  22.795  0.00  0.00    +0.279 C 
ATOM      6  O   UNL     1       9.848   0.094  22.389  0.00  0.00    -0.342 OA
ENDROOT
BRANCH   2   7
ATOM      7  S   UNL     1       6.281   1.462  23.874  0.00  0.00    -0.170 S 
ATOM      8  H   UNL     1       7.162   2.003  24.728  0.00  0.00    +0.102 HD
ENDBRANCH   2   7
BRANCH   3   9
ATOM      9  O   UNL     1       6.052  -1.515  22.802  0.00  0.00    -0.388 OA
ATOM     10  H   UNL     1       6.098  -2.489  22.889  0.00  0.00    +0.210 HD
ENDBRANCH   3   9
BRANCH   4  11
ATOM     11  O   UNL     1       8.251  -3.216  22.973  0.00  0.00    -0.384 OA
ATOM     12  H   UNL     1       9.109  -3.532  23.310  0.00  0.00    +0.210 HD
ENDBRANCH   4  11
BRANCH   5  13
ATOM     13  O   UNL     1      10.775  -1.986  22.060  0.00  0.00    -0.365 OA
ATOM     14  H   UNL     1      11.555  -2.028  22.637  0.00  0.00    +0.213 HD
ENDBRANCH   5  13
BRANCH   1  15
ATOM     15  C   UNL     1       9.187   2.389  22.712  0.00  0.00    +0.188 C 
BRANCH  15  16
ATOM     16  O   UNL     1      10.070   2.431  21.591  0.00  0.00    -0.392 OA
ATOM     17  H   UNL     1       9.983   1.577  21.132  0.00  0.00    +0.210 HD
ENDBRANCH  15  16
ENDBRANCH   1  15
TORSDOF 6
ENDMDL
MODEL 9
REMARK VINA RESULT:      -4.1      2.793      3.833
REMARK  Name = 
REMARK  6 active torsions:
REMARK  status: ('A' for Active; 'I' for Inactive)
REMARK    1  A    between atoms: O_1  and  C_2
REMARK    2  A    between atoms: C_2  and  C_3
REMARK    3  A    between atoms: C_6  and  O_8
REMARK    4  A    between atoms: C_9  and  O_11
REMARK    5  A    between atoms: C_12  and  O_14
REMARK    6  A    between atoms: C_15  and  S_17
REMARK                            x       y       z     vdW  Elec       q    Type
REMARK                         _______ _______ _______ _____ _____    ______ ____
ROOT
ATOM      1  C   UNL     1       7.734  -4.620  23.903  0.00  0.00    +0.162 C 
ATOM      2  C   UNL     1       6.685  -4.520  25.032  0.00  0.00    +0.105 C 
ATOM      3  C   UNL     1       5.800  -5.778  25.044  0.00  0.00    +0.163 C 
ATOM      4  C   UNL     1       5.236  -6.089  23.653  0.00  0.00    +0.200 C 
ATOM      5  C   UNL     1       6.375  -6.094  22.617  0.00  0.00    +0.279 C 
ATOM      6  O   UNL     1       7.072  -4.858  22.642  0.00  0.00    -0.342 OA
ENDROOT
BRANCH   2   7
ATOM      7  S   UNL     1       7.471  -4.279  26.680  0.00  0.00    -0.170 S 
ATOM      8  H   UNL     1       8.583  -4.991  26.443  0.00  0.00    +0.102 HD
ENDBRANCH   2   7
BRANCH   3   9
ATOM      9  O   UNL     1       4.695  -5.627  25.948  0.00  0.00    -0.388 OA
ATOM     10  H   UNL     1       5.001  -5.012  26.645  0.00  0.00    +0.210 HD
ENDBRANCH   3   9
BRANCH   4  11
ATOM     11  O   UNL     1       4.526  -7.334  23.752  0.00  0.00    -0.384 OA
ATOM     12  H   UNL     1       5.133  -8.007  24.110  0.00  0.00    +0.210 HD
ENDBRANCH   4  11
BRANCH   5  13
ATOM     13  O   UNL     1       5.827  -6.274  21.324  0.00  0.00    -0.365 OA
ATOM     14  H   UNL     1       5.429  -5.419  21.091  0.00  0.00    +0.213 HD
ENDBRANCH   5  13
BRANCH   1  15
ATOM     15  C   UNL     1       8.568  -3.332  23.756  0.00  0.00    +0.188 C 
BRANCH  15  16
ATOM     16  O   UNL     1       9.917  -3.571  24.159  0.00  0.00    -0.392 OA
ATOM     17  H   UNL     1      10.053  -4.534  24.132  0.00  0.00    +0.210 HD
ENDBRANCH  15  16
ENDBRANCH   1  15
TORSDOF 6
ENDMDL
