MODEL 1
REMARK VINA RESULT:      -6.2      0.000      0.000
REMARK  Name = 
REMARK  5 active torsions:
REMARK  status: ('A' for Active; 'I' for Inactive)
REMARK    1  A    between atoms: O_1  and  C_2
REMARK    2  A    between atoms: C_2  and  C_4
REMARK    3  A    between atoms: C_4  and  N_5
REMARK    4  A    between atoms: C_6  and  C_8
REMARK    5  A    between atoms: C_8  and  C_9
REMARK                            x       y       z     vdW  Elec       q    Type
REMARK                         _______ _______ _______ _____ _____    ______ ____
ROOT
ATOM      1  C   UNL     1       9.846  -2.771  24.114  0.00  0.00    +0.133 C 
ENDROOT
BRANCH   1   2
ATOM      2  C   UNL     1       9.754  -1.691  23.085  0.00  0.00    -0.014 A 
ATOM      3  C   UNL     1      10.086  -0.306  23.259  0.00  0.00    +0.003 A 
ATOM      4  C   UNL     1      10.594   0.457  24.331  0.00  0.00    +0.010 A 
ATOM      5  C   UNL     1      10.760   1.838  24.181  0.00  0.00    +0.001 A 
ATOM      6  C   UNL     1      10.433   2.465  22.982  0.00  0.00    +0.002 A 
ATOM      7  C   UNL     1       9.947   1.731  21.897  0.00  0.00    +0.026 A 
ATOM      8  C   UNL     1       9.790   0.349  22.064  0.00  0.00    +0.047 A 
ATOM      9  N   UNL     1       9.348  -0.605  21.178  0.00  0.00    -0.360 N 
ATOM     10  H   UNL     1       9.076  -0.413  20.223  0.00  0.00    +0.165 HD
ATOM     11  C   UNL     1       9.329  -1.836  21.776  0.00  0.00    +0.087 A 
ENDBRANCH   1   2
BRANCH   1  14
ATOM     12  N   UNL     1       8.097  -4.389  24.690  0.00  0.00    -0.305 N 
ATOM     13  H   UNL     1       8.600  -5.025  24.080  0.00  0.00    +0.149 HD
ATOM     14  C   UNL     1       8.481  -3.071  24.715  0.00  0.00    +0.218 C 
ATOM     15  O   UNL     1       7.706  -2.210  25.127  0.00  0.00    -0.275 OA
BRANCH  12  16
ATOM     16  C   UNL     1       6.791  -4.807  25.182  0.00  0.00    +0.224 C 
BRANCH  16  17
ATOM     17  C   UNL     1       6.878  -5.711  26.407  0.00  0.00    +0.322 C 
ATOM     18  O   UNL     1       5.942  -6.388  26.811  0.00  0.00    -0.249 OA
BRANCH  17  19
ATOM     19  O   UNL     1       8.109  -5.772  26.966  0.00  0.00    -0.480 OA
ATOM     20  H   UNL     1       8.831  -5.833  26.297  0.00  0.00    +0.295 HD
ENDBRANCH  17  19
ENDBRANCH  16  17
ENDBRANCH  12  16
ENDBRANCH   1  14
TORSDOF 5
ENDMDL
MODEL 2
REMARK VINA RESULT:      -6.1      2.004      2.403
REMARK  Name = 
REMARK  5 active torsions:
REMARK  status: ('A' for Active; 'I' for Inactive)
REMARK    1  A    between atoms: O_1  and  C_2
REMARK    2  A    between atoms: C_2  and  C_4
REMARK    3  A    between atoms: C_4  and  N_5
REMARK    4  A    between atoms: C_6  and  C_8
REMARK    5  A    between atoms: C_8  and  C_9
REMARK                            x       y       z     vdW  Elec       q    Type
REMARK                         _______ _______ _______ _____ _____    ______ ____
ROOT
ATOM      1  C   UNL     1       9.423  -2.848  24.067  0.00  0.00    +0.133 C 
ENDROOT
BRANCH   1   2
ATOM      2  C   UNL     1       9.514  -1.745  23.062  0.00  0.00    -0.014 A 
ATOM      3  C   UNL     1       9.886  -0.382  23.312  0.00  0.00    +0.003 A 
ATOM      4  C   UNL     1      10.289   0.334  24.459  0.00  0.00    +0.010 A 
ATOM      5  C   UNL     1      10.537   1.708  24.366  0.00  0.00    +0.001 A 
ATOM      6  C   UNL     1      10.396   2.373  23.152  0.00  0.00    +0.002 A 
ATOM      7  C   UNL     1      10.019   1.685  21.995  0.00  0.00    +0.026 A 
ATOM      8  C   UNL     1       9.776   0.310  22.106  0.00  0.00    +0.047 A 
ATOM      9  N   UNL     1       9.407  -0.604  21.147  0.00  0.00    -0.360 N 
ATOM     10  H   UNL     1       9.269  -0.381  20.171  0.00  0.00    +0.165 HD
ATOM     11  C   UNL     1       9.254  -1.844  21.707  0.00  0.00    +0.087 A 
ENDBRANCH   1   2
BRANCH   1  14
ATOM     12  N   UNL     1       7.853  -4.641  23.493  0.00  0.00    -0.305 N 
ATOM     13  H   UNL     1       8.573  -4.954  22.852  0.00  0.00    +0.149 HD
ATOM     14  C   UNL     1       8.017  -3.427  24.115  0.00  0.00    +0.218 C 
ATOM     15  O   UNL     1       7.047  -2.842  24.593  0.00  0.00    -0.275 OA
BRANCH  12  16
ATOM     16  C   UNL     1       6.547  -5.282  23.417  0.00  0.00    +0.224 C 
BRANCH  16  17
ATOM     17  C   UNL     1       5.911  -5.174  22.036  0.00  0.00    +0.322 C 
ATOM     18  O   UNL     1       5.667  -4.107  21.489  0.00  0.00    -0.249 OA
BRANCH  17  19
ATOM     19  O   UNL     1       5.715  -6.363  21.420  0.00  0.00    -0.480 OA
ATOM     20  H   UNL     1       6.239  -6.455  20.589  0.00  0.00    +0.295 HD
ENDBRANCH  17  19
ENDBRANCH  16  17
ENDBRANCH  12  16
ENDBRANCH   1  14
TORSDOF 5
ENDMDL
MODEL 3
REMARK VINA RESULT:      -6.1      5.911      7.979
REMARK  Name = 
REMARK  5 active torsions:
REMARK  status: ('A' for Active; 'I' for Inactive)
REMARK    1  A    between atoms: O_1  and  C_2
REMARK    2  A    between atoms: C_2  and  C_4
REMARK    3  A    between atoms: C_4  and  N_5
REMARK    4  A    between atoms: C_6  and  C_8
REMARK    5  A    between atoms: C_8  and  C_9
REMARK                            x       y       z     vdW  Elec       q    Type
REMARK                         _______ _______ _______ _____ _____    ______ ____
ROOT
ATOM      1  C   UNL     1       8.872   3.982  24.304  0.00  0.00    +0.133 C 
ENDROOT
BRANCH   1   2
ATOM      2  C   UNL     1       8.697   2.983  23.206  0.00  0.00    -0.014 A 
ATOM      3  C   UNL     1       9.297   1.682  23.122  0.00  0.00    +0.003 A 
ATOM      4  C   UNL     1      10.149   0.936  23.962  0.00  0.00    +0.010 A 
ATOM      5  C   UNL     1      10.605  -0.320  23.547  0.00  0.00    +0.001 A 
ATOM      6  C   UNL     1      10.220  -0.842  22.315  0.00  0.00    +0.002 A 
ATOM      7  C   UNL     1       9.360  -0.133  21.472  0.00  0.00    +0.026 A 
ATOM      8  C   UNL     1       8.913   1.122  21.904  0.00  0.00    +0.047 A 
ATOM      9  N   UNL     1       8.067   2.018  21.294  0.00  0.00    -0.360 N 
ATOM     10  H   UNL     1       7.623   1.864  20.400  0.00  0.00    +0.165 HD
ATOM     11  C   UNL     1       7.923   3.138  22.070  0.00  0.00    +0.087 A 
ENDBRANCH   1   2
BRANCH   1  14
ATOM     12  N   UNL     1      11.137   4.871  24.016  0.00  0.00    -0.305 N 
ATOM     13  H   UNL     1      11.427   4.097  24.603  0.00  0.00    +0.149 HD
ATOM     14  C   UNL     1       9.792   5.113  23.873  0.00  0.00    +0.218 C 
ATOM     15  O   UNL     1       9.401   6.217  23.499  0.00  0.00    -0.275 OA
BRANCH  12  16
ATOM     16  C   UNL     1      12.128   5.889  23.694  0.00  0.00    +0.224 C 
BRANCH  16  17
ATOM     17  C   UNL     1      13.185   5.401  22.709  0.00  0.00    +0.322 C 
ATOM     18  O   UNL     1      13.047   5.449  21.495  0.00  0.00    -0.249 OA
BRANCH  17  19
ATOM     19  O   UNL     1      14.335   4.986  23.290  0.00  0.00    -0.480 OA
ATOM     20  H   UNL     1      15.138   5.385  22.877  0.00  0.00    +0.295 HD
ENDBRANCH  17  19
ENDBRANCH  16  17
ENDBRANCH  12  16
ENDBRANCH   1  14
TORSDOF 5
ENDMDL
MODEL 4
REMARK VINA RESULT:      -6.0      2.016      2.635
REMARK  Name = 
REMARK  5 active torsions:
REMARK  status: ('A' for Active; 'I' for Inactive)
REMARK    1  A    between atoms: O_1  and  C_2
REMARK    2  A    between atoms: C_2  and  C_4
REMARK    3  A    between atoms: C_4  and  N_5
REMARK    4  A    between atoms: C_6  and  C_8
REMARK    5  A    between atoms: C_8  and  C_9
REMARK                            x       y       z     vdW  Elec       q    Type
REMARK                         _______ _______ _______ _____ _____    ______ ____
ROOT
ATOM      1  C   UNL     1      10.494  -0.383  23.732  0.00  0.00    +0.133 C 
ENDROOT
BRANCH   1   2
ATOM      2  C   UNL     1       9.717   0.575  22.887  0.00  0.00    -0.014 A 
ATOM      3  C   UNL     1       9.124   1.812  23.311  0.00  0.00    +0.003 A 
ATOM      4  C   UNL     1       9.087   2.517  24.531  0.00  0.00    +0.010 A 
ATOM      5  C   UNL     1       8.355   3.706  24.622  0.00  0.00    +0.001 A 
ATOM      6  C   UNL     1       7.669   4.202  23.516  0.00  0.00    +0.002 A 
ATOM      7  C   UNL     1       7.707   3.535  22.289  0.00  0.00    +0.026 A 
ATOM      8  C   UNL     1       8.445   2.347  22.217  0.00  0.00    +0.047 A 
ATOM      9  N   UNL     1       8.660   1.502  21.153  0.00  0.00    -0.360 N 
ATOM     10  H   UNL     1       8.296   1.654  20.223  0.00  0.00    +0.165 HD
ATOM     11  C   UNL     1       9.430   0.438  21.541  0.00  0.00    +0.087 A 
ENDBRANCH   1   2
BRANCH   1  14
ATOM     12  N   UNL     1       9.725  -2.706  23.862  0.00  0.00    -0.305 N 
ATOM     13  H   UNL     1      10.223  -2.834  22.988  0.00  0.00    +0.149 HD
ATOM     14  C   UNL     1       9.581  -1.430  24.350  0.00  0.00    +0.218 C 
ATOM     15  O   UNL     1       8.700  -1.179  25.171  0.00  0.00    -0.275 OA
BRANCH  12  16
ATOM     16  C   UNL     1       8.876  -3.795  24.326  0.00  0.00    +0.224 C 
BRANCH  16  17
ATOM     17  C   UNL     1       9.484  -4.571  25.488  0.00  0.00    +0.322 C 
ATOM     18  O   UNL     1       9.083  -4.483  26.640  0.00  0.00    -0.249 OA
BRANCH  17  19
ATOM     19  O   UNL     1      10.457  -5.440  25.127  0.00  0.00    -0.480 OA
ATOM     20  H   UNL     1      10.869  -5.215  24.259  0.00  0.00    +0.295 HD
ENDBRANCH  17  19
ENDBRANCH  16  17
ENDBRANCH  12  16
ENDBRANCH   1  14
TORSDOF 5
ENDMDL
MODEL 5
REMARK VINA RESULT:      -6.0      2.747      3.220
REMARK  Name = 
REMARK  5 active torsions:
REMARK  status: ('A' for Active; 'I' for Inactive)
REMARK    1  A    between atoms: O_1  and  C_2
REMARK    2  A    between atoms: C_2  and  C_4
REMARK    3  A    between atoms: C_4  and  N_5
REMARK    4  A    between atoms: C_6  and  C_8
REMARK    5  A    between atoms: C_8  and  C_9
REMARK                            x       y       z     vdW  Elec       q    Type
REMARK                         _______ _______ _______ _____ _____    ______ ____
ROOT
ATOM      1  C   UNL     1       8.445  -2.723  24.477  0.00  0.00    +0.133 C 
ENDROOT
BRANCH   1   2
ATOM      2  C   UNL     1       9.000  -1.778  23.460  0.00  0.00    -0.014 A 
ATOM      3  C   UNL     1       8.410  -0.548  23.015  0.00  0.00    +0.003 A 
ATOM      4  C   UNL     1       7.239   0.161  23.356  0.00  0.00    +0.010 A 
ATOM      5  C   UNL     1       6.920   1.340  22.674  0.00  0.00    +0.001 A 
ATOM      6  C   UNL     1       7.752   1.824  21.668  0.00  0.00    +0.002 A 
ATOM      7  C   UNL     1       8.929   1.153  21.325  0.00  0.00    +0.026 A 
ATOM      8  C   UNL     1       9.233  -0.025  22.019  0.00  0.00    +0.047 A 
ATOM      9  N   UNL     1      10.311  -0.870  21.899  0.00  0.00    -0.360 N 
ATOM     10  H   UNL     1      11.079  -0.726  21.257  0.00  0.00    +0.165 HD
ATOM     11  C   UNL     1      10.187  -1.923  22.765  0.00  0.00    +0.087 A 
ENDBRANCH   1   2
BRANCH   1  14
ATOM     12  N   UNL     1       7.346  -4.366  23.028  0.00  0.00    -0.305 N 
ATOM     13  H   UNL     1       6.590  -3.693  22.978  0.00  0.00    +0.149 HD
ATOM     14  C   UNL     1       8.364  -4.136  23.922  0.00  0.00    +0.218 C 
ATOM     15  O   UNL     1       9.086  -5.063  24.286  0.00  0.00    -0.275 OA
BRANCH  12  16
ATOM     16  C   UNL     1       7.120  -5.689  22.462  0.00  0.00    +0.224 C 
BRANCH  16  17
ATOM     17  C   UNL     1       5.914  -5.740  21.531  0.00  0.00    +0.322 C 
ATOM     18  O   UNL     1       5.992  -5.586  20.320  0.00  0.00    -0.249 OA
BRANCH  17  19
ATOM     19  O   UNL     1       4.751  -6.059  22.145  0.00  0.00    -0.480 OA
ATOM     20  H   UNL     1       4.631  -5.591  23.005  0.00  0.00    +0.295 HD
ENDBRANCH  17  19
ENDBRANCH  16  17
ENDBRANCH  12  16
ENDBRANCH   1  14
TORSDOF 5
ENDMDL
MODEL 6
REMARK VINA RESULT:      -5.9      2.774      3.238
REMARK  Name = 
REMARK  5 active torsions:
REMARK  status: ('A' for Active; 'I' for Inactive)
REMARK    1  A    between atoms: O_1  and  C_2
REMARK    2  A    between atoms: C_2  and  C_4
REMARK    3  A    between atoms: C_4  and  N_5
REMARK    4  A    between atoms: C_6  and  C_8
REMARK    5  A    between atoms: C_8  and  C_9
REMARK                            x       y       z     vdW  Elec       q    Type
REMARK                         _______ _______ _______ _____ _____    ______ ____
ROOT
ATOM      1  C   UNL     1       9.497  -2.842  24.117  0.00  0.00    +0.133 C 
ENDROOT
BRANCH   1   2
ATOM      2  C   UNL     1       9.350  -1.426  24.574  0.00  0.00    -0.014 A 
ATOM      3  C   UNL     1       9.538  -0.242  23.785  0.00  0.00    +0.003 A 
ATOM      4  C   UNL     1       9.861  -0.002  22.434  0.00  0.00    +0.010 A 
ATOM      5  C   UNL     1      10.024   1.313  21.984  0.00  0.00    +0.001 A 
ATOM      6  C   UNL     1       9.863   2.385  22.856  0.00  0.00    +0.002 A 
ATOM      7  C   UNL     1       9.522   2.177  24.195  0.00  0.00    +0.026 A 
ATOM      8  C   UNL     1       9.362   0.855  24.628  0.00  0.00    +0.047 A 
ATOM      9  N   UNL     1       9.025   0.364  25.867  0.00  0.00    -0.360 N 
ATOM     10  H   UNL     1       8.824   0.940  26.673  0.00  0.00    +0.165 HD
ATOM     11  C   UNL     1       9.006  -1.005  25.847  0.00  0.00    +0.087 A 
ENDBRANCH   1   2
BRANCH   1  14
ATOM     12  N   UNL     1       7.699  -3.477  22.577  0.00  0.00    -0.305 N 
ATOM     13  H   UNL     1       8.157  -2.859  21.917  0.00  0.00    +0.149 HD
ATOM     14  C   UNL     1       8.138  -3.482  23.879  0.00  0.00    +0.218 C 
ATOM     15  O   UNL     1       7.411  -3.909  24.774  0.00  0.00    -0.275 OA
BRANCH  12  16
ATOM     16  C   UNL     1       6.391  -4.007  22.217  0.00  0.00    +0.224 C 
BRANCH  16  17
ATOM     17  C   UNL     1       6.472  -5.322  21.450  0.00  0.00    +0.322 C 
ATOM     18  O   UNL     1       5.933  -5.503  20.367  0.00  0.00    -0.249 OA
BRANCH  17  19
ATOM     19  O   UNL     1       7.267  -6.253  22.026  0.00  0.00    -0.480 OA
ATOM     20  H   UNL     1       7.120  -6.334  22.998  0.00  0.00    +0.295 HD
ENDBRANCH  17  19
ENDBRANCH  16  17
ENDBRANCH  12  16
ENDBRANCH   1  14
TORSDOF 5
ENDMDL
MODEL 7
REMARK VINA RESULT:      -5.8      2.677      6.723
REMARK  Name = 
REMARK  5 active torsions:
REMARK  status: ('A' for Active; 'I' for Inactive)
REMARK    1  A    between atoms: O_1  and  C_2
REMARK    2  A    between atoms: C_2  and  C_4
REMARK    3  A    between atoms: C_4  and  N_5
REMARK    4  A    between atoms: C_6  and  C_8
REMARK    5  A    between atoms: C_8  and  C_9
REMARK                            x       y       z     vdW  Elec       q    Type
REMARK                         _______ _______ _______ _____ _____    ______ ____
ROOT
ATOM      1  C   UNL     1       9.660  -3.058  24.176  0.00  0.00    +0.133 C 
ENDROOT
BRANCH   1   2
ATOM      2  C   UNL     1       8.478  -3.899  24.540  0.00  0.00    -0.014 A 
ATOM      3  C   UNL     1       7.547  -4.512  23.637  0.00  0.00    +0.003 A 
ATOM      4  C   UNL     1       7.432  -4.571  22.232  0.00  0.00    +0.010 A 
ATOM      5  C   UNL     1       6.342  -5.230  21.654  0.00  0.00    +0.001 A 
ATOM      6  C   UNL     1       5.374  -5.833  22.451  0.00  0.00    +0.002 A 
ATOM      7  C   UNL     1       5.474  -5.808  23.845  0.00  0.00    +0.026 A 
ATOM      8  C   UNL     1       6.572  -5.145  24.407  0.00  0.00    +0.047 A 
ATOM      9  N   UNL     1       6.923  -4.975  25.725  0.00  0.00    -0.360 N 
ATOM     10  H   UNL     1       6.400  -5.346  26.506  0.00  0.00    +0.165 HD
ATOM     11  C   UNL     1       8.071  -4.234  25.819  0.00  0.00    +0.087 A 
ENDBRANCH   1   2
BRANCH   1  14
ATOM     12  N   UNL     1      10.256  -0.764  23.555  0.00  0.00    -0.305 N 
ATOM     13  H   UNL     1      11.216  -1.083  23.621  0.00  0.00    +0.149 HD
ATOM     14  C   UNL     1       9.259  -1.604  23.988  0.00  0.00    +0.218 C 
ATOM     15  O   UNL     1       8.152  -1.151  24.275  0.00  0.00    -0.275 OA
BRANCH  12  16
ATOM     16  C   UNL     1      10.023   0.664  23.386  0.00  0.00    +0.224 C 
BRANCH  16  17
ATOM     17  C   UNL     1       9.797   1.064  21.932  0.00  0.00    +0.322 C 
ATOM     18  O   UNL     1       9.167   0.380  21.137  0.00  0.00    -0.249 OA
BRANCH  17  19
ATOM     19  O   UNL     1      10.279   2.287  21.611  0.00  0.00    -0.480 OA
ATOM     20  H   UNL     1      11.017   2.248  20.958  0.00  0.00    +0.295 HD
ENDBRANCH  17  19
ENDBRANCH  16  17
ENDBRANCH  12  16
ENDBRANCH   1  14
TORSDOF 5
ENDMDL
MODEL 8
REMARK VINA RESULT:      -5.6      2.933      6.421
REMARK  Name = 
REMARK  5 active torsions:
REMARK  status: ('A' for Active; 'I' for Inactive)
REMARK    1  A    between atoms: O_1  and  C_2
REMARK    2  A    between atoms: C_2  and  C_4
REMARK    3  A    between atoms: C_4  and  N_5
REMARK    4  A    between atoms: C_6  and  C_8
REMARK    5  A    between atoms: C_8  and  C_9
REMARK                            x       y       z     vdW  Elec       q    Type
REMARK                         _______ _______ _______ _____ _____    ______ ____
ROOT
ATOM      1  C   UNL     1       7.969  -1.706  25.150  0.00  0.00    +0.133 C 
ENDROOT
BRANCH   1   2
ATOM      2  C   UNL     1       8.094  -3.093  24.607  0.00  0.00    -0.014 A 
ATOM      3  C   UNL     1       7.394  -3.643  23.482  0.00  0.00    +0.003 A 
ATOM      4  C   UNL     1       6.460  -3.130  22.558  0.00  0.00    +0.010 A 
ATOM      5  C   UNL     1       5.916  -3.973  21.582  0.00  0.00    +0.001 A 
ATOM      6  C   UNL     1       6.293  -5.311  21.512  0.00  0.00    +0.002 A 
ATOM      7  C   UNL     1       7.233  -5.840  22.401  0.00  0.00    +0.026 A 
ATOM      8  C   UNL     1       7.768  -4.982  23.370  0.00  0.00    +0.047 A 
ATOM      9  N   UNL     1       8.700  -5.226  24.350  0.00  0.00    -0.360 N 
ATOM     10  H   UNL     1       9.157  -6.116  24.493  0.00  0.00    +0.165 HD
ATOM     11  C   UNL     1       8.912  -4.096  25.095  0.00  0.00    +0.087 A 
ENDBRANCH   1   2
BRANCH   1  14
ATOM     12  N   UNL     1       9.040  -0.664  23.208  0.00  0.00    -0.305 N 
ATOM     13  H   UNL     1       8.517  -1.339  22.661  0.00  0.00    +0.149 HD
ATOM     14  C   UNL     1       9.043  -0.795  24.575  0.00  0.00    +0.218 C 
ATOM     15  O   UNL     1       9.926  -0.261  25.244  0.00  0.00    -0.275 OA
BRANCH  12  16
ATOM     16  C   UNL     1      10.048   0.133  22.521  0.00  0.00    +0.224 C 
BRANCH  16  17
ATOM     17  C   UNL     1       9.464   1.354  21.818  0.00  0.00    +0.322 C 
ATOM     18  O   UNL     1       8.281   1.462  21.529  0.00  0.00    -0.249 OA
BRANCH  17  19
ATOM     19  O   UNL     1      10.352   2.355  21.616  0.00  0.00    -0.480 OA
ATOM     20  H   UNL     1      10.796   2.648  22.448  0.00  0.00    +0.295 HD
ENDBRANCH  17  19
ENDBRANCH  16  17
ENDBRANCH  12  16
ENDBRANCH   1  14
TORSDOF 5
ENDMDL
MODEL 9
REMARK VINA RESULT:      -5.6      1.886      2.187
REMARK  Name = 
REMARK  5 active torsions:
REMARK  status: ('A' for Active; 'I' for Inactive)
REMARK    1  A    between atoms: O_1  and  C_2
REMARK    2  A    between atoms: C_2  and  C_4
REMARK    3  A    between atoms: C_4  and  N_5
REMARK    4  A    between atoms: C_6  and  C_8
REMARK    5  A    between atoms: C_8  and  C_9
REMARK                            x       y       z     vdW  Elec       q    Type
REMARK                         _______ _______ _______ _____ _____    ______ ____
ROOT
ATOM      1  C   UNL     1       6.822  -1.475  23.225  0.00  0.00    +0.133 C 
ENDROOT
BRANCH   1   2
ATOM      2  C   UNL     1       8.046  -0.807  22.686  0.00  0.00    -0.014 A 
ATOM      3  C   UNL     1       8.577   0.466  23.080  0.00  0.00    +0.003 A 
ATOM      4  C   UNL     1       8.203   1.435  24.035  0.00  0.00    +0.010 A 
ATOM      5  C   UNL     1       8.928   2.628  24.132  0.00  0.00    +0.001 A 
ATOM      6  C   UNL     1      10.018   2.864  23.299  0.00  0.00    +0.002 A 
ATOM      7  C   UNL     1      10.424   1.912  22.360  0.00  0.00    +0.026 A 
ATOM      8  C   UNL     1       9.687   0.724  22.277  0.00  0.00    +0.047 A 
ATOM      9  N   UNL     1       9.863  -0.371  21.465  0.00  0.00    -0.360 N 
ATOM     10  H   UNL     1      10.607  -0.465  20.788  0.00  0.00    +0.165 HD
ATOM     11  C   UNL     1       8.888  -1.302  21.706  0.00  0.00    +0.087 A 
ENDBRANCH   1   2
BRANCH   1  14
ATOM     12  N   UNL     1       7.710  -3.530  24.221  0.00  0.00    -0.305 N 
ATOM     13  H   UNL     1       8.300  -2.913  24.768  0.00  0.00    +0.149 HD
ATOM     14  C   UNL     1       6.969  -2.988  23.200  0.00  0.00    +0.218 C 
ATOM     15  O   UNL     1       6.543  -3.707  22.297  0.00  0.00    -0.275 OA
BRANCH  12  16
ATOM     16  C   UNL     1       7.976  -4.961  24.287  0.00  0.00    +0.224 C 
BRANCH  16  17
ATOM     17  C   UNL     1       9.096  -5.315  25.259  0.00  0.00    +0.322 C 
ATOM     18  O   UNL     1      10.267  -5.012  25.076  0.00  0.00    -0.249 OA
BRANCH  17  19
ATOM     19  O   UNL     1       8.675  -5.920  26.394  0.00  0.00    -0.480 OA
ATOM     20  H   UNL     1       8.907  -5.411  27.208  0.00  0.00    +0.295 HD
ENDBRANCH  17  19
ENDBRANCH  16  17
ENDBRANCH  12  16
ENDBRANCH   1  14
TORSDOF 5
ENDMDL
