MODEL 1
REMARK VINA RESULT:      -7.2      0.000      0.000
REMARK  Name = 
REMARK  7 active torsions:
REMARK  status: ('A' for Active; 'I' for Inactive)
REMARK    1  A    between atoms: C_1  and  N_2
REMARK    2  A    between atoms: C_6  and  S_7
REMARK    3  A    between atoms: S_7  and  C_8
REMARK    4  A    between atoms: C_10  and  C_11
REMARK    5  A    between atoms: C_16  and  C_17
REMARK    6  A    between atoms: C_20  and  S_21
REMARK    7  A    between atoms: S_21  and  C_22
REMARK                            x       y       z     vdW  Elec       q    Type
REMARK                         _______ _______ _______ _____ _____    ______ ____
ROOT
ATOM      1  C   UNL     1       7.779  -3.958  25.872  0.00  0.00    +0.105 A 
ATOM      2  C   UNL     1       9.082  -4.280  25.527  0.00  0.00    +0.036 A 
ATOM      3  C   UNL     1       9.707  -3.602  24.482  0.00  0.00    +0.020 A 
ATOM      4  C   UNL     1       9.078  -2.532  23.838  0.00  0.00    +0.043 A 
ATOM      5  C   UNL     1       7.819  -2.166  24.329  0.00  0.00    +0.141 A 
ATOM      6  N   UNL     1       7.151  -2.883  25.310  0.00  0.00    -0.234 NA
ENDROOT
BRANCH   5   7
ATOM      7  C   UNL     1       7.091  -0.911  23.862  0.00  0.00    +0.269 C 
ATOM      8  N   UNL     1       7.301   0.170  24.695  0.00  0.00    -0.259 N 
ATOM      9  H   UNL     1       7.931   0.041  25.477  0.00  0.00    +0.157 HD
ATOM     10  C   UNL     1       6.785   1.418  24.493  0.00  0.00    +0.165 A 
ATOM     11  S   UNL     1       7.385   2.565  25.607  0.00  0.00    -0.060 S 
ATOM     12  C   UNL     1       6.430   3.773  24.860  0.00  0.00    +0.071 A 
ATOM     13  C   UNL     1       5.688   3.223  23.830  0.00  0.00    +0.047 A 
ATOM     14  C   UNL     1       4.695   3.952  22.995  0.00  0.00    +0.066 C 
ATOM     15  N   UNL     1       5.918   1.865  23.617  0.00  0.00    -0.230 NA
ATOM     16  O   UNL     1       6.446  -0.890  22.825  0.00  0.00    -0.268 OA
ENDBRANCH   5   7
BRANCH   1  17
ATOM     17  S   UNL     1       6.854  -4.844  27.135  0.00  0.00    -0.030 S 
BRANCH  17  20
ATOM     18  C   UNL     1       4.422  -6.735  28.252  0.00  0.00    +0.152 C 
ATOM     19  N   UNL     1       4.738  -6.581  26.857  0.00  0.00    -0.311 N 
ATOM     20  C   UNL     1       5.695  -5.799  26.258  0.00  0.00    +0.197 A 
ATOM     21  N   UNL     1       5.568  -5.915  24.954  0.00  0.00    -0.122 NA
ATOM     22  N   UNL     1       4.574  -6.827  24.690  0.00  0.00    -0.137 NA
ATOM     23  C   UNL     1       4.080  -7.215  25.842  0.00  0.00    +0.225 A 
ENDBRANCH  17  20
ENDBRANCH   1  17
BRANCH   4  24
ATOM     24  S   UNL     1       9.896  -1.902  22.381  0.00  0.00    -0.087 S 
BRANCH  24  25
ATOM     25  C   UNL     1      10.118  -0.179  22.771  0.00  0.00    +0.013 A 
ATOM     26  C   UNL     1      10.683   0.163  24.006  0.00  0.00    +0.018 A 
ATOM     27  C   UNL     1      10.904   1.500  24.337  0.00  0.00    +0.039 A 
ATOM     28  C   UNL     1      10.549   2.494  23.435  0.00  0.00    +0.123 A 
ATOM     29  F   UNL     1      10.788   3.777  23.735  0.00  0.00    -0.205 F 
ATOM     30  C   UNL     1       9.947   2.178  22.223  0.00  0.00    +0.039 A 
ATOM     31  C   UNL     1       9.720   0.839  21.895  0.00  0.00    +0.018 A 
ENDBRANCH  24  25
ENDBRANCH   4  24
TORSDOF 5
ENDMDL
MODEL 2
REMARK VINA RESULT:      -7.2      3.390      8.196
REMARK  Name = 
REMARK  7 active torsions:
REMARK  status: ('A' for Active; 'I' for Inactive)
REMARK    1  A    between atoms: C_1  and  N_2
REMARK    2  A    between atoms: C_6  and  S_7
REMARK    3  A    between atoms: S_7  and  C_8
REMARK    4  A    between atoms: C_10  and  C_11
REMARK    5  A    between atoms: C_16  and  C_17
REMARK    6  A    between atoms: C_20  and  S_21
REMARK    7  A    between atoms: S_21  and  C_22
REMARK                            x       y       z     vdW  Elec       q    Type
REMARK                         _______ _______ _______ _____ _____    ______ ____
ROOT
ATOM      1  C   UNL     1       9.518  -1.245  23.711  0.00  0.00    +0.105 A 
ATOM      2  C   UNL     1       8.916  -1.278  22.463  0.00  0.00    +0.036 A 
ATOM      3  C   UNL     1       8.181  -2.399  22.081  0.00  0.00    +0.020 A 
ATOM      4  C   UNL     1       7.956  -3.453  22.973  0.00  0.00    +0.043 A 
ATOM      5  C   UNL     1       8.473  -3.293  24.264  0.00  0.00    +0.141 A 
ATOM      6  N   UNL     1       9.275  -2.224  24.632  0.00  0.00    -0.234 NA
ENDROOT
BRANCH   5   7
ATOM      7  C   UNL     1       8.154  -4.260  25.399  0.00  0.00    +0.269 C 
ATOM      8  N   UNL     1       7.068  -3.862  26.152  0.00  0.00    -0.259 N 
ATOM      9  H   UNL     1       6.579  -3.024  25.858  0.00  0.00    +0.157 HD
ATOM     10  C   UNL     1       6.559  -4.558  27.210  0.00  0.00    +0.165 A 
ATOM     11  S   UNL     1       5.107  -3.882  27.803  0.00  0.00    -0.060 S 
ATOM     12  C   UNL     1       5.031  -5.115  28.988  0.00  0.00    +0.071 A 
ATOM     13  C   UNL     1       6.133  -5.946  28.881  0.00  0.00    +0.047 A 
ATOM     14  C   UNL     1       6.443  -7.089  29.781  0.00  0.00    +0.066 C 
ATOM     15  N   UNL     1       6.997  -5.623  27.836  0.00  0.00    -0.230 NA
ATOM     16  O   UNL     1       8.783  -5.296  25.557  0.00  0.00    -0.268 OA
ENDBRANCH   5   7
BRANCH   1  17
ATOM     17  S   UNL     1      10.568   0.111  24.254  0.00  0.00    -0.030 S 
BRANCH  17  20
ATOM     18  C   UNL     1      10.898   3.246  23.360  0.00  0.00    +0.152 C 
ATOM     19  N   UNL     1       9.765   2.737  24.086  0.00  0.00    -0.311 N 
ATOM     20  C   UNL     1       9.486   1.453  24.485  0.00  0.00    +0.197 A 
ATOM     21  N   UNL     1       8.299   1.443  25.052  0.00  0.00    -0.122 NA
ATOM     22  N   UNL     1       7.823   2.732  25.091  0.00  0.00    -0.137 NA
ATOM     23  C   UNL     1       8.710   3.499  24.502  0.00  0.00    +0.225 A 
ENDBRANCH  17  20
ENDBRANCH   1  17
BRANCH   4  24
ATOM     24  S   UNL     1       7.193  -4.913  22.285  0.00  0.00    -0.087 S 
BRANCH  24  25
ATOM     25  C   UNL     1       5.694  -5.055  23.235  0.00  0.00    +0.013 A 
ATOM     26  C   UNL     1       5.399  -6.280  23.847  0.00  0.00    +0.018 A 
ATOM     27  C   UNL     1       4.251  -6.423  24.627  0.00  0.00    +0.039 A 
ATOM     28  C   UNL     1       3.393  -5.342  24.783  0.00  0.00    +0.123 A 
ATOM     29  F   UNL     1       2.307  -5.466  25.556  0.00  0.00    -0.205 F 
ATOM     30  C   UNL     1       3.644  -4.133  24.148  0.00  0.00    +0.039 A 
ATOM     31  C   UNL     1       4.791  -3.992  23.363  0.00  0.00    +0.018 A 
ENDBRANCH  24  25
ENDBRANCH   4  24
TORSDOF 5
ENDMDL
MODEL 3
REMARK VINA RESULT:      -7.0      2.583      3.071
REMARK  Name = 
REMARK  7 active torsions:
REMARK  status: ('A' for Active; 'I' for Inactive)
REMARK    1  A    between atoms: C_1  and  N_2
REMARK    2  A    between atoms: C_6  and  S_7
REMARK    3  A    between atoms: S_7  and  C_8
REMARK    4  A    between atoms: C_10  and  C_11
REMARK    5  A    between atoms: C_16  and  C_17
REMARK    6  A    between atoms: C_20  and  S_21
REMARK    7  A    between atoms: S_21  and  C_22
REMARK                            x       y       z     vdW  Elec       q    Type
REMARK                         _______ _______ _______ _____ _____    ______ ____
ROOT
ATOM      1  C   UNL     1       7.849  -3.309  24.497  0.00  0.00    +0.105 A 
ATOM      2  C   UNL     1       9.039  -3.299  23.786  0.00  0.00    +0.036 A 
ATOM      3  C   UNL     1       9.864  -2.177  23.837  0.00  0.00    +0.020 A 
ATOM      4  C   UNL     1       9.562  -1.097  24.672  0.00  0.00    +0.043 A 
ATOM      5  C   UNL     1       8.419  -1.231  25.470  0.00  0.00    +0.141 A 
ATOM      6  N   UNL     1       7.546  -2.303  25.369  0.00  0.00    -0.234 NA
ENDROOT
BRANCH   5   7
ATOM      7  C   UNL     1       8.061  -0.229  26.563  0.00  0.00    +0.269 C 
ATOM      8  N   UNL     1       7.174   0.737  26.132  0.00  0.00    -0.259 N 
ATOM      9  H   UNL     1       6.826   0.661  25.183  0.00  0.00    +0.157 HD
ATOM     10  C   UNL     1       6.673   1.737  26.914  0.00  0.00    +0.165 A 
ATOM     11  S   UNL     1       5.466   2.649  26.123  0.00  0.00    -0.060 S 
ATOM     12  C   UNL     1       5.298   3.619  27.523  0.00  0.00    +0.071 A 
ATOM     13  C   UNL     1       6.195   3.211  28.495  0.00  0.00    +0.047 A 
ATOM     14  C   UNL     1       6.385   3.858  29.822  0.00  0.00    +0.066 C 
ATOM     15  N   UNL     1       6.969   2.109  28.136  0.00  0.00    -0.230 NA
ATOM     16  O   UNL     1       8.490  -0.338  27.701  0.00  0.00    -0.268 OA
ENDBRANCH   5   7
BRANCH   1  17
ATOM     17  S   UNL     1       6.672  -4.667  24.413  0.00  0.00    -0.030 S 
BRANCH  17  20
ATOM     18  C   UNL     1       4.084  -5.436  26.271  0.00  0.00    +0.152 C 
ATOM     19  N   UNL     1       5.447  -5.559  26.711  0.00  0.00    -0.311 N 
ATOM     20  C   UNL     1       6.613  -5.311  26.028  0.00  0.00    +0.197 A 
ATOM     21  N   UNL     1       7.625  -5.638  26.803  0.00  0.00    -0.122 NA
ATOM     22  N   UNL     1       7.132  -6.035  28.023  0.00  0.00    -0.137 NA
ATOM     23  C   UNL     1       5.822  -5.989  27.952  0.00  0.00    +0.225 A 
ENDBRANCH  17  20
ENDBRANCH   1  17
BRANCH   4  24
ATOM     24  S   UNL     1      10.579   0.357  24.474  0.00  0.00    -0.087 S 
BRANCH  24  25
ATOM     25  C   UNL     1       9.489   1.485  23.631  0.00  0.00    +0.013 A 
ATOM     26  C   UNL     1       9.276   2.754  24.184  0.00  0.00    +0.018 A 
ATOM     27  C   UNL     1       8.455   3.679  23.538  0.00  0.00    +0.039 A 
ATOM     28  C   UNL     1       7.839   3.328  22.344  0.00  0.00    +0.123 A 
ATOM     29  F   UNL     1       7.076   4.223  21.705  0.00  0.00    -0.205 F 
ATOM     30  C   UNL     1       8.002   2.059  21.802  0.00  0.00    +0.039 A 
ATOM     31  C   UNL     1       8.819   1.132  22.453  0.00  0.00    +0.018 A 
ENDBRANCH  24  25
ENDBRANCH   4  24
TORSDOF 5
ENDMDL
MODEL 4
REMARK VINA RESULT:      -7.0      2.159      2.506
REMARK  Name = 
REMARK  7 active torsions:
REMARK  status: ('A' for Active; 'I' for Inactive)
REMARK    1  A    between atoms: C_1  and  N_2
REMARK    2  A    between atoms: C_6  and  S_7
REMARK    3  A    between atoms: S_7  and  C_8
REMARK    4  A    between atoms: C_10  and  C_11
REMARK    5  A    between atoms: C_16  and  C_17
REMARK    6  A    between atoms: C_20  and  S_21
REMARK    7  A    between atoms: S_21  and  C_22
REMARK                            x       y       z     vdW  Elec       q    Type
REMARK                         _______ _______ _______ _____ _____    ______ ____
ROOT
ATOM      1  C   UNL     1       6.454  -4.383  23.905  0.00  0.00    +0.105 A 
ATOM      2  C   UNL     1       7.568  -4.701  24.667  0.00  0.00    +0.036 A 
ATOM      3  C   UNL     1       8.206  -3.706  25.405  0.00  0.00    +0.020 A 
ATOM      4  C   UNL     1       7.685  -2.409  25.470  0.00  0.00    +0.043 A 
ATOM      5  C   UNL     1       6.480  -2.191  24.792  0.00  0.00    +0.141 A 
ATOM      6  N   UNL     1       5.879  -3.147  23.988  0.00  0.00    -0.234 NA
ENDROOT
BRANCH   5   7
ATOM      7  C   UNL     1       5.691  -0.893  24.921  0.00  0.00    +0.269 C 
ATOM      8  N   UNL     1       6.139   0.092  24.062  0.00  0.00    -0.259 N 
ATOM      9  H   UNL     1       6.886  -0.151  23.423  0.00  0.00    +0.157 HD
ATOM     10  C   UNL     1       5.593   1.339  23.958  0.00  0.00    +0.165 A 
ATOM     11  S   UNL     1       6.266   2.245  22.677  0.00  0.00    -0.060 S 
ATOM     12  C   UNL     1       5.239   3.553  23.078  0.00  0.00    +0.071 A 
ATOM     13  C   UNL     1       4.470   3.233  24.184  0.00  0.00    +0.047 A 
ATOM     14  C   UNL     1       3.509   4.144  24.861  0.00  0.00    +0.066 C 
ATOM     15  N   UNL     1       4.672   1.942  24.670  0.00  0.00    -0.230 NA
ATOM     16  O   UNL     1       4.735  -0.792  25.675  0.00  0.00    -0.268 OA
ENDBRANCH   5   7
BRANCH   1  17
ATOM     17  S   UNL     1       5.625  -5.574  22.842  0.00  0.00    -0.030 S 
BRANCH  17  20
ATOM     18  C   UNL     1       4.512  -6.934  25.608  0.00  0.00    +0.152 C 
ATOM     19  N   UNL     1       3.665  -6.308  24.629  0.00  0.00    -0.311 N 
ATOM     20  C   UNL     1       4.002  -5.673  23.458  0.00  0.00    +0.197 A 
ATOM     21  N   UNL     1       2.904  -5.183  22.923  0.00  0.00    -0.122 NA
ATOM     22  N   UNL     1       1.834  -5.554  23.701  0.00  0.00    -0.137 NA
ATOM     23  C   UNL     1       2.305  -6.225  24.726  0.00  0.00    +0.225 A 
ENDBRANCH  17  20
ENDBRANCH   1  17
BRANCH   4  24
ATOM     24  S   UNL     1       8.717  -1.187  26.264  0.00  0.00    -0.087 S 
BRANCH  24  25
ATOM     25  C   UNL     1       9.288  -0.207  24.892  0.00  0.00    +0.013 A 
ATOM     26  C   UNL     1       9.664  -0.858  23.711  0.00  0.00    +0.018 A 
ATOM     27  C   UNL     1      10.087  -0.124  22.602  0.00  0.00    +0.039 A 
ATOM     28  C   UNL     1      10.143   1.261  22.681  0.00  0.00    +0.123 A 
ATOM     29  F   UNL     1      10.517   1.971  21.610  0.00  0.00    -0.205 F 
ATOM     30  C   UNL     1       9.816   1.923  23.858  0.00  0.00    +0.039 A 
ATOM     31  C   UNL     1       9.399   1.187  24.970  0.00  0.00    +0.018 A 
ENDBRANCH  24  25
ENDBRANCH   4  24
TORSDOF 5
ENDMDL
MODEL 5
REMARK VINA RESULT:      -6.9      3.761      8.209
REMARK  Name = 
REMARK  7 active torsions:
REMARK  status: ('A' for Active; 'I' for Inactive)
REMARK    1  A    between atoms: C_1  and  N_2
REMARK    2  A    between atoms: C_6  and  S_7
REMARK    3  A    between atoms: S_7  and  C_8
REMARK    4  A    between atoms: C_10  and  C_11
REMARK    5  A    between atoms: C_16  and  C_17
REMARK    6  A    between atoms: C_20  and  S_21
REMARK    7  A    between atoms: S_21  and  C_22
REMARK                            x       y       z     vdW  Elec       q    Type
REMARK                         _______ _______ _______ _____ _____    ______ ____
ROOT
ATOM      1  C   UNL     1       8.855   1.860  23.634  0.00  0.00    +0.105 A 
ATOM      2  C   UNL     1       9.493   1.206  22.592  0.00  0.00    +0.036 A 
ATOM      3  C   UNL     1       9.699  -0.170  22.663  0.00  0.00    +0.020 A 
ATOM      4  C   UNL     1       9.184  -0.922  23.724  0.00  0.00    +0.043 A 
ATOM      5  C   UNL     1       8.428  -0.222  24.671  0.00  0.00    +0.141 A 
ATOM      6  N   UNL     1       8.286   1.157  24.658  0.00  0.00    -0.234 NA
ENDROOT
BRANCH   5   7
ATOM      7  C   UNL     1       7.647  -0.923  25.777  0.00  0.00    +0.269 C 
ATOM      8  N   UNL     1       6.467  -1.482  25.327  0.00  0.00    -0.259 N 
ATOM      9  H   UNL     1       6.268  -1.414  24.337  0.00  0.00    +0.157 HD
ATOM     10  C   UNL     1       5.595  -2.185  26.106  0.00  0.00    +0.165 A 
ATOM     11  S   UNL     1       4.330  -2.891  25.202  0.00  0.00    -0.060 S 
ATOM     12  C   UNL     1       3.682  -3.548  26.643  0.00  0.00    +0.071 A 
ATOM     13  C   UNL     1       4.448  -3.162  27.728  0.00  0.00    +0.047 A 
ATOM     14  C   UNL     1       4.158  -3.488  29.151  0.00  0.00    +0.066 C 
ATOM     15  N   UNL     1       5.562  -2.391  27.400  0.00  0.00    -0.230 NA
ATOM     16  O   UNL     1       8.081  -1.009  26.916  0.00  0.00    -0.268 OA
ENDBRANCH   5   7
BRANCH   1  17
ATOM     17  S   UNL     1       8.635   3.645  23.680  0.00  0.00    -0.030 S 
BRANCH  17  20
ATOM     18  C   UNL     1       9.680   6.691  24.290  0.00  0.00    +0.152 C 
ATOM     19  N   UNL     1      10.545   5.616  23.886  0.00  0.00    -0.311 N 
ATOM     20  C   UNL     1      10.247   4.298  23.639  0.00  0.00    +0.197 A 
ATOM     21  N   UNL     1      11.368   3.662  23.373  0.00  0.00    -0.122 NA
ATOM     22  N   UNL     1      12.398   4.571  23.375  0.00  0.00    -0.137 NA
ATOM     23  C   UNL     1      11.891   5.740  23.691  0.00  0.00    +0.225 A 
ENDBRANCH  17  20
ENDBRANCH   1  17
BRANCH   4  24
ATOM     24  S   UNL     1       9.708  -2.628  23.804  0.00  0.00    -0.087 S 
BRANCH  24  25
ATOM     25  C   UNL     1       8.252  -3.509  23.280  0.00  0.00    +0.013 A 
ATOM     26  C   UNL     1       7.937  -4.720  23.909  0.00  0.00    +0.018 A 
ATOM     27  C   UNL     1       6.787  -5.426  23.550  0.00  0.00    +0.039 A 
ATOM     28  C   UNL     1       5.960  -4.922  22.555  0.00  0.00    +0.123 A 
ATOM     29  F   UNL     1       4.840  -5.579  22.230  0.00  0.00    -0.205 F 
ATOM     30  C   UNL     1       6.279  -3.745  21.889  0.00  0.00    +0.039 A 
ATOM     31  C   UNL     1       7.433  -3.043  22.244  0.00  0.00    +0.018 A 
ENDBRANCH  24  25
ENDBRANCH   4  24
TORSDOF 5
ENDMDL
MODEL 6
REMARK VINA RESULT:      -6.9      3.305      7.769
REMARK  Name = 
REMARK  7 active torsions:
REMARK  status: ('A' for Active; 'I' for Inactive)
REMARK    1  A    between atoms: C_1  and  N_2
REMARK    2  A    between atoms: C_6  and  S_7
REMARK    3  A    between atoms: S_7  and  C_8
REMARK    4  A    between atoms: C_10  and  C_11
REMARK    5  A    between atoms: C_16  and  C_17
REMARK    6  A    between atoms: C_20  and  S_21
REMARK    7  A    between atoms: S_21  and  C_22
REMARK                            x       y       z     vdW  Elec       q    Type
REMARK                         _______ _______ _______ _____ _____    ______ ____
ROOT
ATOM      1  C   UNL     1       8.974  -1.733  22.513  0.00  0.00    +0.105 A 
ATOM      2  C   UNL     1       9.995  -2.124  23.366  0.00  0.00    +0.036 A 
ATOM      3  C   UNL     1       9.818  -3.232  24.192  0.00  0.00    +0.020 A 
ATOM      4  C   UNL     1       8.664  -4.018  24.107  0.00  0.00    +0.043 A 
ATOM      5  C   UNL     1       7.735  -3.651  23.126  0.00  0.00    +0.141 A 
ATOM      6  N   UNL     1       7.859  -2.505  22.356  0.00  0.00    -0.234 NA
ENDROOT
BRANCH   5   7
ATOM      7  C   UNL     1       6.524  -4.511  22.782  0.00  0.00    +0.269 C 
ATOM      8  N   UNL     1       5.429  -4.235  23.577  0.00  0.00    -0.259 N 
ATOM      9  H   UNL     1       5.520  -3.484  24.252  0.00  0.00    +0.157 HD
ATOM     10  C   UNL     1       4.213  -4.843  23.463  0.00  0.00    +0.165 A 
ATOM     11  S   UNL     1       3.030  -4.142  24.476  0.00  0.00    -0.060 S 
ATOM     12  C   UNL     1       1.879  -5.266  23.890  0.00  0.00    +0.071 A 
ATOM     13  C   UNL     1       2.474  -6.128  22.986  0.00  0.00    +0.047 A 
ATOM     14  C   UNL     1       1.804  -7.276  22.317  0.00  0.00    +0.066 C 
ATOM     15  N   UNL     1       3.818  -5.859  22.734  0.00  0.00    -0.230 NA
ATOM     16  O   UNL     1       6.543  -5.309  21.858  0.00  0.00    -0.268 OA
ENDBRANCH   5   7
BRANCH   1  17
ATOM     17  S   UNL     1       9.070  -0.260  21.485  0.00  0.00    -0.030 S 
BRANCH  17  20
ATOM     18  C   UNL     1       7.074   1.258  23.596  0.00  0.00    +0.152 C 
ATOM     19  N   UNL     1       8.455   1.613  23.406  0.00  0.00    -0.311 N 
ATOM     20  C   UNL     1       9.402   1.040  22.592  0.00  0.00    +0.197 A 
ATOM     21  N   UNL     1      10.551   1.645  22.804  0.00  0.00    -0.122 NA
ATOM     22  N   UNL     1      10.350   2.663  23.705  0.00  0.00    -0.137 NA
ATOM     23  C   UNL     1       9.088   2.629  24.063  0.00  0.00    +0.225 A 
ENDBRANCH  17  20
ENDBRANCH   1  17
BRANCH   4  24
ATOM     24  S   UNL     1       8.471  -5.267  25.368  0.00  0.00    -0.087 S 
BRANCH  24  25
ATOM     25  C   UNL     1       7.095  -4.654  26.318  0.00  0.00    +0.013 A 
ATOM     26  C   UNL     1       6.157  -5.569  26.810  0.00  0.00    +0.018 A 
ATOM     27  C   UNL     1       5.082  -5.133  27.586  0.00  0.00    +0.039 A 
ATOM     28  C   UNL     1       4.943  -3.778  27.859  0.00  0.00    +0.123 A 
ATOM     29  F   UNL     1       3.931  -3.359  28.629  0.00  0.00    -0.205 F 
ATOM     30  C   UNL     1       5.838  -2.850  27.343  0.00  0.00    +0.039 A 
ATOM     31  C   UNL     1       6.910  -3.287  26.561  0.00  0.00    +0.018 A 
ENDBRANCH  24  25
ENDBRANCH   4  24
TORSDOF 5
ENDMDL
MODEL 7
REMARK VINA RESULT:      -6.8      3.575      7.427
REMARK  Name = 
REMARK  7 active torsions:
REMARK  status: ('A' for Active; 'I' for Inactive)
REMARK    1  A    between atoms: C_1  and  N_2
REMARK    2  A    between atoms: C_6  and  S_7
REMARK    3  A    between atoms: S_7  and  C_8
REMARK    4  A    between atoms: C_10  and  C_11
REMARK    5  A    between atoms: C_16  and  C_17
REMARK    6  A    between atoms: C_20  and  S_21
REMARK    7  A    between atoms: S_21  and  C_22
REMARK                            x       y       z     vdW  Elec       q    Type
REMARK                         _______ _______ _______ _____ _____    ______ ____
ROOT
ATOM      1  C   UNL     1       9.751   0.119  22.956  0.00  0.00    +0.105 A 
ATOM      2  C   UNL     1      10.203  -1.045  22.355  0.00  0.00    +0.036 A 
ATOM      3  C   UNL     1      10.026  -2.268  22.999  0.00  0.00    +0.020 A 
ATOM      4  C   UNL     1       9.311  -2.355  24.198  0.00  0.00    +0.043 A 
ATOM      5  C   UNL     1       8.759  -1.162  24.678  0.00  0.00    +0.141 A 
ATOM      6  N   UNL     1       8.997   0.072  24.094  0.00  0.00    -0.234 NA
ENDROOT
BRANCH   5   7
ATOM      7  C   UNL     1       7.801  -1.122  25.863  0.00  0.00    +0.269 C 
ATOM      8  N   UNL     1       6.538  -1.581  25.546  0.00  0.00    -0.259 N 
ATOM      9  H   UNL     1       6.391  -1.930  24.606  0.00  0.00    +0.157 HD
ATOM     10  C   UNL     1       5.500  -1.672  26.427  0.00  0.00    +0.165 A 
ATOM     11  S   UNL     1       4.134  -2.448  25.756  0.00  0.00    -0.060 S 
ATOM     12  C   UNL     1       3.304  -2.244  27.239  0.00  0.00    +0.071 A 
ATOM     13  C   UNL     1       4.105  -1.568  28.143  0.00  0.00    +0.047 A 
ATOM     14  C   UNL     1       3.700  -1.153  29.514  0.00  0.00    +0.066 C 
ATOM     15  N   UNL     1       5.378  -1.262  27.666  0.00  0.00    -0.230 NA
ATOM     16  O   UNL     1       8.165  -0.768  26.974  0.00  0.00    -0.268 OA
ENDBRANCH   5   7
BRANCH   1  17
ATOM     17  S   UNL     1      10.023   1.752  22.252  0.00  0.00    -0.030 S 
BRANCH  17  20
ATOM     18  C   UNL     1       9.120   4.443  23.890  0.00  0.00    +0.152 C 
ATOM     19  N   UNL     1       8.221   3.655  23.091  0.00  0.00    -0.311 N 
ATOM     20  C   UNL     1       8.474   2.539  22.331  0.00  0.00    +0.197 A 
ATOM     21  N   UNL     1       7.365   2.201  21.709  0.00  0.00    -0.122 NA
ATOM     22  N   UNL     1       6.362   3.049  22.112  0.00  0.00    -0.137 NA
ATOM     23  C   UNL     1       6.890   3.922  22.937  0.00  0.00    +0.225 A 
ENDBRANCH  17  20
ENDBRANCH   1  17
BRANCH   4  24
ATOM     24  S   UNL     1       9.350  -3.939  25.022  0.00  0.00    -0.087 S 
BRANCH  24  25
ATOM     25  C   UNL     1       7.865  -4.724  24.432  0.00  0.00    +0.013 A 
ATOM     26  C   UNL     1       6.921  -5.165  25.368  0.00  0.00    +0.018 A 
ATOM     27  C   UNL     1       5.729  -5.756  24.946  0.00  0.00    +0.039 A 
ATOM     28  C   UNL     1       5.490  -5.915  23.587  0.00  0.00    +0.123 A 
ATOM     29  F   UNL     1       4.335  -6.453  23.177  0.00  0.00    -0.205 F 
ATOM     30  C   UNL     1       6.434  -5.525  22.645  0.00  0.00    +0.039 A 
ATOM     31  C   UNL     1       7.629  -4.939  23.069  0.00  0.00    +0.018 A 
ENDBRANCH  24  25
ENDBRANCH   4  24
TORSDOF 5
ENDMDL
MODEL 8
REMARK VINA RESULT:      -6.8      2.132      2.575
REMARK  Name = 
REMARK  7 active torsions:
REMARK  status: ('A' for Active; 'I' for Inactive)
REMARK    1  A    between atoms: C_1  and  N_2
REMARK    2  A    between atoms: C_6  and  S_7
REMARK    3  A    between atoms: S_7  and  C_8
REMARK    4  A    between atoms: C_10  and  C_11
REMARK    5  A    between atoms: C_16  and  C_17
REMARK    6  A    between atoms: C_20  and  S_21
REMARK    7  A    between atoms: S_21  and  C_22
REMARK                            x       y       z     vdW  Elec       q    Type
REMARK                         _______ _______ _______ _____ _____    ______ ____
ROOT
ATOM      1  C   UNL     1       5.474  -4.473  23.630  0.00  0.00    +0.105 A 
ATOM      2  C   UNL     1       6.544  -5.345  23.502  0.00  0.00    +0.036 A 
ATOM      3  C   UNL     1       7.832  -4.906  23.805  0.00  0.00    +0.020 A 
ATOM      4  C   UNL     1       8.054  -3.629  24.330  0.00  0.00    +0.043 A 
ATOM      5  C   UNL     1       6.915  -2.850  24.567  0.00  0.00    +0.141 A 
ATOM      6  N   UNL     1       5.639  -3.241  24.194  0.00  0.00    -0.234 NA
ENDROOT
BRANCH   5   7
ATOM      7  C   UNL     1       6.974  -1.518  25.306  0.00  0.00    +0.269 C 
ATOM      8  N   UNL     1       6.695  -0.440  24.488  0.00  0.00    -0.259 N 
ATOM      9  H   UNL     1       6.443  -0.637  23.527  0.00  0.00    +0.157 HD
ATOM     10  C   UNL     1       6.657   0.860  24.902  0.00  0.00    +0.165 A 
ATOM     11  S   UNL     1       6.106   1.922  23.683  0.00  0.00    -0.060 S 
ATOM     12  C   UNL     1       6.287   3.237  24.763  0.00  0.00    +0.071 A 
ATOM     13  C   UNL     1       6.788   2.792  25.974  0.00  0.00    +0.047 A 
ATOM     14  C   UNL     1       7.137   3.656  27.135  0.00  0.00    +0.066 C 
ATOM     15  N   UNL     1       6.978   1.413  26.047  0.00  0.00    -0.230 NA
ATOM     16  O   UNL     1       7.192  -1.457  26.506  0.00  0.00    -0.268 OA
ENDBRANCH   5   7
BRANCH   1  17
ATOM     17  S   UNL     1       3.793  -4.916  23.167  0.00  0.00    -0.030 S 
BRANCH  17  20
ATOM     18  C   UNL     1       2.802  -4.845  26.290  0.00  0.00    +0.152 C 
ATOM     19  N   UNL     1       2.994  -6.057  25.540  0.00  0.00    -0.311 N 
ATOM     20  C   UNL     1       3.365  -6.226  24.228  0.00  0.00    +0.197 A 
ATOM     21  N   UNL     1       3.336  -7.511  23.951  0.00  0.00    -0.122 NA
ATOM     22  N   UNL     1       3.016  -8.199  25.097  0.00  0.00    -0.137 NA
ATOM     23  C   UNL     1       2.807  -7.313  26.043  0.00  0.00    +0.225 A 
ENDBRANCH  17  20
ENDBRANCH   1  17
BRANCH   4  24
ATOM     24  S   UNL     1       9.760  -3.120  24.462  0.00  0.00    -0.087 S 
BRANCH  24  25
ATOM     25  C   UNL     1       9.790  -1.604  23.528  0.00  0.00    +0.013 A 
ATOM     26  C   UNL     1      10.210  -0.431  24.165  0.00  0.00    +0.018 A 
ATOM     27  C   UNL     1      10.279   0.772  23.461  0.00  0.00    +0.039 A 
ATOM     28  C   UNL     1       9.916   0.799  22.120  0.00  0.00    +0.123 A 
ATOM     29  F   UNL     1      10.010   1.943  21.432  0.00  0.00    -0.205 F 
ATOM     30  C   UNL     1       9.454  -0.346  21.482  0.00  0.00    +0.039 A 
ATOM     31  C   UNL     1       9.380  -1.547  22.190  0.00  0.00    +0.018 A 
ENDBRANCH  24  25
ENDBRANCH   4  24
TORSDOF 5
ENDMDL
MODEL 9
REMARK VINA RESULT:      -6.7      2.892      4.951
REMARK  Name = 
REMARK  7 active torsions:
REMARK  status: ('A' for Active; 'I' for Inactive)
REMARK    1  A    between atoms: C_1  and  N_2
REMARK    2  A    between atoms: C_6  and  S_7
REMARK    3  A    between atoms: S_7  and  C_8
REMARK    4  A    between atoms: C_10  and  C_11
REMARK    5  A    between atoms: C_16  and  C_17
REMARK    6  A    between atoms: C_20  and  S_21
REMARK    7  A    between atoms: S_21  and  C_22
REMARK                            x       y       z     vdW  Elec       q    Type
REMARK                         _______ _______ _______ _____ _____    ______ ____
ROOT
ATOM      1  C   UNL     1       8.451  -2.063  24.876  0.00  0.00    +0.105 A 
ATOM      2  C   UNL     1       7.140  -1.728  25.180  0.00  0.00    +0.036 A 
ATOM      3  C   UNL     1       6.806  -0.396  25.414  0.00  0.00    +0.020 A 
ATOM      4  C   UNL     1       7.749   0.624  25.252  0.00  0.00    +0.043 A 
ATOM      5  C   UNL     1       9.017   0.231  24.807  0.00  0.00    +0.141 A 
ATOM      6  N   UNL     1       9.387  -1.096  24.651  0.00  0.00    -0.234 NA
ENDROOT
BRANCH   5   7
ATOM      7  C   UNL     1      10.091   1.235  24.404  0.00  0.00    +0.269 C 
ATOM      8  N   UNL     1       9.591   2.510  24.225  0.00  0.00    -0.259 N 
ATOM      9  H   UNL     1       8.607   2.656  24.417  0.00  0.00    +0.157 HD
ATOM     10  C   UNL     1      10.342   3.598  23.886  0.00  0.00    +0.165 A 
ATOM     11  S   UNL     1       9.446   5.052  23.923  0.00  0.00    -0.060 S 
ATOM     12  C   UNL     1      10.846   5.913  23.449  0.00  0.00    +0.071 A 
ATOM     13  C   UNL     1      11.902   5.039  23.259  0.00  0.00    +0.047 A 
ATOM     14  C   UNL     1      13.261   5.414  22.784  0.00  0.00    +0.066 C 
ATOM     15  N   UNL     1      11.600   3.706  23.535  0.00  0.00    -0.230 NA
ATOM     16  O   UNL     1      11.267   0.918  24.316  0.00  0.00    -0.268 OA
ENDBRANCH   5   7
BRANCH   1  17
ATOM     17  S   UNL     1       8.999  -3.763  24.658  0.00  0.00    -0.030 S 
BRANCH  17  20
ATOM     18  C   UNL     1       6.150  -5.326  24.239  0.00  0.00    +0.152 C 
ATOM     19  N   UNL     1       6.852  -5.269  25.492  0.00  0.00    -0.311 N 
ATOM     20  C   UNL     1       8.060  -4.688  25.793  0.00  0.00    +0.197 A 
ATOM     21  N   UNL     1       8.346  -4.954  27.049  0.00  0.00    -0.122 NA
ATOM     22  N   UNL     1       7.297  -5.650  27.599  0.00  0.00    -0.137 NA
ATOM     23  C   UNL     1       6.409  -5.838  26.652  0.00  0.00    +0.225 A 
ENDBRANCH  17  20
ENDBRANCH   1  17
BRANCH   4  24
ATOM     24  S   UNL     1       7.249   2.249  25.797  0.00  0.00    -0.087 S 
BRANCH  24  25
ATOM     25  C   UNL     1       5.942   2.659  24.658  0.00  0.00    +0.013 A 
ATOM     26  C   UNL     1       4.625   2.699  25.133  0.00  0.00    +0.018 A 
ATOM     27  C   UNL     1       3.576   3.047  24.281  0.00  0.00    +0.039 A 
ATOM     28  C   UNL     1       3.847   3.344  22.952  0.00  0.00    +0.123 A 
ATOM     29  F   UNL     1       2.848   3.709  22.139  0.00  0.00    -0.205 F 
ATOM     30  C   UNL     1       5.140   3.267  22.451  0.00  0.00    +0.039 A 
ATOM     31  C   UNL     1       6.189   2.912  23.303  0.00  0.00    +0.018 A 
ENDBRANCH  24  25
ENDBRANCH   4  24
TORSDOF 5
ENDMDL
