MODEL 1
REMARK VINA RESULT:      -7.4      0.000      0.000
REMARK  Name = 
REMARK  9 active torsions:
REMARK  status: ('A' for Active; 'I' for Inactive)
REMARK    1  A    between atoms: C_1  and  C_2
REMARK    2  A    between atoms: C_2  and  C_3
REMARK    3  A    between atoms: C_2  and  C_4
REMARK    4  A    between atoms: C_2  and  N_5
REMARK    5  A    between atoms: N_5  and  S_6
REMARK    6  A    between atoms: S_6  and  C_9
REMARK    7  A    between atoms: C_12  and  C_15
REMARK    8  A    between atoms: C_22  and  N_23
REMARK    9  A    between atoms: N_23  and  C_24
REMARK                            x       y       z     vdW  Elec       q    Type
REMARK                         _______ _______ _______ _____ _____    ______ ____
ROOT
ATOM      1  C   UNL     1       9.652   1.564  24.206  0.00  0.00    +0.001 A 
ATOM      2  C   UNL     1       8.684   2.524  24.529  0.00  0.00    +0.022 A 
ATOM      3  C   UNL     1       8.912   3.905  24.353  0.00  0.00    +0.022 A 
ATOM      4  C   UNL     1      10.166   4.279  23.828  0.00  0.00    +0.073 A 
ATOM      5  C   UNL     1      10.413   5.619  23.577  0.00  0.00    +0.028 A 
ATOM      6  C   UNL     1       9.459   6.601  23.836  0.00  0.00    +0.004 A 
ATOM      7  C   UNL     1       8.231   6.241  24.378  0.00  0.00    +0.024 A 
ATOM      8  N   UNL     1      11.127   3.387  23.538  0.00  0.00    -0.254 NA
ATOM      9  C   UNL     1       7.929   4.894  24.627  0.00  0.00    +0.042 A 
ATOM     10  C   UNL     1      10.856   2.073  23.732  0.00  0.00    +0.120 A 
ENDROOT
BRANCH   1  14
ATOM     11  C   UNL     1       9.026  -2.658  24.642  0.00  0.00    +0.105 A 
ATOM     12  C   UNL     1       8.338  -1.771  25.469  0.00  0.00    +0.029 A 
ATOM     13  C   UNL     1       8.523  -0.396  25.309  0.00  0.00    +0.010 A 
ATOM     14  C   UNL     1       9.376   0.117  24.311  0.00  0.00    -0.016 A 
ATOM     15  C   UNL     1       9.997  -0.807  23.448  0.00  0.00    +0.010 A 
ATOM     16  C   UNL     1       9.826  -2.185  23.605  0.00  0.00    +0.029 A 
BRANCH  11  17
ATOM     17  S   UNL     1       8.876  -4.403  24.940  0.00  0.00    +0.059 S 
ATOM     18  O   UNL     1      10.225  -4.903  25.068  0.00  0.00    -0.153 OA
ATOM     19  O   UNL     1       7.887  -4.604  25.975  0.00  0.00    -0.153 OA
BRANCH  17  20
ATOM     20  N   UNL     1       8.289  -4.981  23.462  0.00  0.00    -0.185 NA
ATOM     21  H   UNL     1       8.982  -4.861  22.723  0.00  0.00    +0.149 HD
BRANCH  20  23
ATOM     22  C   UNL     1       6.424  -3.464  22.781  0.00  0.00    +0.029 C 
ATOM     23  C   UNL     1       6.873  -4.903  23.021  0.00  0.00    +0.032 C 
ATOM     24  C   UNL     1       6.778  -5.664  21.681  0.00  0.00    +0.029 C 
ATOM     25  C   UNL     1       5.957  -5.618  24.021  0.00  0.00    +0.029 C 
ENDBRANCH  20  23
ENDBRANCH  17  20
ENDBRANCH  11  17
ENDBRANCH   1  14
BRANCH   9  26
ATOM     26  N   UNL     1       6.692   4.524  25.215  0.00  0.00    -0.299 N 
ATOM     27  H   UNL     1       6.395   5.188  25.926  0.00  0.00    +0.154 HD
BRANCH  26  28
ATOM     28  C   UNL     1       5.532   4.101  24.544  0.00  0.00    +0.123 A 
ATOM     29  N   UNL     1       4.487   3.719  25.305  0.00  0.00    -0.240 NA
ATOM     30  C   UNL     1       3.361   3.327  24.665  0.00  0.00    +0.113 A 
ATOM     31  C   UNL     1       3.223   3.300  23.286  0.00  0.00    +0.020 A 
ATOM     32  C   UNL     1       4.314   3.669  22.516  0.00  0.00    +0.005 A 
ATOM     33  C   UNL     1       5.488   4.057  23.151  0.00  0.00    +0.044 A 
ENDBRANCH  26  28
ENDBRANCH   9  26
TORSDOF 6
ENDMDL
MODEL 2
REMARK VINA RESULT:      -7.4      2.060      2.700
REMARK  Name = 
REMARK  9 active torsions:
REMARK  status: ('A' for Active; 'I' for Inactive)
REMARK    1  A    between atoms: C_1  and  C_2
REMARK    2  A    between atoms: C_2  and  C_3
REMARK    3  A    between atoms: C_2  and  C_4
REMARK    4  A    between atoms: C_2  and  N_5
REMARK    5  A    between atoms: N_5  and  S_6
REMARK    6  A    between atoms: S_6  and  C_9
REMARK    7  A    between atoms: C_12  and  C_15
REMARK    8  A    between atoms: C_22  and  N_23
REMARK    9  A    between atoms: N_23  and  C_24
REMARK                            x       y       z     vdW  Elec       q    Type
REMARK                         _______ _______ _______ _____ _____    ______ ____
ROOT
ATOM      1  C   UNL     1       9.498   1.358  24.315  0.00  0.00    +0.001 A 
ATOM      2  C   UNL     1       8.626   2.270  24.927  0.00  0.00    +0.022 A 
ATOM      3  C   UNL     1       8.780   3.665  24.781  0.00  0.00    +0.022 A 
ATOM      4  C   UNL     1       9.855   4.104  23.982  0.00  0.00    +0.073 A 
ATOM      5  C   UNL     1      10.009   5.463  23.757  0.00  0.00    +0.028 A 
ATOM      6  C   UNL     1       9.134   6.399  24.305  0.00  0.00    +0.004 A 
ATOM      7  C   UNL     1       8.088   5.973  25.114  0.00  0.00    +0.024 A 
ATOM      8  N   UNL     1      10.727   3.259  23.409  0.00  0.00    -0.254 NA
ATOM      9  C   UNL     1       7.881   4.606  25.350  0.00  0.00    +0.042 A 
ATOM     10  C   UNL     1      10.534   1.929  23.586  0.00  0.00    +0.120 A 
ENDROOT
BRANCH   1  14
ATOM     11  C   UNL     1       9.023  -2.887  24.717  0.00  0.00    +0.105 A 
ATOM     12  C   UNL     1       8.176  -2.029  25.420  0.00  0.00    +0.029 A 
ATOM     13  C   UNL     1       8.315  -0.648  25.268  0.00  0.00    +0.010 A 
ATOM     14  C   UNL     1       9.281  -0.100  24.400  0.00  0.00    -0.016 A 
ATOM     15  C   UNL     1      10.069  -0.998  23.653  0.00  0.00    +0.010 A 
ATOM     16  C   UNL     1       9.944  -2.381  23.804  0.00  0.00    +0.029 A 
BRANCH  11  17
ATOM     17  S   UNL     1       8.917  -4.635  25.016  0.00  0.00    +0.059 S 
ATOM     18  O   UNL     1      10.278  -5.102  25.136  0.00  0.00    -0.153 OA
ATOM     19  O   UNL     1       7.939  -4.859  26.057  0.00  0.00    -0.153 OA
BRANCH  17  20
ATOM     20  N   UNL     1       8.335  -5.227  23.541  0.00  0.00    -0.185 NA
ATOM     21  H   UNL     1       9.083  -5.278  22.850  0.00  0.00    +0.149 HD
BRANCH  20  23
ATOM     22  C   UNL     1       6.920  -3.641  22.229  0.00  0.00    +0.029 C 
ATOM     23  C   UNL     1       6.981  -4.960  22.994  0.00  0.00    +0.032 C 
ATOM     24  C   UNL     1       6.665  -6.102  22.004  0.00  0.00    +0.029 C 
ATOM     25  C   UNL     1       5.929  -5.014  24.108  0.00  0.00    +0.029 C 
ENDBRANCH  20  23
ENDBRANCH  17  20
ENDBRANCH  11  17
ENDBRANCH   1  14
BRANCH   9  26
ATOM     26  N   UNL     1       6.838   4.167  26.206  0.00  0.00    -0.299 N 
ATOM     27  H   UNL     1       6.309   3.400  25.798  0.00  0.00    +0.154 HD
BRANCH  26  28
ATOM     28  C   UNL     1       6.930   3.909  27.584  0.00  0.00    +0.123 A 
ATOM     29  N   UNL     1       7.061   4.974  28.401  0.00  0.00    -0.240 NA
ATOM     30  C   UNL     1       7.134   4.732  29.730  0.00  0.00    +0.113 A 
ATOM     31  C   UNL     1       7.077   3.467  30.294  0.00  0.00    +0.020 A 
ATOM     32  C   UNL     1       6.969   2.380  29.441  0.00  0.00    +0.005 A 
ATOM     33  C   UNL     1       6.913   2.602  28.070  0.00  0.00    +0.044 A 
ENDBRANCH  26  28
ENDBRANCH   9  26
TORSDOF 6
ENDMDL
MODEL 3
REMARK VINA RESULT:      -7.0      1.258      2.039
REMARK  Name = 
REMARK  9 active torsions:
REMARK  status: ('A' for Active; 'I' for Inactive)
REMARK    1  A    between atoms: C_1  and  C_2
REMARK    2  A    between atoms: C_2  and  C_3
REMARK    3  A    between atoms: C_2  and  C_4
REMARK    4  A    between atoms: C_2  and  N_5
REMARK    5  A    between atoms: N_5  and  S_6
REMARK    6  A    between atoms: S_6  and  C_9
REMARK    7  A    between atoms: C_12  and  C_15
REMARK    8  A    between atoms: C_22  and  N_23
REMARK    9  A    between atoms: N_23  and  C_24
REMARK                            x       y       z     vdW  Elec       q    Type
REMARK                         _______ _______ _______ _____ _____    ______ ____
ROOT
ATOM      1  C   UNL     1       8.680   1.115  24.222  0.00  0.00    +0.001 A 
ATOM      2  C   UNL     1       7.504   1.650  23.677  0.00  0.00    +0.022 A 
ATOM      3  C   UNL     1       7.394   3.013  23.329  0.00  0.00    +0.022 A 
ATOM      4  C   UNL     1       8.531   3.818  23.550  0.00  0.00    +0.073 A 
ATOM      5  C   UNL     1       8.492   5.148  23.164  0.00  0.00    +0.028 A 
ATOM      6  C   UNL     1       7.361   5.706  22.572  0.00  0.00    +0.004 A 
ATOM      7  C   UNL     1       6.230   4.924  22.375  0.00  0.00    +0.024 A 
ATOM      8  N   UNL     1       9.660   3.344  24.100  0.00  0.00    -0.254 NA
ATOM      9  C   UNL     1       6.232   3.567  22.730  0.00  0.00    +0.042 A 
ATOM     10  C   UNL     1       9.709   2.028  24.420  0.00  0.00    +0.120 A 
ENDROOT
BRANCH   1  14
ATOM     11  C   UNL     1       8.928  -3.116  24.889  0.00  0.00    +0.105 A 
ATOM     12  C   UNL     1       9.832  -2.501  24.022  0.00  0.00    +0.029 A 
ATOM     13  C   UNL     1       9.766  -1.120  23.826  0.00  0.00    +0.010 A 
ATOM     14  C   UNL     1       8.818  -0.328  24.504  0.00  0.00    -0.016 A 
ATOM     15  C   UNL     1       7.970  -0.974  25.426  0.00  0.00    +0.010 A 
ATOM     16  C   UNL     1       8.021  -2.356  25.623  0.00  0.00    +0.029 A 
BRANCH  11  17
ATOM     17  S   UNL     1       8.943  -4.887  25.031  0.00  0.00    +0.059 S 
ATOM     18  O   UNL     1      10.333  -5.270  25.104  0.00  0.00    -0.153 OA
ATOM     19  O   UNL     1       7.993  -5.268  26.051  0.00  0.00    -0.153 OA
BRANCH  17  20
ATOM     20  N   UNL     1       8.388  -5.384  23.512  0.00  0.00    -0.185 NA
ATOM     21  H   UNL     1       9.115  -5.275  22.806  0.00  0.00    +0.149 HD
BRANCH  20  23
ATOM     22  C   UNL     1       5.980  -5.226  24.159  0.00  0.00    +0.029 C 
ATOM     23  C   UNL     1       6.996  -5.219  23.020  0.00  0.00    +0.032 C 
ATOM     24  C   UNL     1       6.927  -3.842  22.325  0.00  0.00    +0.029 C 
ATOM     25  C   UNL     1       6.668  -6.282  21.966  0.00  0.00    +0.029 C 
ENDBRANCH  20  23
ENDBRANCH  17  20
ENDBRANCH  11  17
ENDBRANCH   1  14
BRANCH   9  26
ATOM     26  N   UNL     1       5.067   2.772  22.566  0.00  0.00    -0.299 N 
ATOM     27  H   UNL     1       5.232   1.800  22.817  0.00  0.00    +0.154 HD
BRANCH  26  28
ATOM     28  C   UNL     1       3.766   3.086  22.991  0.00  0.00    +0.123 A 
ATOM     29  N   UNL     1       3.487   2.908  24.298  0.00  0.00    -0.240 NA
ATOM     30  C   UNL     1       2.239   3.224  24.717  0.00  0.00    +0.113 A 
ATOM     31  C   UNL     1       1.245   3.719  23.888  0.00  0.00    +0.020 A 
ATOM     32  C   UNL     1       1.537   3.872  22.542  0.00  0.00    +0.005 A 
ATOM     33  C   UNL     1       2.806   3.535  22.085  0.00  0.00    +0.044 A 
ENDBRANCH  26  28
ENDBRANCH   9  26
TORSDOF 6
ENDMDL
MODEL 4
REMARK VINA RESULT:      -7.0      2.145      4.022
REMARK  Name = 
REMARK  9 active torsions:
REMARK  status: ('A' for Active; 'I' for Inactive)
REMARK    1  A    between atoms: C_1  and  C_2
REMARK    2  A    between atoms: C_2  and  C_3
REMARK    3  A    between atoms: C_2  and  C_4
REMARK    4  A    between atoms: C_2  and  N_5
REMARK    5  A    between atoms: N_5  and  S_6
REMARK    6  A    between atoms: S_6  and  C_9
REMARK    7  A    between atoms: C_12  and  C_15
REMARK    8  A    between atoms: C_22  and  N_23
REMARK    9  A    between atoms: N_23  and  C_24
REMARK                            x       y       z     vdW  Elec       q    Type
REMARK                         _______ _______ _______ _____ _____    ______ ____
ROOT
ATOM      1  C   UNL     1       7.512   1.248  25.943  0.00  0.00    +0.001 A 
ATOM      2  C   UNL     1       8.517   1.715  25.084  0.00  0.00    +0.022 A 
ATOM      3  C   UNL     1       8.740   3.092  24.873  0.00  0.00    +0.022 A 
ATOM      4  C   UNL     1       7.904   3.984  25.574  0.00  0.00    +0.073 A 
ATOM      5  C   UNL     1       8.126   5.347  25.449  0.00  0.00    +0.028 A 
ATOM      6  C   UNL     1       9.147   5.851  24.645  0.00  0.00    +0.004 A 
ATOM      7  C   UNL     1       9.957   4.976  23.932  0.00  0.00    +0.024 A 
ATOM      8  N   UNL     1       6.912   3.570  26.379  0.00  0.00    -0.254 NA
ATOM      9  C   UNL     1       9.783   3.589  24.046  0.00  0.00    +0.042 A 
ATOM     10  C   UNL     1       6.739   2.236  26.542  0.00  0.00    +0.120 A 
ENDROOT
BRANCH   1  14
ATOM     11  C   UNL     1       6.940  -2.959  26.561  0.00  0.00    +0.105 A 
ATOM     12  C   UNL     1       8.200  -2.481  26.201  0.00  0.00    +0.029 A 
ATOM     13  C   UNL     1       8.391  -1.109  26.026  0.00  0.00    +0.010 A 
ATOM     14  C   UNL     1       7.341  -0.192  26.227  0.00  0.00    -0.016 A 
ATOM     15  C   UNL     1       6.102  -0.705  26.660  0.00  0.00    +0.010 A 
ATOM     16  C   UNL     1       5.898  -2.076  26.830  0.00  0.00    +0.029 A 
BRANCH  11  17
ATOM     17  S   UNL     1       6.682  -4.714  26.658  0.00  0.00    +0.059 S 
ATOM     18  O   UNL     1       7.704  -5.219  27.545  0.00  0.00    -0.153 OA
ATOM     19  O   UNL     1       5.277  -4.954  26.900  0.00  0.00    -0.153 OA
BRANCH  17  20
ATOM     20  N   UNL     1       7.097  -5.235  25.102  0.00  0.00    -0.185 NA
ATOM     21  H   UNL     1       8.074  -5.027  24.898  0.00  0.00    +0.149 HD
BRANCH  20  23
ATOM     22  C   UNL     1       5.579  -3.838  23.694  0.00  0.00    +0.029 C 
ATOM     23  C   UNL     1       6.185  -5.218  23.930  0.00  0.00    +0.032 C 
ATOM     24  C   UNL     1       7.037  -5.584  22.695  0.00  0.00    +0.029 C 
ATOM     25  C   UNL     1       5.101  -6.292  24.075  0.00  0.00    +0.029 C 
ENDBRANCH  20  23
ENDBRANCH  17  20
ENDBRANCH  11  17
ENDBRANCH   1  14
BRANCH   9  26
ATOM     26  N   UNL     1      10.582   2.692  23.291  0.00  0.00    -0.299 N 
ATOM     27  H   UNL     1      11.499   2.556  23.710  0.00  0.00    +0.154 HD
BRANCH  26  28
ATOM     28  C   UNL     1      10.188   1.452  22.763  0.00  0.00    +0.123 A 
ATOM     29  N   UNL     1       9.351   1.472  21.706  0.00  0.00    -0.240 NA
ATOM     30  C   UNL     1       8.981   0.281  21.182  0.00  0.00    +0.113 A 
ATOM     31  C   UNL     1       9.412  -0.945  21.662  0.00  0.00    +0.020 A 
ATOM     32  C   UNL     1      10.251  -0.953  22.766  0.00  0.00    +0.005 A 
ATOM     33  C   UNL     1      10.629   0.258  23.333  0.00  0.00    +0.044 A 
ENDBRANCH  26  28
ENDBRANCH   9  26
TORSDOF 6
ENDMDL
MODEL 5
REMARK VINA RESULT:      -7.0      1.701      2.161
REMARK  Name = 
REMARK  9 active torsions:
REMARK  status: ('A' for Active; 'I' for Inactive)
REMARK    1  A    between atoms: C_1  and  C_2
REMARK    2  A    between atoms: C_2  and  C_3
REMARK    3  A    between atoms: C_2  and  C_4
REMARK    4  A    between atoms: C_2  and  N_5
REMARK    5  A    between atoms: N_5  and  S_6
REMARK    6  A    between atoms: S_6  and  C_9
REMARK    7  A    between atoms: C_12  and  C_15
REMARK    8  A    between atoms: C_22  and  N_23
REMARK    9  A    between atoms: N_23  and  C_24
REMARK                            x       y       z     vdW  Elec       q    Type
REMARK                         _______ _______ _______ _____ _____    ______ ____
ROOT
ATOM      1  C   UNL     1       9.262   1.290  23.918  0.00  0.00    +0.001 A 
ATOM      2  C   UNL     1       8.362   2.344  24.131  0.00  0.00    +0.022 A 
ATOM      3  C   UNL     1       8.761   3.695  24.058  0.00  0.00    +0.022 A 
ATOM      4  C   UNL     1      10.116   3.940  23.753  0.00  0.00    +0.073 A 
ATOM      5  C   UNL     1      10.541   5.251  23.607  0.00  0.00    +0.028 A 
ATOM      6  C   UNL     1       9.667   6.325  23.761  0.00  0.00    +0.004 A 
ATOM      7  C   UNL     1       8.337   6.090  24.086  0.00  0.00    +0.024 A 
ATOM      8  N   UNL     1      11.010   2.955  23.575  0.00  0.00    -0.254 NA
ATOM      9  C   UNL     1       7.858   4.779  24.221  0.00  0.00    +0.042 A 
ATOM     10  C   UNL     1      10.573   1.675  23.661  0.00  0.00    +0.120 A 
ENDROOT
BRANCH   1  14
ATOM     11  C   UNL     1       8.017  -2.809  23.679  0.00  0.00    +0.105 A 
ATOM     12  C   UNL     1       9.328  -2.507  24.051  0.00  0.00    +0.029 A 
ATOM     13  C   UNL     1       9.723  -1.172  24.154  0.00  0.00    +0.010 A 
ATOM     14  C   UNL     1       8.820  -0.119  23.910  0.00  0.00    -0.016 A 
ATOM     15  C   UNL     1       7.487  -0.462  23.607  0.00  0.00    +0.010 A 
ATOM     16  C   UNL     1       7.082  -1.794  23.494  0.00  0.00    +0.029 A 
BRANCH  11  17
ATOM     17  S   UNL     1       7.563  -4.509  23.431  0.00  0.00    +0.059 S 
ATOM     18  O   UNL     1       6.905  -4.563  22.148  0.00  0.00    -0.153 OA
ATOM     19  O   UNL     1       8.711  -5.334  23.735  0.00  0.00    -0.153 OA
BRANCH  17  20
ATOM     20  N   UNL     1       6.361  -4.743  24.598  0.00  0.00    -0.185 NA
ATOM     21  H   UNL     1       5.485  -4.306  24.311  0.00  0.00    +0.149 HD
BRANCH  20  23
ATOM     22  C   UNL     1       6.296  -3.452  26.736  0.00  0.00    +0.029 C 
ATOM     23  C   UNL     1       6.596  -4.789  26.064  0.00  0.00    +0.032 C 
ATOM     24  C   UNL     1       5.626  -5.843  26.640  0.00  0.00    +0.029 C 
ATOM     25  C   UNL     1       8.022  -5.263  26.366  0.00  0.00    +0.029 C 
ENDBRANCH  20  23
ENDBRANCH  17  20
ENDBRANCH  11  17
ENDBRANCH   1  14
BRANCH   9  26
ATOM     26  N   UNL     1       6.510   4.533  24.591  0.00  0.00    -0.299 N 
ATOM     27  H   UNL     1       6.245   5.051  25.426  0.00  0.00    +0.154 HD
BRANCH  26  28
ATOM     28  C   UNL     1       5.391   4.528  23.743  0.00  0.00    +0.123 A 
ATOM     29  N   UNL     1       4.843   5.723  23.440  0.00  0.00    -0.240 NA
ATOM     30  C   UNL     1       3.775   5.726  22.611  0.00  0.00    +0.113 A 
ATOM     31  C   UNL     1       3.220   4.583  22.057  0.00  0.00    +0.020 A 
ATOM     32  C   UNL     1       3.775   3.360  22.397  0.00  0.00    +0.005 A 
ATOM     33  C   UNL     1       4.861   3.330  23.264  0.00  0.00    +0.044 A 
ENDBRANCH  26  28
ENDBRANCH   9  26
TORSDOF 6
ENDMDL
MODEL 6
REMARK VINA RESULT:      -6.9      3.445      5.072
REMARK  Name = 
REMARK  9 active torsions:
REMARK  status: ('A' for Active; 'I' for Inactive)
REMARK    1  A    between atoms: C_1  and  C_2
REMARK    2  A    between atoms: C_2  and  C_3
REMARK    3  A    between atoms: C_2  and  C_4
REMARK    4  A    between atoms: C_2  and  N_5
REMARK    5  A    between atoms: N_5  and  S_6
REMARK    6  A    between atoms: S_6  and  C_9
REMARK    7  A    between atoms: C_12  and  C_15
REMARK    8  A    between atoms: C_22  and  N_23
REMARK    9  A    between atoms: N_23  and  C_24
REMARK                            x       y       z     vdW  Elec       q    Type
REMARK                         _______ _______ _______ _____ _____    ______ ____
ROOT
ATOM      1  C   UNL     1       7.315  -2.552  23.151  0.00  0.00    +0.001 A 
ATOM      2  C   UNL     1       6.934  -1.221  22.931  0.00  0.00    +0.022 A 
ATOM      3  C   UNL     1       7.878  -0.210  22.653  0.00  0.00    +0.022 A 
ATOM      4  C   UNL     1       9.231  -0.602  22.599  0.00  0.00    +0.073 A 
ATOM      5  C   UNL     1      10.188   0.343  22.266  0.00  0.00    +0.028 A 
ATOM      6  C   UNL     1       9.846   1.666  21.990  0.00  0.00    +0.004 A 
ATOM      7  C   UNL     1       8.517   2.063  22.066  0.00  0.00    +0.024 A 
ATOM      8  N   UNL     1       9.632  -1.861  22.837  0.00  0.00    -0.254 NA
ATOM      9  C   UNL     1       7.512   1.135  22.378  0.00  0.00    +0.042 A 
ATOM     10  C   UNL     1       8.684  -2.792  23.104  0.00  0.00    +0.120 A 
ENDROOT
BRANCH   1  14
ATOM     11  C   UNL     1       4.405  -5.600  23.958  0.00  0.00    +0.105 A 
ATOM     12  C   UNL     1       3.990  -4.367  23.454  0.00  0.00    +0.029 A 
ATOM     13  C   UNL     1       4.941  -3.386  23.167  0.00  0.00    +0.010 A 
ATOM     14  C   UNL     1       6.317  -3.622  23.356  0.00  0.00    -0.016 A 
ATOM     15  C   UNL     1       6.703  -4.902  23.798  0.00  0.00    +0.010 A 
ATOM     16  C   UNL     1       5.760  -5.889  24.096  0.00  0.00    +0.029 A 
BRANCH  11  17
ATOM     17  S   UNL     1       3.176  -6.791  24.436  0.00  0.00    +0.059 S 
ATOM     18  O   UNL     1       3.899  -7.894  25.024  0.00  0.00    -0.153 OA
ATOM     19  O   UNL     1       2.127  -6.100  25.149  0.00  0.00    -0.153 OA
BRANCH  17  20
ATOM     20  N   UNL     1       2.595  -7.339  22.944  0.00  0.00    -0.185 NA
ATOM     21  H   UNL     1       3.232  -7.085  22.190  0.00  0.00    +0.149 HD
BRANCH  20  23
ATOM     22  C   UNL     1       0.951  -8.153  21.249  0.00  0.00    +0.029 C 
ATOM     23  C   UNL     1       1.161  -7.412  22.566  0.00  0.00    +0.032 C 
ATOM     24  C   UNL     1       0.443  -8.204  23.681  0.00  0.00    +0.029 C 
ATOM     25  C   UNL     1       0.542  -6.010  22.528  0.00  0.00    +0.029 C 
ENDBRANCH  20  23
ENDBRANCH  17  20
ENDBRANCH  11  17
ENDBRANCH   1  14
BRANCH   9  26
ATOM     26  N   UNL     1       6.158   1.543  22.494  0.00  0.00    -0.299 N 
ATOM     27  H   UNL     1       5.514   0.768  22.352  0.00  0.00    +0.154 HD
BRANCH  26  28
ATOM     28  C   UNL     1       5.604   2.352  23.499  0.00  0.00    +0.123 A 
ATOM     29  N   UNL     1       5.775   1.950  24.775  0.00  0.00    -0.240 NA
ATOM     30  C   UNL     1       5.258   2.734  25.749  0.00  0.00    +0.113 A 
ATOM     31  C   UNL     1       4.575   3.916  25.513  0.00  0.00    +0.020 A 
ATOM     32  C   UNL     1       4.383   4.304  24.196  0.00  0.00    +0.005 A 
ATOM     33  C   UNL     1       4.888   3.504  23.177  0.00  0.00    +0.044 A 
ENDBRANCH  26  28
ENDBRANCH   9  26
TORSDOF 6
ENDMDL
MODEL 7
REMARK VINA RESULT:      -6.8      3.071      4.740
REMARK  Name = 
REMARK  9 active torsions:
REMARK  status: ('A' for Active; 'I' for Inactive)
REMARK    1  A    between atoms: C_1  and  C_2
REMARK    2  A    between atoms: C_2  and  C_3
REMARK    3  A    between atoms: C_2  and  C_4
REMARK    4  A    between atoms: C_2  and  N_5
REMARK    5  A    between atoms: N_5  and  S_6
REMARK    6  A    between atoms: S_6  and  C_9
REMARK    7  A    between atoms: C_12  and  C_15
REMARK    8  A    between atoms: C_22  and  N_23
REMARK    9  A    between atoms: N_23  and  C_24
REMARK                            x       y       z     vdW  Elec       q    Type
REMARK                         _______ _______ _______ _____ _____    ______ ____
ROOT
ATOM      1  C   UNL     1       8.036  -2.538  24.549  0.00  0.00    +0.001 A 
ATOM      2  C   UNL     1       7.402  -1.357  24.140  0.00  0.00    +0.022 A 
ATOM      3  C   UNL     1       8.029  -0.430  23.282  0.00  0.00    +0.022 A 
ATOM      4  C   UNL     1       9.331  -0.750  22.845  0.00  0.00    +0.073 A 
ATOM      5  C   UNL     1       9.963   0.098  21.950  0.00  0.00    +0.028 A 
ATOM      6  C   UNL     1       9.348   1.256  21.479  0.00  0.00    +0.004 A 
ATOM      7  C   UNL     1       8.075   1.589  21.926  0.00  0.00    +0.024 A 
ATOM      8  N   UNL     1       9.979  -1.856  23.244  0.00  0.00    -0.254 NA
ATOM      9  C   UNL     1       7.389   0.749  22.814  0.00  0.00    +0.042 A 
ATOM     10  C   UNL     1       9.331  -2.710  24.073  0.00  0.00    +0.120 A 
ENDROOT
BRANCH   1  14
ATOM     11  C   UNL     1       5.829  -5.382  26.884  0.00  0.00    +0.105 A 
ATOM     12  C   UNL     1       6.297  -5.743  25.621  0.00  0.00    +0.029 A 
ATOM     13  C   UNL     1       7.038  -4.825  24.873  0.00  0.00    +0.010 A 
ATOM     14  C   UNL     1       7.342  -3.545  25.377  0.00  0.00    -0.016 A 
ATOM     15  C   UNL     1       6.914  -3.242  26.685  0.00  0.00    +0.010 A 
ATOM     16  C   UNL     1       6.165  -4.150  27.438  0.00  0.00    +0.029 A 
BRANCH  11  17
ATOM     17  S   UNL     1       4.784  -6.513  27.770  0.00  0.00    +0.059 S 
ATOM     18  O   UNL     1       5.671  -7.432  28.443  0.00  0.00    -0.153 OA
ATOM     19  O   UNL     1       3.791  -5.746  28.488  0.00  0.00    -0.153 OA
BRANCH  17  20
ATOM     20  N   UNL     1       4.046  -7.387  26.523  0.00  0.00    -0.185 NA
ATOM     21  H   UNL     1       4.743  -7.771  25.886  0.00  0.00    +0.149 HD
BRANCH  20  23
ATOM     22  C   UNL     1       2.501  -7.812  24.606  0.00  0.00    +0.029 C 
ATOM     23  C   UNL     1       2.740  -7.044  25.903  0.00  0.00    +0.032 C 
ATOM     24  C   UNL     1       1.645  -7.454  26.911  0.00  0.00    +0.029 C 
ATOM     25  C   UNL     1       2.625  -5.531  25.690  0.00  0.00    +0.029 C 
ENDBRANCH  20  23
ENDBRANCH  17  20
ENDBRANCH  11  17
ENDBRANCH   1  14
BRANCH   9  26
ATOM     26  N   UNL     1       6.104   1.103  23.303  0.00  0.00    -0.299 N 
ATOM     27  H   UNL     1       5.794   0.477  24.043  0.00  0.00    +0.154 HD
BRANCH  26  28
ATOM     28  C   UNL     1       5.657   2.389  23.645  0.00  0.00    +0.123 A 
ATOM     29  N   UNL     1       6.031   2.870  24.848  0.00  0.00    -0.240 NA
ATOM     30  C   UNL     1       5.617   4.116  25.176  0.00  0.00    +0.113 A 
ATOM     31  C   UNL     1       4.843   4.918  24.352  0.00  0.00    +0.020 A 
ATOM     32  C   UNL     1       4.443   4.401  23.130  0.00  0.00    +0.005 A 
ATOM     33  C   UNL     1       4.840   3.116  22.780  0.00  0.00    +0.044 A 
ENDBRANCH  26  28
ENDBRANCH   9  26
TORSDOF 6
ENDMDL
MODEL 8
REMARK VINA RESULT:      -6.8      2.117      3.623
REMARK  Name = 
REMARK  9 active torsions:
REMARK  status: ('A' for Active; 'I' for Inactive)
REMARK    1  A    between atoms: C_1  and  C_2
REMARK    2  A    between atoms: C_2  and  C_3
REMARK    3  A    between atoms: C_2  and  C_4
REMARK    4  A    between atoms: C_2  and  N_5
REMARK    5  A    between atoms: N_5  and  S_6
REMARK    6  A    between atoms: S_6  and  C_9
REMARK    7  A    between atoms: C_12  and  C_15
REMARK    8  A    between atoms: C_22  and  N_23
REMARK    9  A    between atoms: N_23  and  C_24
REMARK                            x       y       z     vdW  Elec       q    Type
REMARK                         _______ _______ _______ _____ _____    ______ ____
ROOT
ATOM      1  C   UNL     1       7.278   0.741  26.823  0.00  0.00    +0.001 A 
ATOM      2  C   UNL     1       7.278   1.804  25.909  0.00  0.00    +0.022 A 
ATOM      3  C   UNL     1       7.105   3.143  26.319  0.00  0.00    +0.022 A 
ATOM      4  C   UNL     1       6.937   3.366  27.701  0.00  0.00    +0.073 A 
ATOM      5  C   UNL     1       6.827   4.670  28.159  0.00  0.00    +0.028 A 
ATOM      6  C   UNL     1       6.873   5.758  27.289  0.00  0.00    +0.004 A 
ATOM      7  C   UNL     1       7.014   5.542  25.924  0.00  0.00    +0.024 A 
ATOM      8  N   UNL     1       6.900   2.369  28.599  0.00  0.00    -0.254 NA
ATOM      9  C   UNL     1       7.151   4.241  25.419  0.00  0.00    +0.042 A 
ATOM     10  C   UNL     1       7.066   1.101  28.149  0.00  0.00    +0.120 A 
ENDROOT
BRANCH   1  14
ATOM     11  C   UNL     1       8.186  -3.316  25.765  0.00  0.00    +0.105 A 
ATOM     12  C   UNL     1       7.029  -3.037  26.492  0.00  0.00    +0.029 A 
ATOM     13  C   UNL     1       6.721  -1.712  26.813  0.00  0.00    +0.010 A 
ATOM     14  C   UNL     1       7.546  -0.648  26.398  0.00  0.00    -0.016 A 
ATOM     15  C   UNL     1       8.666  -0.963  25.605  0.00  0.00    +0.010 A 
ATOM     16  C   UNL     1       8.988  -2.284  25.285  0.00  0.00    +0.029 A 
BRANCH  11  17
ATOM     17  S   UNL     1       8.629  -5.012  25.473  0.00  0.00    +0.059 S 
ATOM     18  O   UNL     1      10.056  -5.093  25.680  0.00  0.00    -0.153 OA
ATOM     19  O   UNL     1       7.704  -5.854  26.197  0.00  0.00    -0.153 OA
BRANCH  17  20
ATOM     20  N   UNL     1       8.376  -5.177  23.808  0.00  0.00    -0.185 NA
ATOM     21  H   UNL     1       9.184  -4.845  23.283  0.00  0.00    +0.149 HD
BRANCH  20  23
ATOM     22  C   UNL     1       6.827  -3.576  22.678  0.00  0.00    +0.029 C 
ATOM     23  C   UNL     1       7.066  -5.015  23.127  0.00  0.00    +0.032 C 
ATOM     24  C   UNL     1       7.101  -5.909  21.869  0.00  0.00    +0.029 C 
ATOM     25  C   UNL     1       5.928  -5.522  24.020  0.00  0.00    +0.029 C 
ENDBRANCH  20  23
ENDBRANCH  17  20
ENDBRANCH  11  17
ENDBRANCH   1  14
BRANCH   9  26
ATOM     26  N   UNL     1       7.256   4.012  24.022  0.00  0.00    -0.299 N 
ATOM     27  H   UNL     1       7.164   4.873  23.488  0.00  0.00    +0.154 HD
BRANCH  26  28
ATOM     28  C   UNL     1       8.219   3.227  23.367  0.00  0.00    +0.123 A 
ATOM     29  N   UNL     1       7.776   2.373  22.422  0.00  0.00    -0.240 NA
ATOM     30  C   UNL     1       8.701   1.626  21.775  0.00  0.00    +0.113 A 
ATOM     31  C   UNL     1      10.063   1.692  22.023  0.00  0.00    +0.020 A 
ATOM     32  C   UNL     1      10.502   2.555  23.015  0.00  0.00    +0.005 A 
ATOM     33  C   UNL     1       9.568   3.318  23.707  0.00  0.00    +0.044 A 
ENDBRANCH  26  28
ENDBRANCH   9  26
TORSDOF 6
ENDMDL
MODEL 9
REMARK VINA RESULT:      -6.7      2.055      2.594
REMARK  Name = 
REMARK  9 active torsions:
REMARK  status: ('A' for Active; 'I' for Inactive)
REMARK    1  A    between atoms: C_1  and  C_2
REMARK    2  A    between atoms: C_2  and  C_3
REMARK    3  A    between atoms: C_2  and  C_4
REMARK    4  A    between atoms: C_2  and  N_5
REMARK    5  A    between atoms: N_5  and  S_6
REMARK    6  A    between atoms: S_6  and  C_9
REMARK    7  A    between atoms: C_12  and  C_15
REMARK    8  A    between atoms: C_22  and  N_23
REMARK    9  A    between atoms: N_23  and  C_24
REMARK                            x       y       z     vdW  Elec       q    Type
REMARK                         _______ _______ _______ _____ _____    ______ ____
ROOT
ATOM      1  C   UNL     1       8.877   1.203  23.289  0.00  0.00    +0.001 A 
ATOM      2  C   UNL     1       8.175   2.416  23.240  0.00  0.00    +0.022 A 
ATOM      3  C   UNL     1       8.819   3.660  23.407  0.00  0.00    +0.022 A 
ATOM      4  C   UNL     1      10.212   3.629  23.621  0.00  0.00    +0.073 A 
ATOM      5  C   UNL     1      10.899   4.828  23.726  0.00  0.00    +0.028 A 
ATOM      6  C   UNL     1      10.247   6.056  23.632  0.00  0.00    +0.004 A 
ATOM      7  C   UNL     1       8.870   6.092  23.447  0.00  0.00    +0.024 A 
ATOM      8  N   UNL     1      10.909   2.485  23.705  0.00  0.00    -0.254 NA
ATOM      9  C   UNL     1       8.138   4.903  23.312  0.00  0.00    +0.042 A 
ATOM     10  C   UNL     1      10.239   1.318  23.542  0.00  0.00    +0.120 A 
ENDROOT
BRANCH   1  14
ATOM     11  C   UNL     1       7.032  -2.628  22.718  0.00  0.00    +0.105 A 
ATOM     12  C   UNL     1       6.304  -1.594  23.307  0.00  0.00    +0.029 A 
ATOM     13  C   UNL     1       6.897  -0.340  23.468  0.00  0.00    +0.010 A 
ATOM     14  C   UNL     1       8.212  -0.089  23.027  0.00  0.00    -0.016 A 
ATOM     15  C   UNL     1       8.890  -1.137  22.373  0.00  0.00    +0.010 A 
ATOM     16  C   UNL     1       8.309  -2.397  22.214  0.00  0.00    +0.029 A 
BRANCH  11  17
ATOM     17  S   UNL     1       6.309  -4.248  22.633  0.00  0.00    +0.059 S 
ATOM     18  O   UNL     1       4.937  -4.053  22.225  0.00  0.00    -0.153 OA
ATOM     19  O   UNL     1       7.208  -5.109  21.897  0.00  0.00    -0.153 OA
BRANCH  17  20
ATOM     20  N   UNL     1       6.263  -4.717  24.258  0.00  0.00    -0.185 NA
ATOM     21  H   UNL     1       7.197  -4.950  24.595  0.00  0.00    +0.149 HD
BRANCH  20  23
ATOM     22  C   UNL     1       4.709  -6.661  24.052  0.00  0.00    +0.029 C 
ATOM     23  C   UNL     1       5.152  -5.470  24.895  0.00  0.00    +0.032 C 
ATOM     24  C   UNL     1       5.689  -6.008  26.239  0.00  0.00    +0.029 C 
ATOM     25  C   UNL     1       3.980  -4.535  25.210  0.00  0.00    +0.029 C 
ENDBRANCH  20  23
ENDBRANCH  17  20
ENDBRANCH  11  17
ENDBRANCH   1  14
BRANCH   9  26
ATOM     26  N   UNL     1       6.728   4.932  23.160  0.00  0.00    -0.299 N 
ATOM     27  H   UNL     1       6.410   4.296  22.432  0.00  0.00    +0.154 HD
BRANCH  26  28
ATOM     28  C   UNL     1       5.768   4.889  24.185  0.00  0.00    +0.123 A 
ATOM     29  N   UNL     1       5.709   5.948  25.017  0.00  0.00    -0.240 NA
ATOM     30  C   UNL     1       4.776   5.919  25.996  0.00  0.00    +0.113 A 
ATOM     31  C   UNL     1       3.884   4.876  26.187  0.00  0.00    +0.020 A 
ATOM     32  C   UNL     1       3.973   3.781  25.342  0.00  0.00    +0.005 A 
ATOM     33  C   UNL     1       4.938   3.780  24.341  0.00  0.00    +0.044 A 
ENDBRANCH  26  28
ENDBRANCH   9  26
TORSDOF 6
ENDMDL
