MODEL 1
REMARK VINA RESULT:      -5.8      0.000      0.000
REMARK  Name = 
REMARK  14 active torsions:
REMARK  status: ('A' for Active; 'I' for Inactive)
REMARK    1  A    between atoms: C_1  and  C_2
REMARK    2  A    between atoms: C_2  and  C_3
REMARK    3  A    between atoms: C_3  and  C_4
REMARK    4  A    between atoms: C_4  and  N_5
REMARK    5  A    between atoms: N_5  and  C_6
REMARK    6  A    between atoms: N_5  and  C_10
REMARK    7  A    between atoms: C_6  and  C_7
REMARK    8  A    between atoms: C_7  and  C_8
REMARK    9  A    between atoms: C_8  and  C_9
REMARK   10  A    between atoms: C_10  and  C_11
REMARK   11  A    between atoms: C_11  and  C_12
REMARK   12  A    between atoms: C_12  and  O_13
REMARK   13  A    between atoms: C_12  and  C_14
REMARK   14  A    between atoms: C_18  and  C_30
REMARK                            x       y       z     vdW  Elec       q    Type
REMARK                         _______ _______ _______ _____ _____    ______ ____
ROOT
ATOM      1  C   UNL     1       4.867  -1.888  25.323  0.00  0.00    -0.011 A 
ATOM      2  C   UNL     1       5.446  -0.605  25.302  0.00  0.00    +0.016 A 
ATOM      3  C   UNL     1       6.497  -0.238  24.448  0.00  0.00    +0.001 A 
ATOM      4  C   UNL     1       6.952  -1.191  23.508  0.00  0.00    -0.007 A 
ATOM      5  C   UNL     1       8.027  -0.789  22.672  0.00  0.00    +0.029 A 
ATOM      6  C   UNL     1       8.622   0.471  22.769  0.00  0.00    +0.043 A 
ATOM      7  C   UNL     1       8.174   1.392  23.696  0.00  0.00    +0.040 A 
ATOM      8 CL   UNL     1       9.927   0.885  21.727  0.00  0.00    -0.083 Cl
ATOM      9  C   UNL     1       6.322  -2.492  23.449  0.00  0.00    -0.009 A 
ATOM     10  C   UNL     1       6.716  -3.493  22.521  0.00  0.00    +0.021 A 
ATOM     11  C   UNL     1       6.110  -4.760  22.442  0.00  0.00    +0.055 A 
ATOM     12  C   UNL     1       5.060  -5.046  23.305  0.00  0.00    +0.013 A 
ATOM     13  C   UNL     1       4.647  -4.092  24.233  0.00  0.00    +0.009 A 
ATOM     14  C   UNL     1       7.117   1.041  24.529  0.00  0.00    +0.050 A 
ATOM     15 CL   UNL     1       6.627   2.245  25.684  0.00  0.00    -0.083 Cl
ATOM     16  C   UNL     1       5.266  -2.825  24.344  0.00  0.00    -0.012 A 
ENDROOT
BRANCH  11  17
ATOM     17  C   UNL     1       6.607  -5.769  21.440  0.00  0.00    +0.417 C 
ATOM     18  F   UNL     1       6.417  -7.050  21.855  0.00  0.00    -0.166 F 
ATOM     19  F   UNL     1       7.942  -5.650  21.198  0.00  0.00    -0.166 F 
ATOM     20  F   UNL     1       5.999  -5.678  20.221  0.00  0.00    -0.166 F 
ENDBRANCH  11  17
BRANCH   1  21
ATOM     21  C   UNL     1       3.869  -2.233  26.431  0.00  0.00    +0.146 C 
BRANCH  21  22
ATOM     22  O   UNL     1       3.149  -1.059  26.795  0.00  0.00    -0.387 OA
ATOM     23  H   UNL     1       3.617  -0.296  26.414  0.00  0.00    +0.210 HD
ENDBRANCH  21  22
BRANCH  21  24
ATOM     24  C   UNL     1       4.535  -2.849  27.669  0.00  0.00    +0.051 C 
BRANCH  24  25
ATOM     25  C   UNL     1       4.114  -4.288  27.954  0.00  0.00    +0.087 C 
BRANCH  25  26
ATOM     26  N   UNL     1       5.279  -5.213  27.983  0.00  0.00    -0.302 NA
BRANCH  26  27
ATOM     27  C   UNL     1       4.981  -6.435  27.196  0.00  0.00    +0.084 C 
BRANCH  27  28
ATOM     28  C   UNL     1       3.548  -6.663  26.698  0.00  0.00    +0.015 C 
BRANCH  28  30
ATOM     29  C   UNL     1       2.227  -7.088  24.617  0.00  0.00    +0.004 C 
ATOM     30  C   UNL     1       3.460  -7.490  25.417  0.00  0.00    -0.002 C 
ENDBRANCH  28  30
ENDBRANCH  27  28
ENDBRANCH  26  27
BRANCH  26  31
ATOM     31  C   UNL     1       6.488  -4.530  27.474  0.00  0.00    +0.084 C 
BRANCH  31  32
ATOM     32  C   UNL     1       7.332  -5.312  26.450  0.00  0.00    +0.015 C 
BRANCH  32  33
ATOM     33  C   UNL     1       8.391  -4.471  25.733  0.00  0.00    -0.002 C 
ATOM     34  C   UNL     1       8.465  -3.074  26.336  0.00  0.00    +0.004 C 
ENDBRANCH  32  33
ENDBRANCH  31  32
ENDBRANCH  26  31
ENDBRANCH  25  26
ENDBRANCH  24  25
ENDBRANCH  21  24
ENDBRANCH   1  21
TORSDOF 12
ENDMDL
MODEL 2
REMARK VINA RESULT:      -5.7      0.573      2.646
REMARK  Name = 
REMARK  14 active torsions:
REMARK  status: ('A' for Active; 'I' for Inactive)
REMARK    1  A    between atoms: C_1  and  C_2
REMARK    2  A    between atoms: C_2  and  C_3
REMARK    3  A    between atoms: C_3  and  C_4
REMARK    4  A    between atoms: C_4  and  N_5
REMARK    5  A    between atoms: N_5  and  C_6
REMARK    6  A    between atoms: N_5  and  C_10
REMARK    7  A    between atoms: C_6  and  C_7
REMARK    8  A    between atoms: C_7  and  C_8
REMARK    9  A    between atoms: C_8  and  C_9
REMARK   10  A    between atoms: C_10  and  C_11
REMARK   11  A    between atoms: C_11  and  C_12
REMARK   12  A    between atoms: C_12  and  O_13
REMARK   13  A    between atoms: C_12  and  C_14
REMARK   14  A    between atoms: C_18  and  C_30
REMARK                            x       y       z     vdW  Elec       q    Type
REMARK                         _______ _______ _______ _____ _____    ______ ____
ROOT
ATOM      1  C   UNL     1       4.874  -1.859  25.365  0.00  0.00    -0.011 A 
ATOM      2  C   UNL     1       5.461  -0.579  25.349  0.00  0.00    +0.016 A 
ATOM      3  C   UNL     1       6.513  -0.214  24.496  0.00  0.00    +0.001 A 
ATOM      4  C   UNL     1       6.962  -1.166  23.552  0.00  0.00    -0.007 A 
ATOM      5  C   UNL     1       8.038  -0.766  22.717  0.00  0.00    +0.029 A 
ATOM      6  C   UNL     1       8.640   0.490  22.818  0.00  0.00    +0.043 A 
ATOM      7  C   UNL     1       8.197   1.410  23.749  0.00  0.00    +0.040 A 
ATOM      8 CL   UNL     1       9.947   0.902  21.777  0.00  0.00    -0.083 Cl
ATOM      9  C   UNL     1       6.325  -2.463  23.488  0.00  0.00    -0.009 A 
ATOM     10  C   UNL     1       6.713  -3.462  22.555  0.00  0.00    +0.021 A 
ATOM     11  C   UNL     1       6.101  -4.725  22.471  0.00  0.00    +0.055 A 
ATOM     12  C   UNL     1       5.050  -5.010  23.334  0.00  0.00    +0.013 A 
ATOM     13  C   UNL     1       4.642  -4.058  24.267  0.00  0.00    +0.009 A 
ATOM     14  C   UNL     1       7.139   1.061  24.582  0.00  0.00    +0.050 A 
ATOM     15 CL   UNL     1       6.656   2.263  25.742  0.00  0.00    -0.083 Cl
ATOM     16  C   UNL     1       5.268  -2.794  24.382  0.00  0.00    -0.012 A 
ENDROOT
BRANCH  11  17
ATOM     17  C   UNL     1       6.592  -5.733  21.465  0.00  0.00    +0.417 C 
ATOM     18  F   UNL     1       5.967  -5.613  20.263  0.00  0.00    -0.166 F 
ATOM     19  F   UNL     1       6.382  -7.017  21.867  0.00  0.00    -0.166 F 
ATOM     20  F   UNL     1       7.928  -5.640  21.202  0.00  0.00    -0.166 F 
ENDBRANCH  11  17
BRANCH   1  21
ATOM     21  C   UNL     1       3.875  -2.203  26.473  0.00  0.00    +0.146 C 
BRANCH  21  22
ATOM     22  O   UNL     1       2.816  -1.252  26.460  0.00  0.00    -0.387 OA
ATOM     23  H   UNL     1       3.216  -0.365  26.479  0.00  0.00    +0.210 HD
ENDBRANCH  21  22
BRANCH  21  24
ATOM     24  C   UNL     1       4.518  -2.260  27.865  0.00  0.00    +0.051 C 
BRANCH  24  25
ATOM     25  C   UNL     1       4.590  -3.661  28.464  0.00  0.00    +0.087 C 
BRANCH  25  26
ATOM     26  N   UNL     1       5.028  -4.672  27.464  0.00  0.00    -0.302 NA
BRANCH  26  27
ATOM     27  C   UNL     1       6.467  -4.986  27.650  0.00  0.00    +0.084 C 
BRANCH  27  28
ATOM     28  C   UNL     1       7.501  -4.252  26.790  0.00  0.00    +0.015 C 
BRANCH  28  30
ATOM     29  C   UNL     1       9.234  -4.355  24.988  0.00  0.00    +0.004 C 
ATOM     30  C   UNL     1       8.101  -5.107  25.674  0.00  0.00    -0.002 C 
ENDBRANCH  28  30
ENDBRANCH  27  28
ENDBRANCH  26  27
BRANCH  26  31
ATOM     31  C   UNL     1       4.196  -5.890  27.568  0.00  0.00    +0.084 C 
BRANCH  31  32
ATOM     32  C   UNL     1       4.411  -6.958  26.479  0.00  0.00    +0.015 C 
BRANCH  32  33
ATOM     33  C   UNL     1       3.156  -7.296  25.671  0.00  0.00    -0.002 C 
ATOM     34  C   UNL     1       2.087  -6.229  25.870  0.00  0.00    +0.004 C 
ENDBRANCH  32  33
ENDBRANCH  31  32
ENDBRANCH  26  31
ENDBRANCH  25  26
ENDBRANCH  24  25
ENDBRANCH  21  24
ENDBRANCH   1  21
TORSDOF 12
ENDMDL
MODEL 3
REMARK VINA RESULT:      -5.6      6.458      9.443
REMARK  Name = 
REMARK  14 active torsions:
REMARK  status: ('A' for Active; 'I' for Inactive)
REMARK    1  A    between atoms: C_1  and  C_2
REMARK    2  A    between atoms: C_2  and  C_3
REMARK    3  A    between atoms: C_3  and  C_4
REMARK    4  A    between atoms: C_4  and  N_5
REMARK    5  A    between atoms: N_5  and  C_6
REMARK    6  A    between atoms: N_5  and  C_10
REMARK    7  A    between atoms: C_6  and  C_7
REMARK    8  A    between atoms: C_7  and  C_8
REMARK    9  A    between atoms: C_8  and  C_9
REMARK   10  A    between atoms: C_10  and  C_11
REMARK   11  A    between atoms: C_11  and  C_12
REMARK   12  A    between atoms: C_12  and  O_13
REMARK   13  A    between atoms: C_12  and  C_14
REMARK   14  A    between atoms: C_18  and  C_30
REMARK                            x       y       z     vdW  Elec       q    Type
REMARK                         _______ _______ _______ _____ _____    ______ ____
ROOT
ATOM      1  C   UNL     1       8.266   4.128  25.472  0.00  0.00    -0.011 A 
ATOM      2  C   UNL     1       7.862   2.782  25.547  0.00  0.00    +0.016 A 
ATOM      3  C   UNL     1       8.496   1.738  24.858  0.00  0.00    +0.001 A 
ATOM      4  C   UNL     1       9.649   2.047  24.099  0.00  0.00    -0.007 A 
ATOM      5  C   UNL     1      10.254   0.968  23.403  0.00  0.00    +0.029 A 
ATOM      6  C   UNL     1       9.745  -0.331  23.444  0.00  0.00    +0.043 A 
ATOM      7  C   UNL     1       8.614  -0.622  24.183  0.00  0.00    +0.040 A 
ATOM      8 CL   UNL     1      10.528  -1.588  22.567  0.00  0.00    -0.083 Cl
ATOM      9  C   UNL     1      10.138   3.409  24.067  0.00  0.00    -0.009 A 
ATOM     10  C   UNL     1      11.297   3.790  23.340  0.00  0.00    +0.021 A 
ATOM     11  C   UNL     1      11.792   5.105  23.303  0.00  0.00    +0.055 A 
ATOM     12  C   UNL     1      11.125   6.084  24.029  0.00  0.00    +0.013 A 
ATOM     13  C   UNL     1       9.981   5.752  24.752  0.00  0.00    +0.009 A 
ATOM     14  C   UNL     1       7.995   0.406  24.887  0.00  0.00    +0.050 A 
ATOM     15 CL   UNL     1       6.564  -0.034  25.773  0.00  0.00    -0.083 Cl
ATOM     16  C   UNL     1       9.454   4.439  24.774  0.00  0.00    -0.012 A 
ENDROOT
BRANCH  11  17
ATOM     17  C   UNL     1      13.018   5.424  22.487  0.00  0.00    +0.417 C 
ATOM     18  F   UNL     1      12.926   4.964  21.211  0.00  0.00    -0.166 F 
ATOM     19  F   UNL     1      14.148   4.867  23.004  0.00  0.00    -0.166 F 
ATOM     20  F   UNL     1      13.276   6.761  22.384  0.00  0.00    -0.166 F 
ENDBRANCH  11  17
BRANCH   1  21
ATOM     21  C   UNL     1       7.379   5.205  26.103  0.00  0.00    +0.146 C 
BRANCH  21  22
ATOM     22  O   UNL     1       7.462   5.107  27.521  0.00  0.00    -0.387 OA
ATOM     23  H   UNL     1       7.962   4.300  27.733  0.00  0.00    +0.210 HD
ENDBRANCH  21  22
BRANCH  21  24
ATOM     24  C   UNL     1       5.915   5.117  25.653  0.00  0.00    +0.051 C 
BRANCH  24  25
ATOM     25  C   UNL     1       5.464   6.273  24.764  0.00  0.00    +0.087 C 
BRANCH  25  26
ATOM     26  N   UNL     1       5.330   5.861  23.340  0.00  0.00    -0.302 NA
BRANCH  26  27
ATOM     27  C   UNL     1       4.231   6.617  22.690  0.00  0.00    +0.084 C 
BRANCH  27  28
ATOM     28  C   UNL     1       3.065   5.840  22.070  0.00  0.00    +0.015 C 
BRANCH  28  30
ATOM     29  C   UNL     1       2.774   3.388  21.667  0.00  0.00    +0.004 C 
ATOM     30  C   UNL     1       2.803   4.484  22.725  0.00  0.00    -0.002 C 
ENDBRANCH  28  30
ENDBRANCH  27  28
ENDBRANCH  26  27
BRANCH  26  31
ATOM     31  C   UNL     1       6.610   6.057  22.628  0.00  0.00    +0.084 C 
BRANCH  31  32
ATOM     32  C   UNL     1       7.250   4.798  22.013  0.00  0.00    +0.015 C 
BRANCH  32  33
ATOM     33  C   UNL     1       6.462   3.509  22.254  0.00  0.00    -0.002 C 
ATOM     34  C   UNL     1       7.191   2.314  21.652  0.00  0.00    +0.004 C 
ENDBRANCH  32  33
ENDBRANCH  31  32
ENDBRANCH  26  31
ENDBRANCH  25  26
ENDBRANCH  24  25
ENDBRANCH  21  24
ENDBRANCH   1  21
TORSDOF 12
ENDMDL
MODEL 4
REMARK VINA RESULT:      -5.3      2.783      5.286
REMARK  Name = 
REMARK  14 active torsions:
REMARK  status: ('A' for Active; 'I' for Inactive)
REMARK    1  A    between atoms: C_1  and  C_2
REMARK    2  A    between atoms: C_2  and  C_3
REMARK    3  A    between atoms: C_3  and  C_4
REMARK    4  A    between atoms: C_4  and  N_5
REMARK    5  A    between atoms: N_5  and  C_6
REMARK    6  A    between atoms: N_5  and  C_10
REMARK    7  A    between atoms: C_6  and  C_7
REMARK    8  A    between atoms: C_7  and  C_8
REMARK    9  A    between atoms: C_8  and  C_9
REMARK   10  A    between atoms: C_10  and  C_11
REMARK   11  A    between atoms: C_11  and  C_12
REMARK   12  A    between atoms: C_12  and  O_13
REMARK   13  A    between atoms: C_12  and  C_14
REMARK   14  A    between atoms: C_18  and  C_30
REMARK                            x       y       z     vdW  Elec       q    Type
REMARK                         _______ _______ _______ _____ _____    ______ ____
ROOT
ATOM      1  C   UNL     1       5.695  -0.740  24.838  0.00  0.00    -0.011 A 
ATOM      2  C   UNL     1       5.018  -0.863  26.066  0.00  0.00    +0.016 A 
ATOM      3  C   UNL     1       4.394  -2.043  26.498  0.00  0.00    +0.001 A 
ATOM      4  C   UNL     1       4.512  -3.192  25.683  0.00  0.00    -0.007 A 
ATOM      5  C   UNL     1       3.854  -4.363  26.144  0.00  0.00    +0.029 A 
ATOM      6  C   UNL     1       3.116  -4.391  27.329  0.00  0.00    +0.043 A 
ATOM      7  C   UNL     1       3.002  -3.260  28.115  0.00  0.00    +0.040 A 
ATOM      8 CL   UNL     1       2.338  -5.845  27.821  0.00  0.00    -0.083 Cl
ATOM      9  C   UNL     1       5.271  -3.120  24.453  0.00  0.00    -0.009 A 
ATOM     10  C   UNL     1       5.445  -4.237  23.593  0.00  0.00    +0.021 A 
ATOM     11  C   UNL     1       6.185  -4.190  22.398  0.00  0.00    +0.055 A 
ATOM     12  C   UNL     1       6.794  -2.992  22.045  0.00  0.00    +0.013 A 
ATOM     13  C   UNL     1       6.645  -1.872  22.860  0.00  0.00    +0.009 A 
ATOM     14  C   UNL     1       3.638  -2.094  27.703  0.00  0.00    +0.050 A 
ATOM     15 CL   UNL     1       3.427  -0.708  28.732  0.00  0.00    -0.083 Cl
ATOM     16  C   UNL     1       5.878  -1.897  24.049  0.00  0.00    -0.012 A 
ENDROOT
BRANCH  11  17
ATOM     17  C   UNL     1       6.299  -5.419  21.535  0.00  0.00    +0.417 C 
ATOM     18  F   UNL     1       5.431  -6.397  21.908  0.00  0.00    -0.166 F 
ATOM     19  F   UNL     1       7.539  -5.981  21.589  0.00  0.00    -0.166 F 
ATOM     20  F   UNL     1       6.053  -5.186  20.213  0.00  0.00    -0.166 F 
ENDBRANCH  11  17
BRANCH   1  21
ATOM     21  C   UNL     1       6.161   0.646  24.384  0.00  0.00    +0.146 C 
BRANCH  21  22
ATOM     22  O   UNL     1       6.023   0.746  22.970  0.00  0.00    -0.387 OA
ATOM     23  H   UNL     1       5.787  -0.135  22.634  0.00  0.00    +0.210 HD
ENDBRANCH  21  22
BRANCH  21  24
ATOM     24  C   UNL     1       7.605   0.959  24.797  0.00  0.00    +0.051 C 
BRANCH  24  25
ATOM     25  C   UNL     1       8.138   0.081  25.926  0.00  0.00    +0.087 C 
BRANCH  25  26
ATOM     26  N   UNL     1       9.399  -0.611  25.544  0.00  0.00    -0.302 NA
BRANCH  26  27
ATOM     27  C   UNL     1       9.149  -2.062  25.353  0.00  0.00    +0.084 C 
BRANCH  27  28
ATOM     28  C   UNL     1       8.412  -2.836  26.451  0.00  0.00    +0.015 C 
BRANCH  28  30
ATOM     29  C   UNL     1       8.931  -4.681  24.844  0.00  0.00    +0.004 C 
ATOM     30  C   UNL     1       8.326  -4.341  26.200  0.00  0.00    -0.002 C 
ENDBRANCH  28  30
ENDBRANCH  27  28
ENDBRANCH  26  27
BRANCH  26  31
ATOM     31  C   UNL     1       9.970  -0.000  24.325  0.00  0.00    +0.084 C 
BRANCH  31  32
ATOM     32  C   UNL     1      10.201  -0.947  23.132  0.00  0.00    +0.015 C 
BRANCH  32  33
ATOM     33  C   UNL     1       9.775  -0.373  21.779  0.00  0.00    -0.002 C 
ATOM     34  C   UNL     1       9.743   1.150  21.829  0.00  0.00    +0.004 C 
ENDBRANCH  32  33
ENDBRANCH  31  32
ENDBRANCH  26  31
ENDBRANCH  25  26
ENDBRANCH  24  25
ENDBRANCH  21  24
ENDBRANCH   1  21
TORSDOF 12
ENDMDL
MODEL 5
REMARK VINA RESULT:      -5.3      3.737      5.334
REMARK  Name = 
REMARK  14 active torsions:
REMARK  status: ('A' for Active; 'I' for Inactive)
REMARK    1  A    between atoms: C_1  and  C_2
REMARK    2  A    between atoms: C_2  and  C_3
REMARK    3  A    between atoms: C_3  and  C_4
REMARK    4  A    between atoms: C_4  and  N_5
REMARK    5  A    between atoms: N_5  and  C_6
REMARK    6  A    between atoms: N_5  and  C_10
REMARK    7  A    between atoms: C_6  and  C_7
REMARK    8  A    between atoms: C_7  and  C_8
REMARK    9  A    between atoms: C_8  and  C_9
REMARK   10  A    between atoms: C_10  and  C_11
REMARK   11  A    between atoms: C_11  and  C_12
REMARK   12  A    between atoms: C_12  and  O_13
REMARK   13  A    between atoms: C_12  and  C_14
REMARK   14  A    between atoms: C_18  and  C_30
REMARK                            x       y       z     vdW  Elec       q    Type
REMARK                         _______ _______ _______ _____ _____    ______ ____
ROOT
ATOM      1  C   UNL     1       6.391  -2.088  23.299  0.00  0.00    -0.011 A 
ATOM      2  C   UNL     1       5.423  -2.158  24.320  0.00  0.00    +0.016 A 
ATOM      3  C   UNL     1       5.419  -1.325  25.448  0.00  0.00    +0.001 A 
ATOM      4  C   UNL     1       6.402  -0.313  25.530  0.00  0.00    -0.007 A 
ATOM      5  C   UNL     1       6.375   0.501  26.694  0.00  0.00    +0.029 A 
ATOM      6  C   UNL     1       5.444   0.315  27.717  0.00  0.00    +0.043 A 
ATOM      7  C   UNL     1       4.491  -0.682  27.631  0.00  0.00    +0.040 A 
ATOM      8 CL   UNL     1       5.478   1.334  29.104  0.00  0.00    -0.083 Cl
ATOM      9  C   UNL     1       7.362  -0.162  24.458  0.00  0.00    -0.009 A 
ATOM     10  C   UNL     1       8.367   0.842  24.464  0.00  0.00    +0.021 A 
ATOM     11  C   UNL     1       9.303   1.010  23.428  0.00  0.00    +0.055 A 
ATOM     12  C   UNL     1       9.233   0.162  22.330  0.00  0.00    +0.013 A 
ATOM     13  C   UNL     1       8.264  -0.838  22.287  0.00  0.00    +0.009 A 
ATOM     14  C   UNL     1       4.478  -1.496  26.503  0.00  0.00    +0.050 A 
ATOM     15 CL   UNL     1       3.265  -2.742  26.479  0.00  0.00    -0.083 Cl
ATOM     16  C   UNL     1       7.335  -1.039  23.336  0.00  0.00    -0.012 A 
ENDROOT
BRANCH  11  17
ATOM     17  C   UNL     1      10.349   2.089  23.528  0.00  0.00    +0.417 C 
ATOM     18  F   UNL     1       9.898   3.191  24.184  0.00  0.00    -0.166 F 
ATOM     19  F   UNL     1      10.767   2.526  22.308  0.00  0.00    -0.166 F 
ATOM     20  F   UNL     1      11.478   1.699  24.190  0.00  0.00    -0.166 F 
ENDBRANCH  11  17
BRANCH   1  21
ATOM     21  C   UNL     1       6.413  -3.176  22.223  0.00  0.00    +0.146 C 
BRANCH  21  22
ATOM     22  O   UNL     1       5.085  -3.639  21.999  0.00  0.00    -0.387 OA
ATOM     23  H   UNL     1       4.711  -3.121  21.266  0.00  0.00    +0.210 HD
ENDBRANCH  21  22
BRANCH  21  24
ATOM     24  C   UNL     1       7.331  -4.353  22.578  0.00  0.00    +0.051 C 
BRANCH  24  25
ATOM     25  C   UNL     1       6.620  -5.513  23.270  0.00  0.00    +0.087 C 
BRANCH  25  26
ATOM     26  N   UNL     1       6.264  -5.186  24.678  0.00  0.00    -0.302 NA
BRANCH  26  27
ATOM     27  C   UNL     1       5.155  -6.058  25.140  0.00  0.00    +0.084 C 
BRANCH  27  28
ATOM     28  C   UNL     1       4.332  -6.822  24.097  0.00  0.00    +0.015 C 
BRANCH  28  30
ATOM     29  C   UNL     1       2.373  -5.460  23.343  0.00  0.00    +0.004 C 
ATOM     30  C   UNL     1       2.823  -6.618  24.226  0.00  0.00    -0.002 C 
ENDBRANCH  28  30
ENDBRANCH  27  28
ENDBRANCH  26  27
BRANCH  26  31
ATOM     31  C   UNL     1       7.450  -5.320  25.550  0.00  0.00    +0.084 C 
BRANCH  31  32
ATOM     32  C   UNL     1       7.598  -4.270  26.667  0.00  0.00    +0.015 C 
BRANCH  32  33
ATOM     33  C   UNL     1       8.545  -3.117  26.327  0.00  0.00    -0.002 C 
ATOM     34  C   UNL     1       9.404  -3.468  25.119  0.00  0.00    +0.004 C 
ENDBRANCH  32  33
ENDBRANCH  31  32
ENDBRANCH  26  31
ENDBRANCH  25  26
ENDBRANCH  24  25
ENDBRANCH  21  24
ENDBRANCH   1  21
TORSDOF 12
ENDMDL
MODEL 6
REMARK VINA RESULT:      -5.3      6.317      9.068
REMARK  Name = 
REMARK  14 active torsions:
REMARK  status: ('A' for Active; 'I' for Inactive)
REMARK    1  A    between atoms: C_1  and  C_2
REMARK    2  A    between atoms: C_2  and  C_3
REMARK    3  A    between atoms: C_3  and  C_4
REMARK    4  A    between atoms: C_4  and  N_5
REMARK    5  A    between atoms: N_5  and  C_6
REMARK    6  A    between atoms: N_5  and  C_10
REMARK    7  A    between atoms: C_6  and  C_7
REMARK    8  A    between atoms: C_7  and  C_8
REMARK    9  A    between atoms: C_8  and  C_9
REMARK   10  A    between atoms: C_10  and  C_11
REMARK   11  A    between atoms: C_11  and  C_12
REMARK   12  A    between atoms: C_12  and  O_13
REMARK   13  A    between atoms: C_12  and  C_14
REMARK   14  A    between atoms: C_18  and  C_30
REMARK                            x       y       z     vdW  Elec       q    Type
REMARK                         _______ _______ _______ _____ _____    ______ ____
ROOT
ATOM      1  C   UNL     1       8.217   4.157  25.447  0.00  0.00    -0.011 A 
ATOM      2  C   UNL     1       7.800   2.814  25.508  0.00  0.00    +0.016 A 
ATOM      3  C   UNL     1       8.434   1.769  24.819  0.00  0.00    +0.001 A 
ATOM      4  C   UNL     1       9.598   2.074  24.077  0.00  0.00    -0.007 A 
ATOM      5  C   UNL     1      10.203   0.994  23.380  0.00  0.00    +0.029 A 
ATOM      6  C   UNL     1       9.682  -0.301  23.406  0.00  0.00    +0.043 A 
ATOM      7  C   UNL     1       8.540  -0.587  24.129  0.00  0.00    +0.040 A 
ATOM      8 CL   UNL     1      10.465  -1.558  22.530  0.00  0.00    -0.083 Cl
ATOM      9  C   UNL     1      10.099   3.431  24.059  0.00  0.00    -0.009 A 
ATOM     10  C   UNL     1      11.271   3.808  23.350  0.00  0.00    +0.021 A 
ATOM     11  C   UNL     1      11.777   5.119  23.328  0.00  0.00    +0.055 A 
ATOM     12  C   UNL     1      11.109   6.098  24.052  0.00  0.00    +0.013 A 
ATOM     13  C   UNL     1       9.954   5.771  24.759  0.00  0.00    +0.009 A 
ATOM     14  C   UNL     1       7.921   0.442  24.832  0.00  0.00    +0.050 A 
ATOM     15 CL   UNL     1       6.476   0.008  25.698  0.00  0.00    -0.083 Cl
ATOM     16  C   UNL     1       9.415   4.463  24.765  0.00  0.00    -0.012 A 
ENDROOT
BRANCH  11  17
ATOM     17  C   UNL     1      13.015   5.433  22.529  0.00  0.00    +0.417 C 
ATOM     18  F   UNL     1      12.917   5.023  21.236  0.00  0.00    -0.166 F 
ATOM     19  F   UNL     1      14.127   4.825  23.029  0.00  0.00    -0.166 F 
ATOM     20  F   UNL     1      13.312   6.765  22.476  0.00  0.00    -0.166 F 
ENDBRANCH  11  17
BRANCH   1  21
ATOM     21  C   UNL     1       7.331   5.237  26.075  0.00  0.00    +0.146 C 
BRANCH  21  22
ATOM     22  O   UNL     1       7.849   5.579  27.357  0.00  0.00    -0.387 OA
ATOM     23  H   UNL     1       8.204   4.767  27.757  0.00  0.00    +0.210 HD
ENDBRANCH  21  22
BRANCH  21  24
ATOM     24  C   UNL     1       5.861   4.814  26.194  0.00  0.00    +0.051 C 
BRANCH  24  25
ATOM     25  C   UNL     1       4.936   5.475  25.176  0.00  0.00    +0.087 C 
BRANCH  25  26
ATOM     26  N   UNL     1       4.205   4.471  24.355  0.00  0.00    -0.302 NA
BRANCH  26  27
ATOM     27  C   UNL     1       4.764   4.432  22.980  0.00  0.00    +0.084 C 
BRANCH  27  28
ATOM     28  C   UNL     1       5.698   3.280  22.594  0.00  0.00    +0.015 C 
BRANCH  28  30
ATOM     29  C   UNL     1       7.169   5.244  22.107  0.00  0.00    +0.004 C 
ATOM     30  C   UNL     1       7.022   3.733  21.980  0.00  0.00    -0.002 C 
ENDBRANCH  28  30
ENDBRANCH  27  28
ENDBRANCH  26  27
BRANCH  26  31
ATOM     31  C   UNL     1       4.268   3.141  24.996  0.00  0.00    +0.084 C 
BRANCH  31  32
ATOM     32  C   UNL     1       3.031   2.716  25.809  0.00  0.00    +0.015 C 
BRANCH  32  33
ATOM     33  C   UNL     1       3.280   1.555  26.775  0.00  0.00    -0.002 C 
ATOM     34  C   UNL     1       4.204   1.988  27.906  0.00  0.00    +0.004 C 
ENDBRANCH  32  33
ENDBRANCH  31  32
ENDBRANCH  26  31
ENDBRANCH  25  26
ENDBRANCH  24  25
ENDBRANCH  21  24
ENDBRANCH   1  21
TORSDOF 12
ENDMDL
MODEL 7
REMARK VINA RESULT:      -5.2      4.885      7.231
REMARK  Name = 
REMARK  14 active torsions:
REMARK  status: ('A' for Active; 'I' for Inactive)
REMARK    1  A    between atoms: C_1  and  C_2
REMARK    2  A    between atoms: C_2  and  C_3
REMARK    3  A    between atoms: C_3  and  C_4
REMARK    4  A    between atoms: C_4  and  N_5
REMARK    5  A    between atoms: N_5  and  C_6
REMARK    6  A    between atoms: N_5  and  C_10
REMARK    7  A    between atoms: C_6  and  C_7
REMARK    8  A    between atoms: C_7  and  C_8
REMARK    9  A    between atoms: C_8  and  C_9
REMARK   10  A    between atoms: C_10  and  C_11
REMARK   11  A    between atoms: C_11  and  C_12
REMARK   12  A    between atoms: C_12  and  O_13
REMARK   13  A    between atoms: C_12  and  C_14
REMARK   14  A    between atoms: C_18  and  C_30
REMARK                            x       y       z     vdW  Elec       q    Type
REMARK                         _______ _______ _______ _____ _____    ______ ____
ROOT
ATOM      1  C   UNL     1       8.874   0.261  23.353  0.00  0.00    -0.011 A 
ATOM      2  C   UNL     1       7.666  -0.194  23.914  0.00  0.00    +0.016 A 
ATOM      3  C   UNL     1       6.845   0.589  24.740  0.00  0.00    +0.001 A 
ATOM      4  C   UNL     1       7.220   1.933  24.964  0.00  0.00    -0.007 A 
ATOM      5  C   UNL     1       6.374   2.690  25.817  0.00  0.00    +0.029 A 
ATOM      6  C   UNL     1       5.238   2.147  26.421  0.00  0.00    +0.043 A 
ATOM      7  C   UNL     1       4.884   0.830  26.200  0.00  0.00    +0.040 A 
ATOM      8 CL   UNL     1       4.264   3.123  27.451  0.00  0.00    -0.083 Cl
ATOM      9  C   UNL     1       8.414   2.456  24.335  0.00  0.00    -0.009 A 
ATOM     10  C   UNL     1       8.842   3.800  24.502  0.00  0.00    +0.021 A 
ATOM     11  C   UNL     1       9.994   4.329  23.893  0.00  0.00    +0.055 A 
ATOM     12  C   UNL     1      10.746   3.501  23.070  0.00  0.00    +0.013 A 
ATOM     13  C   UNL     1      10.362   2.175  22.884  0.00  0.00    +0.009 A 
ATOM     14  C   UNL     1       5.682   0.056  25.364  0.00  0.00    +0.050 A 
ATOM     15 CL   UNL     1       5.186  -1.598  25.156  0.00  0.00    -0.083 Cl
ATOM     16  C   UNL     1       9.223   1.620  23.514  0.00  0.00    -0.012 A 
ENDROOT
BRANCH  11  17
ATOM     17  C   UNL     1      10.386   5.762  24.144  0.00  0.00    +0.417 C 
ATOM     18  F   UNL     1       9.648   6.638  23.411  0.00  0.00    -0.166 F 
ATOM     19  F   UNL     1      11.686   6.011  23.823  0.00  0.00    -0.166 F 
ATOM     20  F   UNL     1      10.243   6.151  25.444  0.00  0.00    -0.166 F 
ENDBRANCH  11  17
BRANCH   1  21
ATOM     21  C   UNL     1       9.783  -0.741  22.637  0.00  0.00    +0.146 C 
BRANCH  21  22
ATOM     22  O   UNL     1       9.831  -0.422  21.251  0.00  0.00    -0.387 OA
ATOM     23  H   UNL     1       9.113  -0.907  20.811  0.00  0.00    +0.210 HD
ENDBRANCH  21  22
BRANCH  21  24
ATOM     24  C   UNL     1       9.340  -2.197  22.829  0.00  0.00    +0.051 C 
BRANCH  24  25
ATOM     25  C   UNL     1       9.960  -2.885  24.043  0.00  0.00    +0.087 C 
BRANCH  25  26
ATOM     26  N   UNL     1       9.155  -4.053  24.492  0.00  0.00    -0.302 NA
BRANCH  26  27
ATOM     27  C   UNL     1       8.805  -3.911  25.928  0.00  0.00    +0.084 C 
BRANCH  27  28
ATOM     28  C   UNL     1       8.150  -5.095  26.649  0.00  0.00    +0.015 C 
BRANCH  28  30
ATOM     29  C   UNL     1       5.811  -5.891  26.262  0.00  0.00    +0.004 C 
ATOM     30  C   UNL     1       6.678  -4.875  26.994  0.00  0.00    -0.002 C 
ENDBRANCH  28  30
ENDBRANCH  27  28
ENDBRANCH  26  27
BRANCH  26  31
ATOM     31  C   UNL     1       7.943  -4.191  23.657  0.00  0.00    +0.084 C 
BRANCH  31  32
ATOM     32  C   UNL     1       7.718  -5.568  23.004  0.00  0.00    +0.015 C 
BRANCH  32  33
ATOM     33  C   UNL     1       6.710  -5.562  21.852  0.00  0.00    -0.002 C 
ATOM     34  C   UNL     1       5.285  -5.634  22.386  0.00  0.00    +0.004 C 
ENDBRANCH  32  33
ENDBRANCH  31  32
ENDBRANCH  26  31
ENDBRANCH  25  26
ENDBRANCH  24  25
ENDBRANCH  21  24
ENDBRANCH   1  21
TORSDOF 12
ENDMDL
MODEL 8
REMARK VINA RESULT:      -5.2      4.487      7.155
REMARK  Name = 
REMARK  14 active torsions:
REMARK  status: ('A' for Active; 'I' for Inactive)
REMARK    1  A    between atoms: C_1  and  C_2
REMARK    2  A    between atoms: C_2  and  C_3
REMARK    3  A    between atoms: C_3  and  C_4
REMARK    4  A    between atoms: C_4  and  N_5
REMARK    5  A    between atoms: N_5  and  C_6
REMARK    6  A    between atoms: N_5  and  C_10
REMARK    7  A    between atoms: C_6  and  C_7
REMARK    8  A    between atoms: C_7  and  C_8
REMARK    9  A    between atoms: C_8  and  C_9
REMARK   10  A    between atoms: C_10  and  C_11
REMARK   11  A    between atoms: C_11  and  C_12
REMARK   12  A    between atoms: C_12  and  O_13
REMARK   13  A    between atoms: C_12  and  C_14
REMARK   14  A    between atoms: C_18  and  C_30
REMARK                            x       y       z     vdW  Elec       q    Type
REMARK                         _______ _______ _______ _____ _____    ______ ____
ROOT
ATOM      1  C   UNL     1       5.691  -2.894  23.828  0.00  0.00    -0.011 A 
ATOM      2  C   UNL     1       5.229  -4.171  24.197  0.00  0.00    +0.016 A 
ATOM      3  C   UNL     1       4.923  -4.538  25.516  0.00  0.00    +0.001 A 
ATOM      4  C   UNL     1       5.019  -3.548  26.520  0.00  0.00    -0.007 A 
ATOM      5  C   UNL     1       4.717  -3.961  27.845  0.00  0.00    +0.029 A 
ATOM      6  C   UNL     1       4.356  -5.273  28.157  0.00  0.00    +0.043 A 
ATOM      7  C   UNL     1       4.271  -6.235  27.169  0.00  0.00    +0.040 A 
ATOM      8 CL   UNL     1       4.012  -5.702  29.788  0.00  0.00    -0.083 Cl
ATOM      9  C   UNL     1       5.414  -2.203  26.160  0.00  0.00    -0.009 A 
ATOM     10  C   UNL     1       5.516  -1.154  27.112  0.00  0.00    +0.021 A 
ATOM     11  C   UNL     1       5.890   0.161  26.781  0.00  0.00    +0.055 A 
ATOM     12  C   UNL     1       6.157   0.458  25.451  0.00  0.00    +0.013 A 
ATOM     13  C   UNL     1       6.071  -0.545  24.486  0.00  0.00    +0.009 A 
ATOM     14  C   UNL     1       4.551  -5.869  25.856  0.00  0.00    +0.050 A 
ATOM     15 CL   UNL     1       4.446  -7.141  24.675  0.00  0.00    -0.083 Cl
ATOM     16  C   UNL     1       5.726  -1.879  24.809  0.00  0.00    -0.012 A 
ENDROOT
BRANCH  11  17
ATOM     17  C   UNL     1       5.994   1.207  27.860  0.00  0.00    +0.417 C 
ATOM     18  F   UNL     1       6.592   0.733  28.986  0.00  0.00    -0.166 F 
ATOM     19  F   UNL     1       4.777   1.675  28.253  0.00  0.00    -0.166 F 
ATOM     20  F   UNL     1       6.714   2.306  27.491  0.00  0.00    -0.166 F 
ENDBRANCH  11  17
BRANCH   1  21
ATOM     21  C   UNL     1       6.184  -2.669  22.396  0.00  0.00    +0.146 C 
BRANCH  21  22
ATOM     22  O   UNL     1       5.351  -3.392  21.495  0.00  0.00    -0.387 OA
ATOM     23  H   UNL     1       5.667  -3.214  20.593  0.00  0.00    +0.210 HD
ENDBRANCH  21  22
BRANCH  21  24
ATOM     24  C   UNL     1       7.651  -3.070  22.196  0.00  0.00    +0.051 C 
BRANCH  24  25
ATOM     25  C   UNL     1       8.617  -1.891  22.121  0.00  0.00    +0.087 C 
BRANCH  25  26
ATOM     26  N   UNL     1       9.245  -1.601  23.440  0.00  0.00    -0.302 NA
BRANCH  26  27
ATOM     27  C   UNL     1       9.713  -2.861  24.070  0.00  0.00    +0.084 C 
BRANCH  27  28
ATOM     28  C   UNL     1       9.031  -3.341  25.357  0.00  0.00    +0.015 C 
BRANCH  28  30
ATOM     29  C   UNL     1       8.219  -5.264  26.735  0.00  0.00    +0.004 C 
ATOM     30  C   UNL     1       8.648  -4.821  25.343  0.00  0.00    -0.002 C 
ENDBRANCH  28  30
ENDBRANCH  27  28
ENDBRANCH  26  27
BRANCH  26  31
ATOM     31  C   UNL     1      10.355  -0.639  23.278  0.00  0.00    +0.084 C 
BRANCH  31  32
ATOM     32  C   UNL     1       9.957   0.818  22.978  0.00  0.00    +0.015 C 
BRANCH  32  33
ATOM     33  C   UNL     1      10.269   1.803  24.107  0.00  0.00    -0.002 C 
ATOM     34  C   UNL     1       9.025   2.597  24.485  0.00  0.00    +0.004 C 
ENDBRANCH  32  33
ENDBRANCH  31  32
ENDBRANCH  26  31
ENDBRANCH  25  26
ENDBRANCH  24  25
ENDBRANCH  21  24
ENDBRANCH   1  21
TORSDOF 12
ENDMDL
MODEL 9
REMARK VINA RESULT:      -5.1      3.394      7.226
REMARK  Name = 
REMARK  14 active torsions:
REMARK  status: ('A' for Active; 'I' for Inactive)
REMARK    1  A    between atoms: C_1  and  C_2
REMARK    2  A    between atoms: C_2  and  C_3
REMARK    3  A    between atoms: C_3  and  C_4
REMARK    4  A    between atoms: C_4  and  N_5
REMARK    5  A    between atoms: N_5  and  C_6
REMARK    6  A    between atoms: N_5  and  C_10
REMARK    7  A    between atoms: C_6  and  C_7
REMARK    8  A    between atoms: C_7  and  C_8
REMARK    9  A    between atoms: C_8  and  C_9
REMARK   10  A    between atoms: C_10  and  C_11
REMARK   11  A    between atoms: C_11  and  C_12
REMARK   12  A    between atoms: C_12  and  O_13
REMARK   13  A    between atoms: C_12  and  C_14
REMARK   14  A    between atoms: C_18  and  C_30
REMARK                            x       y       z     vdW  Elec       q    Type
REMARK                         _______ _______ _______ _____ _____    ______ ____
ROOT
ATOM      1  C   UNL     1       8.849  -0.758  25.013  0.00  0.00    -0.011 A 
ATOM      2  C   UNL     1       8.265   0.009  26.038  0.00  0.00    +0.016 A 
ATOM      3  C   UNL     1       6.988  -0.237  26.565  0.00  0.00    +0.001 A 
ATOM      4  C   UNL     1       6.278  -1.361  26.086  0.00  0.00    -0.007 A 
ATOM      5  C   UNL     1       4.983  -1.569  26.632  0.00  0.00    +0.029 A 
ATOM      6  C   UNL     1       4.423  -0.711  27.581  0.00  0.00    +0.043 A 
ATOM      7  C   UNL     1       5.123   0.389  28.038  0.00  0.00    +0.040 A 
ATOM      8 CL   UNL     1       2.844  -1.021  28.191  0.00  0.00    -0.083 Cl
ATOM      9  C   UNL     1       6.884  -2.217  25.090  0.00  0.00    -0.009 A 
ATOM     10  C   UNL     1       6.237  -3.372  24.575  0.00  0.00    +0.021 A 
ATOM     11  C   UNL     1       6.813  -4.221  23.613  0.00  0.00    +0.055 A 
ATOM     12  C   UNL     1       8.090  -3.927  23.152  0.00  0.00    +0.013 A 
ATOM     13  C   UNL     1       8.758  -2.801  23.630  0.00  0.00    +0.009 A 
ATOM     14  C   UNL     1       6.399   0.624  27.534  0.00  0.00    +0.050 A 
ATOM     15 CL   UNL     1       7.206   2.040  28.140  0.00  0.00    -0.083 Cl
ATOM     16  C   UNL     1       8.179  -1.922  24.575  0.00  0.00    -0.012 A 
ENDROOT
BRANCH  11  17
ATOM     17  C   UNL     1       6.044  -5.413  23.106  0.00  0.00    +0.417 C 
ATOM     18  F   UNL     1       4.997  -5.057  22.315  0.00  0.00    -0.166 F 
ATOM     19  F   UNL     1       5.513  -6.159  24.114  0.00  0.00    -0.166 F 
ATOM     20  F   UNL     1       6.796  -6.275  22.362  0.00  0.00    -0.166 F 
ENDBRANCH  11  17
BRANCH   1  21
ATOM     21  C   UNL     1      10.156  -0.276  24.379  0.00  0.00    +0.146 C 
BRANCH  21  22
ATOM     22  O   UNL     1      10.778   0.666  25.247  0.00  0.00    -0.387 OA
ATOM     23  H   UNL     1      11.464   1.129  24.738  0.00  0.00    +0.210 HD
ENDBRANCH  21  22
BRANCH  21  24
ATOM     24  C   UNL     1       9.958   0.339  22.987  0.00  0.00    +0.051 C 
BRANCH  24  25
ATOM     25  C   UNL     1      10.128   1.856  22.944  0.00  0.00    +0.087 C 
BRANCH  25  26
ATOM     26  N   UNL     1       8.896   2.566  23.385  0.00  0.00    -0.302 NA
BRANCH  26  27
ATOM     27  C   UNL     1       9.256   3.772  24.172  0.00  0.00    +0.084 C 
BRANCH  27  28
ATOM     28  C   UNL     1       8.796   5.146  23.670  0.00  0.00    +0.015 C 
BRANCH  28  30
ATOM     29  C   UNL     1      11.268   5.530  23.669  0.00  0.00    +0.004 C 
ATOM     30  C   UNL     1       9.901   6.202  23.649  0.00  0.00    -0.002 C 
ENDBRANCH  28  30
ENDBRANCH  27  28
ENDBRANCH  26  27
BRANCH  26  31
ATOM     31  C   UNL     1       8.062   2.918  22.216  0.00  0.00    +0.084 C 
BRANCH  31  32
ATOM     32  C   UNL     1       6.589   2.471  22.269  0.00  0.00    +0.015 C 
BRANCH  32  33
ATOM     33  C   UNL     1       6.272   1.479  23.390  0.00  0.00    -0.002 C 
ATOM     34  C   UNL     1       5.273   2.080  24.371  0.00  0.00    +0.004 C 
ENDBRANCH  32  33
ENDBRANCH  31  32
ENDBRANCH  26  31
ENDBRANCH  25  26
ENDBRANCH  24  25
ENDBRANCH  21  24
ENDBRANCH   1  21
TORSDOF 12
ENDMDL
