MODEL 1
REMARK VINA RESULT:      -6.3      0.000      0.000
REMARK  Name = 
REMARK  13 active torsions:
REMARK  status: ('A' for Active; 'I' for Inactive)
REMARK    1  A    between atoms: O_1  and  C_2
REMARK    2  A    between atoms: C_2  and  C_4
REMARK    3  A    between atoms: C_4  and  C_5
REMARK    4  A    between atoms: C_5  and  C_6
REMARK    5  A    between atoms: C_6  and  C_7
REMARK    6  A    between atoms: C_7  and  N_8
REMARK    7  A    between atoms: N_8  and  C_9
REMARK    8  A    between atoms: N_8  and  C_19
REMARK    9  A    between atoms: C_9  and  C_10
REMARK   10  A    between atoms: C_13  and  N_16
REMARK   11  A    between atoms: C_19  and  P_20
REMARK   12  A    between atoms: P_20  and  O_21
REMARK   13  A    between atoms: P_20  and  O_22
REMARK                            x       y       z     vdW  Elec       q    Type
REMARK                         _______ _______ _______ _____ _____    ______ ____
ROOT
ATOM      1  N   UNL     1       8.969  -2.891  23.578  0.00  0.00    -0.288 NA
ENDROOT
BRANCH   1   2
ATOM      2  C   UNL     1       7.740  -2.187  24.025  0.00  0.00    +0.085 C 
BRANCH   2   3
ATOM      3  C   UNL     1       6.507  -2.100  23.135  0.00  0.00    +0.016 C 
BRANCH   3   4
ATOM      4  C   UNL     1       5.672  -3.367  22.995  0.00  0.00    +0.012 C 
BRANCH   4   5
ATOM      5  C   UNL     1       6.060  -4.032  21.671  0.00  0.00    +0.120 C 
BRANCH   5   6
ATOM      6  C   UNL     1       6.507  -5.457  21.810  0.00  0.00    +0.305 C 
ATOM      7  O   UNL     1       7.570  -5.824  22.287  0.00  0.00    -0.251 OA
BRANCH   6   8
ATOM      8  O   UNL     1       5.582  -6.328  21.347  0.00  0.00    -0.481 OA
ATOM      9  H   UNL     1       5.506  -6.355  20.371  0.00  0.00    +0.295 HD
ENDBRANCH   6   8
ENDBRANCH   5   6
ENDBRANCH   4   5
ENDBRANCH   3   4
ENDBRANCH   2   3
ENDBRANCH   1   2
BRANCH   1  10
ATOM     10  C   UNL     1       9.626  -3.417  24.813  0.00  0.00    +0.212 C 
BRANCH  10  11
ATOM     11  P   UNL     1       8.589  -4.753  25.515  0.00  0.00    +0.342 P 
ATOM     12  O   UNL     1       7.711  -5.882  26.107  0.00  0.00    -0.257 OA
BRANCH  11  13
ATOM     13  O   UNL     1       9.648  -4.741  26.783  0.00  0.00    -0.323 OA
ATOM     14  H   UNL     1      10.267  -5.493  26.825  0.00  0.00    +0.220 HD
ENDBRANCH  11  13
BRANCH  11  15
ATOM     15  O   UNL     1       9.433  -5.814  24.572  0.00  0.00    -0.323 OA
ATOM     16  H   UNL     1      10.289  -6.186  24.837  0.00  0.00    +0.220 HD
ENDBRANCH  11  15
ENDBRANCH  10  11
ENDBRANCH   1  10
BRANCH   1  17
ATOM     17  C   UNL     1       9.858  -2.075  22.724  0.00  0.00    +0.120 C 
BRANCH  17  18
ATOM     18  C   UNL     1       9.963  -0.570  23.008  0.00  0.00    -0.033 A 
ATOM     19  C   UNL     1       9.701   0.327  21.955  0.00  0.00    +0.011 A 
ATOM     20  C   UNL     1       9.907   1.711  22.092  0.00  0.00    +0.084 A 
ATOM     21  C   UNL     1      10.385   2.221  23.302  0.00  0.00    +0.273 A 
ATOM     22  C   UNL     1      10.633   1.355  24.372  0.00  0.00    +0.084 A 
ATOM     23  C   UNL     1      10.434  -0.027  24.220  0.00  0.00    +0.011 A 
BRANCH  21  24
ATOM     24  N   UNL     1      10.639   3.665  23.431  0.00  0.00    +0.080 N 
ATOM     25  O   UNL     1      11.811   4.055  23.317  0.00  0.00    +0.041 OA
ATOM     26  O   UNL     1       9.670   4.403  23.652  0.00  0.00    -0.576 OA
ENDBRANCH  21  24
ENDBRANCH  17  18
ENDBRANCH   1  17
TORSDOF 13
ENDMDL
MODEL 2
REMARK VINA RESULT:      -6.1      2.692      6.440
REMARK  Name = 
REMARK  13 active torsions:
REMARK  status: ('A' for Active; 'I' for Inactive)
REMARK    1  A    between atoms: O_1  and  C_2
REMARK    2  A    between atoms: C_2  and  C_4
REMARK    3  A    between atoms: C_4  and  C_5
REMARK    4  A    between atoms: C_5  and  C_6
REMARK    5  A    between atoms: C_6  and  C_7
REMARK    6  A    between atoms: C_7  and  N_8
REMARK    7  A    between atoms: N_8  and  C_9
REMARK    8  A    between atoms: N_8  and  C_19
REMARK    9  A    between atoms: C_9  and  C_10
REMARK   10  A    between atoms: C_13  and  N_16
REMARK   11  A    between atoms: C_19  and  P_20
REMARK   12  A    between atoms: P_20  and  O_21
REMARK   13  A    between atoms: P_20  and  O_22
REMARK                            x       y       z     vdW  Elec       q    Type
REMARK                         _______ _______ _______ _____ _____    ______ ____
ROOT
ATOM      1  N   UNL     1       8.844  -1.154  23.196  0.00  0.00    -0.288 NA
ENDROOT
BRANCH   1   2
ATOM      2  C   UNL     1       7.875  -1.882  22.338  0.00  0.00    +0.085 C 
BRANCH   2   3
ATOM      3  C   UNL     1       6.411  -2.019  22.733  0.00  0.00    +0.016 C 
BRANCH   3   4
ATOM      4  C   UNL     1       5.704  -3.302  22.313  0.00  0.00    +0.012 C 
BRANCH   4   5
ATOM      5  C   UNL     1       6.784  -4.344  22.005  0.00  0.00    +0.120 C 
BRANCH   5   6
ATOM      6  C   UNL     1       6.273  -5.562  21.295  0.00  0.00    +0.305 C 
ATOM      7  O   UNL     1       5.983  -5.623  20.109  0.00  0.00    -0.251 OA
BRANCH   6   8
ATOM      8  O   UNL     1       6.166  -6.626  22.121  0.00  0.00    -0.481 OA
ATOM      9  H   UNL     1       6.802  -7.348  21.935  0.00  0.00    +0.295 HD
ENDBRANCH   6   8
ENDBRANCH   5   6
ENDBRANCH   4   5
ENDBRANCH   3   4
ENDBRANCH   2   3
ENDBRANCH   1   2
BRANCH   1  10
ATOM     10  C   UNL     1       9.629  -0.265  22.286  0.00  0.00    +0.212 C 
BRANCH  10  11
ATOM     11  P   UNL     1       8.661   1.253  21.959  0.00  0.00    +0.342 P 
ATOM     12  O   UNL     1       7.842   2.538  21.683  0.00  0.00    -0.257 OA
BRANCH  11  13
ATOM     13  O   UNL     1      10.115   1.955  21.605  0.00  0.00    -0.323 OA
ATOM     14  H   UNL     1      10.475   2.549  22.289  0.00  0.00    +0.220 HD
ENDBRANCH  11  13
BRANCH  11  15
ATOM     15  O   UNL     1       8.698   1.548  23.584  0.00  0.00    -0.323 OA
ATOM     16  H   UNL     1       8.008   2.055  24.041  0.00  0.00    +0.220 HD
ENDBRANCH  11  15
ENDBRANCH  10  11
ENDBRANCH   1  10
BRANCH   1  17
ATOM     17  C   UNL     1       9.677  -2.030  24.047  0.00  0.00    +0.120 C 
BRANCH  17  18
ATOM     18  C   UNL     1       8.972  -2.998  25.009  0.00  0.00    -0.033 A 
ATOM     19  C   UNL     1       9.235  -4.375  24.879  0.00  0.00    +0.011 A 
ATOM     20  C   UNL     1       8.530  -5.337  25.625  0.00  0.00    +0.084 A 
ATOM     21  C   UNL     1       7.541  -4.925  26.521  0.00  0.00    +0.273 A 
ATOM     22  C   UNL     1       7.275  -3.562  26.686  0.00  0.00    +0.084 A 
ATOM     23  C   UNL     1       7.977  -2.611  25.928  0.00  0.00    +0.011 A 
BRANCH  21  24
ATOM     24  N   UNL     1       6.776  -5.935  27.272  0.00  0.00    +0.080 N 
ATOM     25  O   UNL     1       5.858  -6.519  26.677  0.00  0.00    +0.041 OA
ATOM     26  O   UNL     1       7.091  -6.136  28.452  0.00  0.00    -0.576 OA
ENDBRANCH  21  24
ENDBRANCH  17  18
ENDBRANCH   1  17
TORSDOF 13
ENDMDL
MODEL 3
REMARK VINA RESULT:      -6.1      0.641      1.190
REMARK  Name = 
REMARK  13 active torsions:
REMARK  status: ('A' for Active; 'I' for Inactive)
REMARK    1  A    between atoms: O_1  and  C_2
REMARK    2  A    between atoms: C_2  and  C_4
REMARK    3  A    between atoms: C_4  and  C_5
REMARK    4  A    between atoms: C_5  and  C_6
REMARK    5  A    between atoms: C_6  and  C_7
REMARK    6  A    between atoms: C_7  and  N_8
REMARK    7  A    between atoms: N_8  and  C_9
REMARK    8  A    between atoms: N_8  and  C_19
REMARK    9  A    between atoms: C_9  and  C_10
REMARK   10  A    between atoms: C_13  and  N_16
REMARK   11  A    between atoms: C_19  and  P_20
REMARK   12  A    between atoms: P_20  and  O_21
REMARK   13  A    between atoms: P_20  and  O_22
REMARK                            x       y       z     vdW  Elec       q    Type
REMARK                         _______ _______ _______ _____ _____    ______ ____
ROOT
ATOM      1  N   UNL     1       8.948  -2.953  23.844  0.00  0.00    -0.288 NA
ENDROOT
BRANCH   1   2
ATOM      2  C   UNL     1       7.652  -2.278  23.579  0.00  0.00    +0.085 C 
BRANCH   2   3
ATOM      3  C   UNL     1       6.922  -2.454  22.254  0.00  0.00    +0.016 C 
BRANCH   3   4
ATOM      4  C   UNL     1       5.547  -3.110  22.310  0.00  0.00    +0.012 C 
BRANCH   4   5
ATOM      5  C   UNL     1       5.741  -4.546  22.805  0.00  0.00    +0.120 C 
BRANCH   5   6
ATOM      6  C   UNL     1       6.518  -5.417  21.864  0.00  0.00    +0.305 C 
ATOM      7  O   UNL     1       7.546  -6.018  22.138  0.00  0.00    -0.251 OA
BRANCH   6   8
ATOM      8  O   UNL     1       5.948  -5.482  20.640  0.00  0.00    -0.481 OA
ATOM      9  H   UNL     1       6.169  -4.731  20.051  0.00  0.00    +0.295 HD
ENDBRANCH   6   8
ENDBRANCH   5   6
ENDBRANCH   4   5
ENDBRANCH   3   4
ENDBRANCH   2   3
ENDBRANCH   1   2
BRANCH   1  10
ATOM     10  C   UNL     1       9.064  -3.073  25.329  0.00  0.00    +0.212 C 
BRANCH  10  11
ATOM     11  P   UNL     1       8.237  -4.615  25.867  0.00  0.00    +0.342 P 
ATOM     12  O   UNL     1       7.536  -5.919  26.321  0.00  0.00    -0.257 OA
BRANCH  11  13
ATOM     13  O   UNL     1       9.445  -4.726  26.989  0.00  0.00    -0.323 OA
ATOM     14  H   UNL     1      10.353  -4.720  26.635  0.00  0.00    +0.220 HD
ENDBRANCH  11  13
BRANCH  11  15
ATOM     15  O   UNL     1       9.037  -5.392  24.648  0.00  0.00    -0.323 OA
ATOM     16  H   UNL     1       9.683  -6.097  24.811  0.00  0.00    +0.220 HD
ENDBRANCH  11  15
ENDBRANCH  10  11
ENDBRANCH   1  10
BRANCH   1  17
ATOM     17  C   UNL     1      10.111  -2.306  23.199  0.00  0.00    +0.120 C 
BRANCH  17  18
ATOM     18  C   UNL     1      10.177  -0.772  23.183  0.00  0.00    -0.033 A 
ATOM     19  C   UNL     1      10.386  -0.101  24.403  0.00  0.00    +0.011 A 
ATOM     20  C   UNL     1      10.322   1.300  24.498  0.00  0.00    +0.084 A 
ATOM     21  C   UNL     1      10.045   2.057  23.357  0.00  0.00    +0.273 A 
ATOM     22  C   UNL     1       9.855   1.418  22.127  0.00  0.00    +0.084 A 
ATOM     23  C   UNL     1       9.910   0.017  22.047  0.00  0.00    +0.011 A 
BRANCH  21  24
ATOM     24  N   UNL     1       9.939   3.522  23.465  0.00  0.00    +0.080 N 
ATOM     25  O   UNL     1      10.992   4.176  23.449  0.00  0.00    +0.041 OA
ATOM     26  O   UNL     1       8.807   4.011  23.573  0.00  0.00    -0.576 OA
ENDBRANCH  21  24
ENDBRANCH  17  18
ENDBRANCH   1  17
TORSDOF 13
ENDMDL
MODEL 4
REMARK VINA RESULT:      -6.1      3.513      7.224
REMARK  Name = 
REMARK  13 active torsions:
REMARK  status: ('A' for Active; 'I' for Inactive)
REMARK    1  A    between atoms: O_1  and  C_2
REMARK    2  A    between atoms: C_2  and  C_4
REMARK    3  A    between atoms: C_4  and  C_5
REMARK    4  A    between atoms: C_5  and  C_6
REMARK    5  A    between atoms: C_6  and  C_7
REMARK    6  A    between atoms: C_7  and  N_8
REMARK    7  A    between atoms: N_8  and  C_9
REMARK    8  A    between atoms: N_8  and  C_19
REMARK    9  A    between atoms: C_9  and  C_10
REMARK   10  A    between atoms: C_13  and  N_16
REMARK   11  A    between atoms: C_19  and  P_20
REMARK   12  A    between atoms: P_20  and  O_21
REMARK   13  A    between atoms: P_20  and  O_22
REMARK                            x       y       z     vdW  Elec       q    Type
REMARK                         _______ _______ _______ _____ _____    ______ ____
ROOT
ATOM      1  N   UNL     1      10.086   3.839  23.881  0.00  0.00    -0.288 NA
ENDROOT
BRANCH   1   2
ATOM      2  C   UNL     1       8.618   4.063  23.893  0.00  0.00    +0.085 C 
BRANCH   2   3
ATOM      3  C   UNL     1       7.780   3.897  22.633  0.00  0.00    +0.016 C 
BRANCH   3   4
ATOM      4  C   UNL     1       6.850   2.690  22.581  0.00  0.00    +0.012 C 
BRANCH   4   5
ATOM      5  C   UNL     1       6.742   2.130  24.003  0.00  0.00    +0.120 C 
BRANCH   5   6
ATOM      6  C   UNL     1       6.589   0.639  24.063  0.00  0.00    +0.305 C 
ATOM      7  O   UNL     1       6.690  -0.045  25.071  0.00  0.00    -0.251 OA
BRANCH   6   8
ATOM      8  O   UNL     1       6.313   0.106  22.851  0.00  0.00    -0.481 OA
ATOM      9  H   UNL     1       7.027  -0.454  22.484  0.00  0.00    +0.295 HD
ENDBRANCH   6   8
ENDBRANCH   5   6
ENDBRANCH   4   5
ENDBRANCH   3   4
ENDBRANCH   2   3
ENDBRANCH   1   2
BRANCH   1  10
ATOM     10  C   UNL     1      10.718   5.193  23.812  0.00  0.00    +0.212 C 
BRANCH  10  11
ATOM     11  P   UNL     1      12.496   4.999  23.423  0.00  0.00    +0.342 P 
ATOM     12  O   UNL     1      14.000   4.835  23.094  0.00  0.00    -0.257 OA
BRANCH  11  13
ATOM     13  O   UNL     1      12.726   6.312  24.400  0.00  0.00    -0.323 OA
ATOM     14  H   UNL     1      13.027   6.118  25.306  0.00  0.00    +0.220 HD
ENDBRANCH  11  13
BRANCH  11  15
ATOM     15  O   UNL     1      12.216   5.844  22.031  0.00  0.00    -0.323 OA
ATOM     16  H   UNL     1      12.708   6.647  21.797  0.00  0.00    +0.220 HD
ENDBRANCH  11  15
ENDBRANCH  10  11
ENDBRANCH   1  10
BRANCH   1  17
ATOM     17  C   UNL     1      10.548   2.905  22.833  0.00  0.00    +0.120 C 
BRANCH  17  18
ATOM     18  C   UNL     1      10.344   1.399  23.055  0.00  0.00    -0.033 A 
ATOM     19  C   UNL     1       9.934   0.614  21.962  0.00  0.00    +0.011 A 
ATOM     20  C   UNL     1       9.592  -0.742  22.111  0.00  0.00    +0.084 A 
ATOM     21  C   UNL     1       9.659  -1.336  23.374  0.00  0.00    +0.273 A 
ATOM     22  C   UNL     1      10.086  -0.585  24.474  0.00  0.00    +0.084 A 
ATOM     23  C   UNL     1      10.413   0.772  24.315  0.00  0.00    +0.011 A 
BRANCH  21  24
ATOM     24  N   UNL     1       9.264  -2.745  23.536  0.00  0.00    +0.080 N 
ATOM     25  O   UNL     1       8.201  -3.107  23.010  0.00  0.00    +0.041 OA
ATOM     26  O   UNL     1      10.011  -3.482  24.192  0.00  0.00    -0.576 OA
ENDBRANCH  21  24
ENDBRANCH  17  18
ENDBRANCH   1  17
TORSDOF 13
ENDMDL
MODEL 5
REMARK VINA RESULT:      -6.0      1.893      3.790
REMARK  Name = 
REMARK  13 active torsions:
REMARK  status: ('A' for Active; 'I' for Inactive)
REMARK    1  A    between atoms: O_1  and  C_2
REMARK    2  A    between atoms: C_2  and  C_4
REMARK    3  A    between atoms: C_4  and  C_5
REMARK    4  A    between atoms: C_5  and  C_6
REMARK    5  A    between atoms: C_6  and  C_7
REMARK    6  A    between atoms: C_7  and  N_8
REMARK    7  A    between atoms: N_8  and  C_9
REMARK    8  A    between atoms: N_8  and  C_19
REMARK    9  A    between atoms: C_9  and  C_10
REMARK   10  A    between atoms: C_13  and  N_16
REMARK   11  A    between atoms: C_19  and  P_20
REMARK   12  A    between atoms: P_20  and  O_21
REMARK   13  A    between atoms: P_20  and  O_22
REMARK                            x       y       z     vdW  Elec       q    Type
REMARK                         _______ _______ _______ _____ _____    ______ ____
ROOT
ATOM      1  N   UNL     1       7.563  -2.553  23.191  0.00  0.00    -0.288 NA
ENDROOT
BRANCH   1   2
ATOM      2  C   UNL     1       7.997  -3.855  23.759  0.00  0.00    +0.085 C 
BRANCH   2   3
ATOM      3  C   UNL     1       8.997  -3.928  24.905  0.00  0.00    +0.016 C 
BRANCH   3   4
ATOM      4  C   UNL     1       8.428  -3.854  26.317  0.00  0.00    +0.012 C 
BRANCH   4   5
ATOM      5  C   UNL     1       6.970  -4.317  26.252  0.00  0.00    +0.120 C 
BRANCH   5   6
ATOM      6  C   UNL     1       6.735  -5.682  26.825  0.00  0.00    +0.305 C 
ATOM      7  O   UNL     1       5.856  -6.457  26.477  0.00  0.00    -0.251 OA
BRANCH   6   8
ATOM      8  O   UNL     1       7.625  -5.987  27.796  0.00  0.00    -0.481 OA
ATOM      9  H   UNL     1       7.802  -6.946  27.895  0.00  0.00    +0.295 HD
ENDBRANCH   6   8
ENDBRANCH   5   6
ENDBRANCH   4   5
ENDBRANCH   3   4
ENDBRANCH   2   3
ENDBRANCH   1   2
BRANCH   1  10
ATOM     10  C   UNL     1       6.175  -2.760  22.676  0.00  0.00    +0.212 C 
BRANCH  10  11
ATOM     11  P   UNL     1       5.978  -4.512  22.185  0.00  0.00    +0.342 P 
ATOM     12  O   UNL     1       5.811  -5.994  21.771  0.00  0.00    -0.257 OA
BRANCH  11  13
ATOM     13  O   UNL     1       5.770  -3.931  20.652  0.00  0.00    -0.323 OA
ATOM     14  H   UNL     1       4.864  -3.652  20.425  0.00  0.00    +0.220 HD
ENDBRANCH  11  13
BRANCH  11  15
ATOM     15  O   UNL     1       4.397  -4.396  22.649  0.00  0.00    -0.323 OA
ATOM     16  H   UNL     1       3.691  -4.119  22.043  0.00  0.00    +0.220 HD
ENDBRANCH  11  15
ENDBRANCH  10  11
ENDBRANCH   1  10
BRANCH   1  17
ATOM     17  C   UNL     1       8.497  -1.985  22.195  0.00  0.00    +0.120 C 
BRANCH  17  18
ATOM     18  C   UNL     1       9.123  -0.613  22.481  0.00  0.00    -0.033 A 
ATOM     19  C   UNL     1       9.332  -0.242  23.823  0.00  0.00    +0.011 A 
ATOM     20  C   UNL     1       9.770   1.047  24.175  0.00  0.00    +0.084 A 
ATOM     21  C   UNL     1      10.009   1.992  23.174  0.00  0.00    +0.273 A 
ATOM     22  C   UNL     1       9.832   1.643  21.832  0.00  0.00    +0.084 A 
ATOM     23  C   UNL     1       9.382   0.356  21.492  0.00  0.00    +0.011 A 
BRANCH  21  24
ATOM     24  N   UNL     1      10.430   3.353  23.547  0.00  0.00    +0.080 N 
ATOM     25  O   UNL     1       9.571   4.108  24.028  0.00  0.00    +0.041 OA
ATOM     26  O   UNL     1      11.612   3.664  23.351  0.00  0.00    -0.576 OA
ENDBRANCH  21  24
ENDBRANCH  17  18
ENDBRANCH   1  17
TORSDOF 13
ENDMDL
MODEL 6
REMARK VINA RESULT:      -5.9      3.025      7.102
REMARK  Name = 
REMARK  13 active torsions:
REMARK  status: ('A' for Active; 'I' for Inactive)
REMARK    1  A    between atoms: O_1  and  C_2
REMARK    2  A    between atoms: C_2  and  C_4
REMARK    3  A    between atoms: C_4  and  C_5
REMARK    4  A    between atoms: C_5  and  C_6
REMARK    5  A    between atoms: C_6  and  C_7
REMARK    6  A    between atoms: C_7  and  N_8
REMARK    7  A    between atoms: N_8  and  C_9
REMARK    8  A    between atoms: N_8  and  C_19
REMARK    9  A    between atoms: C_9  and  C_10
REMARK   10  A    between atoms: C_13  and  N_16
REMARK   11  A    between atoms: C_19  and  P_20
REMARK   12  A    between atoms: P_20  and  O_21
REMARK   13  A    between atoms: P_20  and  O_22
REMARK                            x       y       z     vdW  Elec       q    Type
REMARK                         _______ _______ _______ _____ _____    ______ ____
ROOT
ATOM      1  N   UNL     1       9.350  -2.676  22.893  0.00  0.00    -0.288 NA
ENDROOT
BRANCH   1   2
ATOM      2  C   UNL     1       9.270  -2.887  24.361  0.00  0.00    +0.085 C 
BRANCH   2   3
ATOM      3  C   UNL     1       9.568  -4.245  24.985  0.00  0.00    +0.016 C 
BRANCH   3   4
ATOM      4  C   UNL     1       8.945  -4.525  26.347  0.00  0.00    +0.012 C 
BRANCH   4   5
ATOM      5  C   UNL     1       7.439  -4.708  26.137  0.00  0.00    +0.120 C 
BRANCH   5   6
ATOM      6  C   UNL     1       6.812  -5.717  27.052  0.00  0.00    +0.305 C 
ATOM      7  O   UNL     1       7.111  -5.896  28.223  0.00  0.00    -0.251 OA
BRANCH   6   8
ATOM      8  O   UNL     1       5.845  -6.432  26.435  0.00  0.00    -0.481 OA
ATOM      9  H   UNL     1       5.870  -7.393  26.625  0.00  0.00    +0.295 HD
ENDBRANCH   6   8
ENDBRANCH   5   6
ENDBRANCH   4   5
ENDBRANCH   3   4
ENDBRANCH   2   3
ENDBRANCH   1   2
BRANCH   1  10
ATOM     10  C   UNL     1      10.303  -1.543  22.683  0.00  0.00    +0.212 C 
BRANCH  10  11
ATOM     11  P   UNL     1       9.503   0.013  23.221  0.00  0.00    +0.342 P 
ATOM     12  O   UNL     1       8.826   1.329  23.676  0.00  0.00    -0.257 OA
BRANCH  11  13
ATOM     13  O   UNL     1       9.956   0.610  21.748  0.00  0.00    -0.323 OA
ATOM     14  H   UNL     1      10.525   0.028  21.212  0.00  0.00    +0.220 HD
ENDBRANCH  11  13
BRANCH  11  15
ATOM     15  O   UNL     1      10.904   0.382  24.014  0.00  0.00    -0.323 OA
ATOM     16  H   UNL     1      10.917   0.788  24.896  0.00  0.00    +0.220 HD
ENDBRANCH  11  15
ENDBRANCH  10  11
ENDBRANCH   1  10
BRANCH   1  17
ATOM     17  C   UNL     1       8.039  -2.491  22.235  0.00  0.00    +0.120 C 
BRANCH  17  18
ATOM     18  C   UNL     1       6.962  -3.565  22.439  0.00  0.00    -0.033 A 
ATOM     19  C   UNL     1       5.727  -3.174  22.990  0.00  0.00    +0.011 A 
ATOM     20  C   UNL     1       4.740  -4.114  23.336  0.00  0.00    +0.084 A 
ATOM     21  C   UNL     1       4.981  -5.475  23.132  0.00  0.00    +0.273 A 
ATOM     22  C   UNL     1       6.191  -5.890  22.566  0.00  0.00    +0.084 A 
ATOM     23  C   UNL     1       7.174  -4.943  22.234  0.00  0.00    +0.011 A 
BRANCH  21  24
ATOM     24  N   UNL     1       3.963  -6.461  23.532  0.00  0.00    +0.080 N 
ATOM     25  O   UNL     1       4.333  -7.418  24.228  0.00  0.00    +0.041 OA
ATOM     26  O   UNL     1       2.802  -6.279  23.143  0.00  0.00    -0.576 OA
ENDBRANCH  21  24
ENDBRANCH  17  18
ENDBRANCH   1  17
TORSDOF 13
ENDMDL
MODEL 7
REMARK VINA RESULT:      -5.8      1.844      4.104
REMARK  Name = 
REMARK  13 active torsions:
REMARK  status: ('A' for Active; 'I' for Inactive)
REMARK    1  A    between atoms: O_1  and  C_2
REMARK    2  A    between atoms: C_2  and  C_4
REMARK    3  A    between atoms: C_4  and  C_5
REMARK    4  A    between atoms: C_5  and  C_6
REMARK    5  A    between atoms: C_6  and  C_7
REMARK    6  A    between atoms: C_7  and  N_8
REMARK    7  A    between atoms: N_8  and  C_9
REMARK    8  A    between atoms: N_8  and  C_19
REMARK    9  A    between atoms: C_9  and  C_10
REMARK   10  A    between atoms: C_13  and  N_16
REMARK   11  A    between atoms: C_19  and  P_20
REMARK   12  A    between atoms: P_20  and  O_21
REMARK   13  A    between atoms: P_20  and  O_22
REMARK                            x       y       z     vdW  Elec       q    Type
REMARK                         _______ _______ _______ _____ _____    ______ ____
ROOT
ATOM      1  N   UNL     1       8.385  -2.650  23.327  0.00  0.00    -0.288 NA
ENDROOT
BRANCH   1   2
ATOM      2  C   UNL     1       7.634  -1.891  24.359  0.00  0.00    +0.085 C 
BRANCH   2   3
ATOM      3  C   UNL     1       6.436  -1.026  23.992  0.00  0.00    +0.016 C 
BRANCH   3   4
ATOM      4  C   UNL     1       6.611   0.482  24.129  0.00  0.00    +0.012 C 
BRANCH   4   5
ATOM      5  C   UNL     1       7.290   0.748  25.476  0.00  0.00    +0.120 C 
BRANCH   5   6
ATOM      6  C   UNL     1       7.040   2.120  26.026  0.00  0.00    +0.305 C 
ATOM      7  O   UNL     1       6.004   2.495  26.556  0.00  0.00    -0.251 OA
BRANCH   6   8
ATOM      8  O   UNL     1       8.113   2.930  25.882  0.00  0.00    -0.481 OA
ATOM      9  H   UNL     1       7.904   3.817  25.525  0.00  0.00    +0.295 HD
ENDBRANCH   6   8
ENDBRANCH   5   6
ENDBRANCH   4   5
ENDBRANCH   3   4
ENDBRANCH   2   3
ENDBRANCH   1   2
BRANCH   1  10
ATOM     10  C   UNL     1       8.231  -4.097  23.673  0.00  0.00    +0.212 C 
BRANCH  10  11
ATOM     11  P   UNL     1       8.705  -4.343  25.423  0.00  0.00    +0.342 P 
ATOM     12  O   UNL     1       9.106  -4.551  26.904  0.00  0.00    -0.257 OA
BRANCH  11  13
ATOM     13  O   UNL     1       9.784  -5.454  24.846  0.00  0.00    -0.323 OA
ATOM     14  H   UNL     1      10.608  -5.549  25.357  0.00  0.00    +0.220 HD
ENDBRANCH  11  13
BRANCH  11  15
ATOM     15  O   UNL     1       7.422  -5.375  25.557  0.00  0.00    -0.323 OA
ATOM     16  H   UNL     1       7.157  -5.978  24.845  0.00  0.00    +0.220 HD
ENDBRANCH  11  15
ENDBRANCH  10  11
ENDBRANCH   1  10
BRANCH   1  17
ATOM     17  C   UNL     1       9.789  -2.218  23.159  0.00  0.00    +0.120 C 
BRANCH  17  18
ATOM     18  C   UNL     1      10.090  -0.713  23.120  0.00  0.00    -0.033 A 
ATOM     19  C   UNL     1      10.640  -0.114  24.268  0.00  0.00    +0.011 A 
ATOM     20  C   UNL     1      10.817   1.278  24.365  0.00  0.00    +0.084 A 
ATOM     21  C   UNL     1      10.440   2.097  23.298  0.00  0.00    +0.273 A 
ATOM     22  C   UNL     1       9.911   1.526  22.136  0.00  0.00    +0.084 A 
ATOM     23  C   UNL     1       9.729   0.136  22.055  0.00  0.00    +0.011 A 
BRANCH  21  24
ATOM     24  N   UNL     1      10.588   3.558  23.416  0.00  0.00    +0.080 N 
ATOM     25  O   UNL     1       9.563   4.224  23.626  0.00  0.00    +0.041 OA
ATOM     26  O   UNL     1      11.724   4.033  23.292  0.00  0.00    -0.576 OA
ENDBRANCH  21  24
ENDBRANCH  17  18
ENDBRANCH   1  17
TORSDOF 13
ENDMDL
MODEL 8
REMARK VINA RESULT:      -5.8      2.626      7.195
REMARK  Name = 
REMARK  13 active torsions:
REMARK  status: ('A' for Active; 'I' for Inactive)
REMARK    1  A    between atoms: O_1  and  C_2
REMARK    2  A    between atoms: C_2  and  C_4
REMARK    3  A    between atoms: C_4  and  C_5
REMARK    4  A    between atoms: C_5  and  C_6
REMARK    5  A    between atoms: C_6  and  C_7
REMARK    6  A    between atoms: C_7  and  N_8
REMARK    7  A    between atoms: N_8  and  C_9
REMARK    8  A    between atoms: N_8  and  C_19
REMARK    9  A    between atoms: C_9  and  C_10
REMARK   10  A    between atoms: C_13  and  N_16
REMARK   11  A    between atoms: C_19  and  P_20
REMARK   12  A    between atoms: P_20  and  O_21
REMARK   13  A    between atoms: P_20  and  O_22
REMARK                            x       y       z     vdW  Elec       q    Type
REMARK                         _______ _______ _______ _____ _____    ______ ____
ROOT
ATOM      1  N   UNL     1       8.225  -0.831  22.900  0.00  0.00    -0.288 NA
ENDROOT
BRANCH   1   2
ATOM      2  C   UNL     1       8.706  -0.351  24.221  0.00  0.00    +0.085 C 
BRANCH   2   3
ATOM      3  C   UNL     1       8.798  -1.286  25.420  0.00  0.00    +0.016 C 
BRANCH   3   4
ATOM      4  C   UNL     1       9.325  -2.691  25.155  0.00  0.00    +0.012 C 
BRANCH   4   5
ATOM      5  C   UNL     1       8.654  -3.632  26.159  0.00  0.00    +0.120 C 
BRANCH   5   6
ATOM      6  C   UNL     1       8.897  -5.087  25.890  0.00  0.00    +0.305 C 
ATOM      7  O   UNL     1       9.558  -5.538  24.965  0.00  0.00    -0.251 OA
BRANCH   6   8
ATOM      8  O   UNL     1       8.299  -5.882  26.806  0.00  0.00    -0.481 OA
ATOM      9  H   UNL     1       7.922  -6.708  26.439  0.00  0.00    +0.295 HD
ENDBRANCH   6   8
ENDBRANCH   5   6
ENDBRANCH   4   5
ENDBRANCH   3   4
ENDBRANCH   2   3
ENDBRANCH   1   2
BRANCH   1  10
ATOM     10  C   UNL     1       8.672   0.181  21.895  0.00  0.00    +0.212 C 
BRANCH  10  11
ATOM     11  P   UNL     1       8.973   1.772  22.748  0.00  0.00    +0.342 P 
ATOM     12  O   UNL     1       9.227   3.118  23.470  0.00  0.00    -0.257 OA
BRANCH  11  13
ATOM     13  O   UNL     1       7.636   2.315  21.941  0.00  0.00    -0.323 OA
ATOM     14  H   UNL     1       7.741   2.431  20.979  0.00  0.00    +0.220 HD
ENDBRANCH  11  13
BRANCH  11  15
ATOM     15  O   UNL     1      10.067   2.126  21.563  0.00  0.00    -0.323 OA
ATOM     16  H   UNL     1       9.807   2.310  20.646  0.00  0.00    +0.220 HD
ENDBRANCH  11  15
ENDBRANCH  10  11
ENDBRANCH   1  10
BRANCH   1  17
ATOM     17  C   UNL     1       6.777  -1.127  22.854  0.00  0.00    +0.120 C 
BRANCH  17  18
ATOM     18  C   UNL     1       6.303  -2.526  23.273  0.00  0.00    -0.033 A 
ATOM     19  C   UNL     1       5.453  -2.635  24.389  0.00  0.00    +0.011 A 
ATOM     20  C   UNL     1       5.085  -3.884  24.922  0.00  0.00    +0.084 A 
ATOM     21  C   UNL     1       5.572  -5.054  24.334  0.00  0.00    +0.273 A 
ATOM     22  C   UNL     1       6.400  -4.975  23.209  0.00  0.00    +0.084 A 
ATOM     23  C   UNL     1       6.770  -3.722  22.694  0.00  0.00    +0.011 A 
BRANCH  21  24
ATOM     24  N   UNL     1       5.218  -6.360  24.915  0.00  0.00    +0.080 N 
ATOM     25  O   UNL     1       5.518  -6.559  26.102  0.00  0.00    +0.041 OA
ATOM     26  O   UNL     1       4.651  -7.182  24.184  0.00  0.00    -0.576 OA
ENDBRANCH  21  24
ENDBRANCH  17  18
ENDBRANCH   1  17
TORSDOF 13
ENDMDL
MODEL 9
REMARK VINA RESULT:      -5.8      2.933      4.090
REMARK  Name = 
REMARK  13 active torsions:
REMARK  status: ('A' for Active; 'I' for Inactive)
REMARK    1  A    between atoms: O_1  and  C_2
REMARK    2  A    between atoms: C_2  and  C_4
REMARK    3  A    between atoms: C_4  and  C_5
REMARK    4  A    between atoms: C_5  and  C_6
REMARK    5  A    between atoms: C_6  and  C_7
REMARK    6  A    between atoms: C_7  and  N_8
REMARK    7  A    between atoms: N_8  and  C_9
REMARK    8  A    between atoms: N_8  and  C_19
REMARK    9  A    between atoms: C_9  and  C_10
REMARK   10  A    between atoms: C_13  and  N_16
REMARK   11  A    between atoms: C_19  and  P_20
REMARK   12  A    between atoms: P_20  and  O_21
REMARK   13  A    between atoms: P_20  and  O_22
REMARK                            x       y       z     vdW  Elec       q    Type
REMARK                         _______ _______ _______ _____ _____    ______ ____
ROOT
ATOM      1  N   UNL     1       7.013  -3.999  24.535  0.00  0.00    -0.288 NA
ENDROOT
BRANCH   1   2
ATOM      2  C   UNL     1       6.779  -5.289  25.232  0.00  0.00    +0.085 C 
BRANCH   2   3
ATOM      3  C   UNL     1       6.040  -5.350  26.563  0.00  0.00    +0.016 C 
BRANCH   3   4
ATOM      4  C   UNL     1       5.057  -6.500  26.749  0.00  0.00    +0.012 C 
BRANCH   4   5
ATOM      5  C   UNL     1       3.919  -6.302  25.743  0.00  0.00    +0.120 C 
BRANCH   5   6
ATOM      6  C   UNL     1       3.672  -7.487  24.858  0.00  0.00    +0.305 C 
ATOM      7  O   UNL     1       2.817  -8.341  25.039  0.00  0.00    -0.251 OA
BRANCH   6   8
ATOM      8  O   UNL     1       4.513  -7.517  23.800  0.00  0.00    -0.481 OA
ATOM      9  H   UNL     1       5.459  -7.603  24.038  0.00  0.00    +0.295 HD
ENDBRANCH   6   8
ENDBRANCH   5   6
ENDBRANCH   4   5
ENDBRANCH   3   4
ENDBRANCH   2   3
ENDBRANCH   1   2
BRANCH   1  10
ATOM     10  C   UNL     1       5.770  -3.711  23.755  0.00  0.00    +0.212 C 
BRANCH  10  11
ATOM     11  P   UNL     1       5.851  -4.604  22.159  0.00  0.00    +0.342 P 
ATOM     12  O   UNL     1       5.919  -5.360  20.810  0.00  0.00    -0.257 OA
BRANCH  11  13
ATOM     13  O   UNL     1       5.484  -3.149  21.468  0.00  0.00    -0.323 OA
ATOM     14  H   UNL     1       5.486  -3.131  20.493  0.00  0.00    +0.220 HD
ENDBRANCH  11  13
BRANCH  11  15
ATOM     15  O   UNL     1       4.293  -5.086  22.426  0.00  0.00    -0.323 OA
ATOM     16  H   UNL     1       4.070  -5.906  22.893  0.00  0.00    +0.220 HD
ENDBRANCH  11  15
ENDBRANCH  10  11
ENDBRANCH   1  10
BRANCH   1  17
ATOM     17  C   UNL     1       8.252  -3.961  23.730  0.00  0.00    +0.120 C 
BRANCH  17  18
ATOM     18  C   UNL     1       8.900  -2.597  23.450  0.00  0.00    -0.033 A 
ATOM     19  C   UNL     1       9.383  -1.853  24.542  0.00  0.00    +0.011 A 
ATOM     20  C   UNL     1       9.863  -0.540  24.389  0.00  0.00    +0.084 A 
ATOM     21  C   UNL     1       9.866   0.050  23.123  0.00  0.00    +0.273 A 
ATOM     22  C   UNL     1       9.413  -0.675  22.016  0.00  0.00    +0.084 A 
ATOM     23  C   UNL     1       8.924  -1.982  22.183  0.00  0.00    +0.011 A 
BRANCH  21  24
ATOM     24  N   UNL     1      10.332   1.439  22.970  0.00  0.00    +0.080 N 
ATOM     25  O   UNL     1      10.843   1.985  23.959  0.00  0.00    +0.041 OA
ATOM     26  O   UNL     1      10.180   1.980  21.867  0.00  0.00    -0.576 OA
ENDBRANCH  21  24
ENDBRANCH  17  18
ENDBRANCH   1  17
TORSDOF 13
ENDMDL
