MODEL 1
REMARK VINA RESULT:      -7.5      0.000      0.000
REMARK  Name = 
REMARK  5 active torsions:
REMARK  status: ('A' for Active; 'I' for Inactive)
REMARK    1  A    between atoms: N_1  and  S_2
REMARK    2  A    between atoms: S_2  and  C_5
REMARK    3  A    between atoms: C_8  and  C_11
REMARK    4  A    between atoms: N_13  and  C_14
REMARK    5  A    between atoms: C_14  and  C_15
REMARK                            x       y       z     vdW  Elec       q    Type
REMARK                         _______ _______ _______ _____ _____    ______ ____
ROOT
ATOM      1  C   UNL     1       8.903  -4.361  24.344  0.00  0.00    +0.244 C 
ATOM      2  N   UNL     1       8.992  -3.110  23.774  0.00  0.00    -0.307 N 
ATOM      3  H   UNL     1       8.155  -2.628  23.477  0.00  0.00    +0.149 HD
ATOM      4  O   UNL     1       9.846  -4.940  24.869  0.00  0.00    -0.270 OA
ENDROOT
BRANCH   1   8
ATOM      5  C   UNL     1       4.994  -6.091  24.401  0.00  0.00    +0.105 A 
ATOM      6  C   UNL     1       5.619  -5.859  23.172  0.00  0.00    +0.029 A 
ATOM      7  C   UNL     1       6.899  -5.304  23.139  0.00  0.00    +0.015 A 
ATOM      8  C   UNL     1       7.554  -4.987  24.337  0.00  0.00    +0.037 A 
ATOM      9  C   UNL     1       6.940  -5.273  25.567  0.00  0.00    +0.015 A 
ATOM     10  C   UNL     1       5.656  -5.825  25.603  0.00  0.00    +0.029 A 
BRANCH   5  11
ATOM     11  S   UNL     1       3.350  -6.740  24.415  0.00  0.00    +0.056 S 
ATOM     12  O   UNL     1       3.394  -8.133  24.793  0.00  0.00    -0.153 OA
ATOM     13  O   UNL     1       2.460  -5.792  25.048  0.00  0.00    -0.153 OA
BRANCH  11  14
ATOM     14  N   UNL     1       2.977  -6.719  22.779  0.00  0.00    -0.204 NA
ATOM     15  H   UNL     1       1.970  -6.798  22.642  0.00  0.00    +0.144 HD
ATOM     16  H   UNL     1       3.392  -5.896  22.341  0.00  0.00    +0.144 HD
ENDBRANCH  11  14
ENDBRANCH   5  11
ENDBRANCH   1   8
BRANCH   2  17
ATOM     17  C   UNL     1      10.222  -2.350  23.773  0.00  0.00    +0.142 C 
BRANCH  17  18
ATOM     18  C   UNL     1      10.021  -1.004  23.138  0.00  0.00    +0.008 A 
ATOM     19  C   UNL     1      10.384   0.164  23.813  0.00  0.00    +0.163 A 
ATOM     20  F   UNL     1      10.923   0.085  25.038  0.00  0.00    -0.202 F 
ATOM     21  C   UNL     1      10.186   1.413  23.229  0.00  0.00    +0.159 A 
ATOM     22  F   UNL     1      10.541   2.526  23.886  0.00  0.00    -0.202 F 
ATOM     23  C   UNL     1       9.617   1.520  21.965  0.00  0.00    +0.041 A 
ATOM     24  C   UNL     1       9.239   0.364  21.282  0.00  0.00    +0.003 A 
ATOM     25  C   UNL     1       9.435  -0.891  21.868  0.00  0.00    +0.008 A 
ENDBRANCH  17  18
ENDBRANCH   2  17
TORSDOF 5
ENDMDL
MODEL 2
REMARK VINA RESULT:      -7.3      2.451      2.669
REMARK  Name = 
REMARK  5 active torsions:
REMARK  status: ('A' for Active; 'I' for Inactive)
REMARK    1  A    between atoms: N_1  and  S_2
REMARK    2  A    between atoms: S_2  and  C_5
REMARK    3  A    between atoms: C_8  and  C_11
REMARK    4  A    between atoms: N_13  and  C_14
REMARK    5  A    between atoms: C_14  and  C_15
REMARK                            x       y       z     vdW  Elec       q    Type
REMARK                         _______ _______ _______ _____ _____    ______ ____
ROOT
ATOM      1  C   UNL     1       8.529  -3.101  23.441  0.00  0.00    +0.244 C 
ATOM      2  N   UNL     1       9.706  -2.450  23.736  0.00  0.00    -0.307 N 
ATOM      3  H   UNL     1      10.142  -2.575  24.639  0.00  0.00    +0.149 HD
ATOM      4  O   UNL     1       8.024  -3.127  22.325  0.00  0.00    -0.270 OA
ENDROOT
BRANCH   1   8
ATOM      5  C   UNL     1       6.744  -5.157  26.738  0.00  0.00    +0.105 A 
ATOM      6  C   UNL     1       5.981  -4.914  25.591  0.00  0.00    +0.029 A 
ATOM      7  C   UNL     1       6.555  -4.253  24.503  0.00  0.00    +0.015 A 
ATOM      8  C   UNL     1       7.893  -3.841  24.564  0.00  0.00    +0.037 A 
ATOM      9  C   UNL     1       8.666  -4.136  25.698  0.00  0.00    +0.015 A 
ATOM     10  C   UNL     1       8.092  -4.794  26.790  0.00  0.00    +0.029 A 
BRANCH   5  11
ATOM     11  S   UNL     1       5.979  -5.943  28.124  0.00  0.00    +0.056 S 
ATOM     12  O   UNL     1       6.987  -6.633  28.892  0.00  0.00    -0.153 OA
ATOM     13  O   UNL     1       5.025  -5.040  28.728  0.00  0.00    -0.153 OA
BRANCH  11  14
ATOM     14  N   UNL     1       5.080  -7.140  27.364  0.00  0.00    -0.204 NA
ATOM     15  H   UNL     1       5.492  -7.378  26.463  0.00  0.00    +0.144 HD
ATOM     16  H   UNL     1       4.966  -7.937  27.992  0.00  0.00    +0.144 HD
ENDBRANCH  11  14
ENDBRANCH   5  11
ENDBRANCH   1   8
BRANCH   2  17
ATOM     17  C   UNL     1      10.473  -1.752  22.729  0.00  0.00    +0.142 C 
BRANCH  17  18
ATOM     18  C   UNL     1      10.002  -0.334  22.581  0.00  0.00    +0.008 A 
ATOM     19  C   UNL     1      10.303   0.623  23.553  0.00  0.00    +0.163 A 
ATOM     20  F   UNL     1      11.026   0.275  24.628  0.00  0.00    -0.202 F 
ATOM     21  C   UNL     1       9.855   1.935  23.422  0.00  0.00    +0.159 A 
ATOM     22  F   UNL     1      10.153   2.844  24.361  0.00  0.00    -0.202 F 
ATOM     23  C   UNL     1       9.094   2.316  22.323  0.00  0.00    +0.041 A 
ATOM     24  C   UNL     1       8.774   1.370  21.348  0.00  0.00    +0.003 A 
ATOM     25  C   UNL     1       9.222   0.051  21.480  0.00  0.00    +0.008 A 
ENDBRANCH  17  18
ENDBRANCH   2  17
TORSDOF 5
ENDMDL
MODEL 3
REMARK VINA RESULT:      -7.2      2.735      3.113
REMARK  Name = 
REMARK  5 active torsions:
REMARK  status: ('A' for Active; 'I' for Inactive)
REMARK    1  A    between atoms: N_1  and  S_2
REMARK    2  A    between atoms: S_2  and  C_5
REMARK    3  A    between atoms: C_8  and  C_11
REMARK    4  A    between atoms: N_13  and  C_14
REMARK    5  A    between atoms: C_14  and  C_15
REMARK                            x       y       z     vdW  Elec       q    Type
REMARK                         _______ _______ _______ _____ _____    ______ ____
ROOT
ATOM      1  C   UNL     1       8.531  -3.134  23.643  0.00  0.00    +0.244 C 
ATOM      2  N   UNL     1       9.761  -2.583  23.926  0.00  0.00    -0.307 N 
ATOM      3  H   UNL     1      10.220  -2.793  24.801  0.00  0.00    +0.149 HD
ATOM      4  O   UNL     1       7.985  -3.057  22.549  0.00  0.00    -0.270 OA
ENDROOT
BRANCH   1   8
ATOM      5  C   UNL     1       6.720  -5.252  26.885  0.00  0.00    +0.105 A 
ATOM      6  C   UNL     1       5.980  -5.027  25.719  0.00  0.00    +0.029 A 
ATOM      7  C   UNL     1       6.563  -4.345  24.649  0.00  0.00    +0.015 A 
ATOM      8  C   UNL     1       7.887  -3.896  24.746  0.00  0.00    +0.037 A 
ATOM      9  C   UNL     1       8.638  -4.174  25.899  0.00  0.00    +0.015 A 
ATOM     10  C   UNL     1       8.055  -4.851  26.974  0.00  0.00    +0.029 A 
BRANCH   5  11
ATOM     11  S   UNL     1       5.941  -6.065  28.248  0.00  0.00    +0.056 S 
ATOM     12  O   UNL     1       6.937  -6.794  28.996  0.00  0.00    -0.153 OA
ATOM     13  O   UNL     1       5.002  -5.164  28.878  0.00  0.00    -0.153 OA
BRANCH  11  14
ATOM     14  N   UNL     1       5.023  -7.225  27.454  0.00  0.00    -0.204 NA
ATOM     15  H   UNL     1       4.565  -6.821  26.639  0.00  0.00    +0.144 HD
ATOM     16  H   UNL     1       5.600  -8.039  27.245  0.00  0.00    +0.144 HD
ENDBRANCH  11  14
ENDBRANCH   5  11
ENDBRANCH   1   8
BRANCH   2  17
ATOM     17  C   UNL     1      10.537  -1.879  22.930  0.00  0.00    +0.142 C 
BRANCH  17  18
ATOM     18  C   UNL     1      10.295  -0.399  23.008  0.00  0.00    +0.008 A 
ATOM     19  C   UNL     1       9.569   0.259  22.012  0.00  0.00    +0.163 A 
ATOM     20  F   UNL     1       9.078  -0.437  20.977  0.00  0.00    -0.202 F 
ATOM     21  C   UNL     1       9.355   1.633  22.079  0.00  0.00    +0.159 A 
ATOM     22  F   UNL     1       8.655   2.252  21.118  0.00  0.00    -0.202 F 
ATOM     23  C   UNL     1       9.866   2.378  23.136  0.00  0.00    +0.041 A 
ATOM     24  C   UNL     1      10.602   1.739  24.134  0.00  0.00    +0.003 A 
ATOM     25  C   UNL     1      10.820   0.358  24.067  0.00  0.00    +0.008 A 
ENDBRANCH  17  18
ENDBRANCH   2  17
TORSDOF 5
ENDMDL
MODEL 4
REMARK VINA RESULT:      -7.1      1.669      2.337
REMARK  Name = 
REMARK  5 active torsions:
REMARK  status: ('A' for Active; 'I' for Inactive)
REMARK    1  A    between atoms: N_1  and  S_2
REMARK    2  A    between atoms: S_2  and  C_5
REMARK    3  A    between atoms: C_8  and  C_11
REMARK    4  A    between atoms: N_13  and  C_14
REMARK    5  A    between atoms: C_14  and  C_15
REMARK                            x       y       z     vdW  Elec       q    Type
REMARK                         _______ _______ _______ _____ _____    ______ ____
ROOT
ATOM      1  C   UNL     1       9.081  -4.235  24.505  0.00  0.00    +0.244 C 
ATOM      2  N   UNL     1       9.088  -3.025  23.849  0.00  0.00    -0.307 N 
ATOM      3  H   UNL     1       8.221  -2.535  23.679  0.00  0.00    +0.149 HD
ATOM      4  O   UNL     1      10.092  -4.811  24.886  0.00  0.00    -0.270 OA
ENDROOT
BRANCH   1   8
ATOM      5  C   UNL     1       5.240  -5.970  25.223  0.00  0.00    +0.105 A 
ATOM      6  C   UNL     1       6.132  -5.823  26.290  0.00  0.00    +0.029 A 
ATOM      7  C   UNL     1       7.386  -5.249  26.071  0.00  0.00    +0.015 A 
ATOM      8  C   UNL     1       7.742  -4.818  24.786  0.00  0.00    +0.037 A 
ATOM      9  C   UNL     1       6.819  -4.921  23.733  0.00  0.00    +0.015 A 
ATOM     10  C   UNL     1       5.565  -5.500  23.948  0.00  0.00    +0.029 A 
BRANCH   5  11
ATOM     11  S   UNL     1       3.682  -6.754  25.513  0.00  0.00    +0.056 S 
ATOM     12  O   UNL     1       2.640  -5.755  25.493  0.00  0.00    -0.153 OA
ATOM     13  O   UNL     1       3.602  -7.974  24.742  0.00  0.00    -0.153 OA
BRANCH  11  14
ATOM     14  N   UNL     1       3.844  -7.218  27.117  0.00  0.00    -0.204 NA
ATOM     15  H   UNL     1       3.497  -8.166  27.251  0.00  0.00    +0.144 HD
ATOM     16  H   UNL     1       4.809  -7.083  27.420  0.00  0.00    +0.144 HD
ENDBRANCH  11  14
ENDBRANCH   5  11
ENDBRANCH   1   8
BRANCH   2  17
ATOM     17  C   UNL     1      10.312  -2.305  23.574  0.00  0.00    +0.142 C 
BRANCH  17  18
ATOM     18  C   UNL     1      10.039  -0.845  23.361  0.00  0.00    +0.008 A 
ATOM     19  C   UNL     1       9.463  -0.392  22.171  0.00  0.00    +0.163 A 
ATOM     20  F   UNL     1       9.143  -1.271  21.210  0.00  0.00    -0.202 F 
ATOM     21  C   UNL     1       9.221   0.964  21.969  0.00  0.00    +0.159 A 
ATOM     22  F   UNL     1       8.666   1.385  20.824  0.00  0.00    -0.202 F 
ATOM     23  C   UNL     1       9.556   1.896  22.946  0.00  0.00    +0.041 A 
ATOM     24  C   UNL     1      10.142   1.462  24.135  0.00  0.00    +0.003 A 
ATOM     25  C   UNL     1      10.388   0.100  24.339  0.00  0.00    +0.008 A 
ENDBRANCH  17  18
ENDBRANCH   2  17
TORSDOF 5
ENDMDL
MODEL 5
REMARK VINA RESULT:      -7.1      2.001      2.541
REMARK  Name = 
REMARK  5 active torsions:
REMARK  status: ('A' for Active; 'I' for Inactive)
REMARK    1  A    between atoms: N_1  and  S_2
REMARK    2  A    between atoms: S_2  and  C_5
REMARK    3  A    between atoms: C_8  and  C_11
REMARK    4  A    between atoms: N_13  and  C_14
REMARK    5  A    between atoms: C_14  and  C_15
REMARK                            x       y       z     vdW  Elec       q    Type
REMARK                         _______ _______ _______ _____ _____    ______ ____
ROOT
ATOM      1  C   UNL     1       9.168  -2.572  23.000  0.00  0.00    +0.244 C 
ATOM      2  N   UNL     1       8.752  -1.634  22.081  0.00  0.00    -0.307 N 
ATOM      3  H   UNL     1       7.769  -1.530  21.873  0.00  0.00    +0.149 HD
ATOM      4  O   UNL     1      10.315  -2.653  23.421  0.00  0.00    -0.270 OA
ENDROOT
BRANCH   1   8
ATOM      5  C   UNL     1       6.127  -5.139  24.565  0.00  0.00    +0.105 A 
ATOM      6  C   UNL     1       6.219  -4.953  23.181  0.00  0.00    +0.029 A 
ATOM      7  C   UNL     1       7.213  -4.126  22.657  0.00  0.00    +0.015 A 
ATOM      8  C   UNL     1       8.118  -3.490  23.517  0.00  0.00    +0.037 A 
ATOM      9  C   UNL     1       8.051  -3.724  24.900  0.00  0.00    +0.015 A 
ATOM     10  C   UNL     1       7.053  -4.548  25.428  0.00  0.00    +0.029 A 
BRANCH   5  11
ATOM     11  S   UNL     1       4.823  -6.144  25.209  0.00  0.00    +0.056 S 
ATOM     12  O   UNL     1       5.310  -6.871  26.356  0.00  0.00    -0.153 OA
ATOM     13  O   UNL     1       3.594  -5.384  25.235  0.00  0.00    -0.153 OA
BRANCH  11  14
ATOM     14  N   UNL     1       4.651  -7.278  23.984  0.00  0.00    -0.204 NA
ATOM     15  H   UNL     1       4.883  -6.867  23.081  0.00  0.00    +0.144 HD
ATOM     16  H   UNL     1       5.190  -8.115  24.210  0.00  0.00    +0.144 HD
ENDBRANCH  11  14
ENDBRANCH   5  11
ENDBRANCH   1   8
BRANCH   2  17
ATOM     17  C   UNL     1       9.646  -0.631  21.547  0.00  0.00    +0.142 C 
BRANCH  17  18
ATOM     18  C   UNL     1       9.538   0.651  22.321  0.00  0.00    +0.008 A 
ATOM     19  C   UNL     1       8.688   1.674  21.892  0.00  0.00    +0.163 A 
ATOM     20  F   UNL     1       7.957   1.509  20.780  0.00  0.00    -0.202 F 
ATOM     21  C   UNL     1       8.597   2.867  22.603  0.00  0.00    +0.159 A 
ATOM     22  F   UNL     1       7.777   3.840  22.182  0.00  0.00    -0.202 F 
ATOM     23  C   UNL     1       9.356   3.066  23.752  0.00  0.00    +0.041 A 
ATOM     24  C   UNL     1      10.217   2.059  24.188  0.00  0.00    +0.003 A 
ATOM     25  C   UNL     1      10.311   0.860  23.473  0.00  0.00    +0.008 A 
ENDBRANCH  17  18
ENDBRANCH   2  17
TORSDOF 5
ENDMDL
MODEL 6
REMARK VINA RESULT:      -7.0      5.044      8.286
REMARK  Name = 
REMARK  5 active torsions:
REMARK  status: ('A' for Active; 'I' for Inactive)
REMARK    1  A    between atoms: N_1  and  S_2
REMARK    2  A    between atoms: S_2  and  C_5
REMARK    3  A    between atoms: C_8  and  C_11
REMARK    4  A    between atoms: N_13  and  C_14
REMARK    5  A    between atoms: C_14  and  C_15
REMARK                            x       y       z     vdW  Elec       q    Type
REMARK                         _______ _______ _______ _____ _____    ______ ____
ROOT
ATOM      1  C   UNL     1      10.036  -1.342  23.269  0.00  0.00    +0.244 C 
ATOM      2  N   UNL     1       9.572  -2.123  24.305  0.00  0.00    -0.307 N 
ATOM      3  H   UNL     1       8.982  -1.719  25.018  0.00  0.00    +0.149 HD
ATOM      4  O   UNL     1      10.620  -1.785  22.288  0.00  0.00    -0.270 OA
ENDROOT
BRANCH   1   8
ATOM      5  C   UNL     1       9.262   2.845  23.654  0.00  0.00    +0.105 A 
ATOM      6  C   UNL     1       9.674   2.338  22.417  0.00  0.00    +0.029 A 
ATOM      7  C   UNL     1       9.920   0.972  22.275  0.00  0.00    +0.015 A 
ATOM      8  C   UNL     1       9.748   0.114  23.370  0.00  0.00    +0.037 A 
ATOM      9  C   UNL     1       9.283   0.624  24.593  0.00  0.00    +0.015 A 
ATOM     10  C   UNL     1       9.041   1.993  24.739  0.00  0.00    +0.029 A 
BRANCH   5  11
ATOM     11  S   UNL     1       9.013   4.587  23.824  0.00  0.00    +0.056 S 
ATOM     12  O   UNL     1       8.050   5.026  22.843  0.00  0.00    -0.153 OA
ATOM     13  O   UNL     1       8.904   4.927  25.225  0.00  0.00    -0.153 OA
BRANCH  11  14
ATOM     14  N   UNL     1      10.496   5.180  23.309  0.00  0.00    -0.204 NA
ATOM     15  H   UNL     1      11.247   4.547  23.579  0.00  0.00    +0.144 HD
ATOM     16  H   UNL     1      10.460   5.379  22.308  0.00  0.00    +0.144 HD
ENDBRANCH  11  14
ENDBRANCH   5  11
ENDBRANCH   1   8
BRANCH   2  17
ATOM     17  C   UNL     1       9.714  -3.562  24.306  0.00  0.00    +0.142 C 
BRANCH  17  18
ATOM     18  C   UNL     1       8.485  -4.222  24.860  0.00  0.00    +0.008 A 
ATOM     19  C   UNL     1       8.475  -4.741  26.157  0.00  0.00    +0.163 A 
ATOM     20  F   UNL     1       9.574  -4.645  26.920  0.00  0.00    -0.202 F 
ATOM     21  C   UNL     1       7.338  -5.363  26.665  0.00  0.00    +0.159 A 
ATOM     22  F   UNL     1       7.342  -5.855  27.912  0.00  0.00    -0.202 F 
ATOM     23  C   UNL     1       6.192  -5.486  25.889  0.00  0.00    +0.041 A 
ATOM     24  C   UNL     1       6.187  -4.983  24.587  0.00  0.00    +0.003 A 
ATOM     25  C   UNL     1       7.329  -4.359  24.074  0.00  0.00    +0.008 A 
ENDBRANCH  17  18
ENDBRANCH   2  17
TORSDOF 5
ENDMDL
MODEL 7
REMARK VINA RESULT:      -6.9      4.937      8.167
REMARK  Name = 
REMARK  5 active torsions:
REMARK  status: ('A' for Active; 'I' for Inactive)
REMARK    1  A    between atoms: N_1  and  S_2
REMARK    2  A    between atoms: S_2  and  C_5
REMARK    3  A    between atoms: C_8  and  C_11
REMARK    4  A    between atoms: N_13  and  C_14
REMARK    5  A    between atoms: C_14  and  C_15
REMARK                            x       y       z     vdW  Elec       q    Type
REMARK                         _______ _______ _______ _____ _____    ______ ____
ROOT
ATOM      1  C   UNL     1       9.978  -1.771  23.531  0.00  0.00    +0.244 C 
ATOM      2  N   UNL     1       9.366  -2.497  24.528  0.00  0.00    -0.307 N 
ATOM      3  H   UNL     1       8.743  -2.039  25.179  0.00  0.00    +0.149 HD
ATOM      4  O   UNL     1      10.616  -2.273  22.614  0.00  0.00    -0.270 OA
ENDROOT
BRANCH   1   8
ATOM      5  C   UNL     1       9.486   2.469  23.788  0.00  0.00    +0.105 A 
ATOM      6  C   UNL     1       9.892   1.901  22.576  0.00  0.00    +0.029 A 
ATOM      7  C   UNL     1      10.047   0.518  22.475  0.00  0.00    +0.015 A 
ATOM      8  C   UNL     1       9.789  -0.296  23.587  0.00  0.00    +0.037 A 
ATOM      9  C   UNL     1       9.331   0.278  24.783  0.00  0.00    +0.015 A 
ATOM     10  C   UNL     1       9.180   1.664  24.888  0.00  0.00    +0.029 A 
BRANCH   5  11
ATOM     11  S   UNL     1       9.354   4.228  23.907  0.00  0.00    +0.056 S 
ATOM     12  O   UNL     1       8.584   4.566  25.081  0.00  0.00    -0.153 OA
ATOM     13  O   UNL     1      10.636   4.831  23.619  0.00  0.00    -0.153 OA
BRANCH  11  14
ATOM     14  N   UNL     1       8.365   4.570  22.595  0.00  0.00    -0.204 NA
ATOM     15  H   UNL     1       8.370   5.569  22.396  0.00  0.00    +0.144 HD
ATOM     16  H   UNL     1       8.632   3.988  21.800  0.00  0.00    +0.144 HD
ENDBRANCH  11  14
ENDBRANCH   5  11
ENDBRANCH   1   8
BRANCH   2  17
ATOM     17  C   UNL     1       9.401  -3.942  24.560  0.00  0.00    +0.142 C 
BRANCH  17  18
ATOM     18  C   UNL     1       8.013  -4.513  24.564  0.00  0.00    +0.008 A 
ATOM     19  C   UNL     1       7.237  -4.511  23.402  0.00  0.00    +0.163 A 
ATOM     20  F   UNL     1       7.737  -3.998  22.269  0.00  0.00    -0.202 F 
ATOM     21  C   UNL     1       5.945  -5.030  23.409  0.00  0.00    +0.159 A 
ATOM     22  F   UNL     1       5.212  -5.024  22.288  0.00  0.00    -0.202 F 
ATOM     23  C   UNL     1       5.400  -5.556  24.576  0.00  0.00    +0.041 A 
ATOM     24  C   UNL     1       6.157  -5.556  25.748  0.00  0.00    +0.003 A 
ATOM     25  C   UNL     1       7.455  -5.033  25.743  0.00  0.00    +0.008 A 
ENDBRANCH  17  18
ENDBRANCH   2  17
TORSDOF 5
ENDMDL
MODEL 8
REMARK VINA RESULT:      -6.7      5.572      8.551
REMARK  Name = 
REMARK  5 active torsions:
REMARK  status: ('A' for Active; 'I' for Inactive)
REMARK    1  A    between atoms: N_1  and  S_2
REMARK    2  A    between atoms: S_2  and  C_5
REMARK    3  A    between atoms: C_8  and  C_11
REMARK    4  A    between atoms: N_13  and  C_14
REMARK    5  A    between atoms: C_14  and  C_15
REMARK                            x       y       z     vdW  Elec       q    Type
REMARK                         _______ _______ _______ _____ _____    ______ ____
ROOT
ATOM      1  C   UNL     1       9.294  -0.506  24.510  0.00  0.00    +0.244 C 
ATOM      2  N   UNL     1       8.123  -0.978  25.060  0.00  0.00    -0.307 N 
ATOM      3  H   UNL     1       7.344  -0.351  25.206  0.00  0.00    +0.149 HD
ATOM      4  O   UNL     1      10.221  -1.225  24.157  0.00  0.00    -0.270 OA
ENDROOT
BRANCH   1   8
ATOM      5  C   UNL     1       9.519   3.738  24.041  0.00  0.00    +0.105 A 
ATOM      6  C   UNL     1      10.399   2.924  23.321  0.00  0.00    +0.029 A 
ATOM      7  C   UNL     1      10.330   1.537  23.456  0.00  0.00    +0.015 A 
ATOM      8  C   UNL     1       9.376   0.965  24.309  0.00  0.00    +0.037 A 
ATOM      9  C   UNL     1       8.462   1.788  24.987  0.00  0.00    +0.015 A 
ATOM     10  C   UNL     1       8.532   3.178  24.857  0.00  0.00    +0.029 A 
BRANCH   5  11
ATOM     11  S   UNL     1       9.665   5.493  23.897  0.00  0.00    +0.056 S 
ATOM     12  O   UNL     1       9.054   6.115  25.048  0.00  0.00    -0.153 OA
ATOM     13  O   UNL     1      10.995   5.834  23.446  0.00  0.00    -0.153 OA
BRANCH  11  14
ATOM     14  N   UNL     1       8.635   5.802  22.608  0.00  0.00    -0.204 NA
ATOM     15  H   UNL     1       9.021   5.423  21.745  0.00  0.00    +0.144 HD
ATOM     16  H   UNL     1       7.697   5.465  22.827  0.00  0.00    +0.144 HD
ENDBRANCH  11  14
ENDBRANCH   5  11
ENDBRANCH   1   8
BRANCH   2  17
ATOM     17  C   UNL     1       7.874  -2.390  25.245  0.00  0.00    +0.142 C 
BRANCH  17  18
ATOM     18  C   UNL     1       7.258  -2.992  24.015  0.00  0.00    +0.008 A 
ATOM     19  C   UNL     1       7.725  -4.206  23.504  0.00  0.00    +0.163 A 
ATOM     20  F   UNL     1       8.731  -4.844  24.121  0.00  0.00    -0.202 F 
ATOM     21  C   UNL     1       7.162  -4.758  22.357  0.00  0.00    +0.159 A 
ATOM     22  F   UNL     1       7.618  -5.924  21.879  0.00  0.00    -0.202 F 
ATOM     23  C   UNL     1       6.128  -4.108  21.693  0.00  0.00    +0.041 A 
ATOM     24  C   UNL     1       5.657  -2.889  22.183  0.00  0.00    +0.003 A 
ATOM     25  C   UNL     1       6.223  -2.332  23.335  0.00  0.00    +0.008 A 
ENDBRANCH  17  18
ENDBRANCH   2  17
TORSDOF 5
ENDMDL
MODEL 9
REMARK VINA RESULT:      -6.5      2.963      3.995
REMARK  Name = 
REMARK  5 active torsions:
REMARK  status: ('A' for Active; 'I' for Inactive)
REMARK    1  A    between atoms: N_1  and  S_2
REMARK    2  A    between atoms: S_2  and  C_5
REMARK    3  A    between atoms: C_8  and  C_11
REMARK    4  A    between atoms: N_13  and  C_14
REMARK    5  A    between atoms: C_14  and  C_15
REMARK                            x       y       z     vdW  Elec       q    Type
REMARK                         _______ _______ _______ _____ _____    ______ ____
ROOT
ATOM      1  C   UNL     1       9.747  -1.440  23.372  0.00  0.00    +0.244 C 
ATOM      2  N   UNL     1       9.589  -0.113  23.707  0.00  0.00    -0.307 N 
ATOM      3  H   UNL     1       9.095   0.141  24.550  0.00  0.00    +0.149 HD
ATOM      4  O   UNL     1      10.462  -1.834  22.459  0.00  0.00    -0.270 OA
ENDROOT
BRANCH   1   8
ATOM      5  C   UNL     1       7.598  -4.175  25.858  0.00  0.00    +0.105 A 
ATOM      6  C   UNL     1       7.939  -4.559  24.557  0.00  0.00    +0.029 A 
ATOM      7  C   UNL     1       8.650  -3.680  23.739  0.00  0.00    +0.015 A 
ATOM      8  C   UNL     1       9.022  -2.419  24.225  0.00  0.00    +0.037 A 
ATOM      9  C   UNL     1       8.721  -2.064  25.550  0.00  0.00    +0.015 A 
ATOM     10  C   UNL     1       8.005  -2.941  26.370  0.00  0.00    +0.029 A 
BRANCH   5  11
ATOM     11  S   UNL     1       6.647  -5.283  26.855  0.00  0.00    +0.056 S 
ATOM     12  O   UNL     1       5.766  -6.047  26.005  0.00  0.00    -0.153 OA
ATOM     13  O   UNL     1       7.502  -5.902  27.843  0.00  0.00    -0.153 OA
BRANCH  11  14
ATOM     14  N   UNL     1       5.664  -4.209  27.689  0.00  0.00    -0.204 NA
ATOM     15  H   UNL     1       5.329  -3.474  27.068  0.00  0.00    +0.144 HD
ATOM     16  H   UNL     1       4.920  -4.720  28.166  0.00  0.00    +0.144 HD
ENDBRANCH  11  14
ENDBRANCH   5  11
ENDBRANCH   1   8
BRANCH   2  17
ATOM     17  C   UNL     1      10.290   0.944  23.013  0.00  0.00    +0.142 C 
BRANCH  17  18
ATOM     18  C   UNL     1       9.506   2.223  23.051  0.00  0.00    +0.008 A 
ATOM     19  C   UNL     1       8.330   2.362  22.308  0.00  0.00    +0.163 A 
ATOM     20  F   UNL     1       7.894   1.340  21.557  0.00  0.00    -0.202 F 
ATOM     21  C   UNL     1       7.609   3.553  22.334  0.00  0.00    +0.159 A 
ATOM     22  F   UNL     1       6.482   3.672  21.619  0.00  0.00    -0.202 F 
ATOM     23  C   UNL     1       8.050   4.630  23.095  0.00  0.00    +0.041 A 
ATOM     24  C   UNL     1       9.227   4.512  23.834  0.00  0.00    +0.003 A 
ATOM     25  C   UNL     1       9.954   3.317  23.808  0.00  0.00    +0.008 A 
ENDBRANCH  17  18
ENDBRANCH   2  17
TORSDOF 5
ENDMDL
