MODEL 1
REMARK VINA RESULT:      -6.9      0.000      0.000
REMARK  Name = 
REMARK  6 active torsions:
REMARK  status: ('A' for Active; 'I' for Inactive)
REMARK    1  A    between atoms: C_2  and  C_3
REMARK    2  A    between atoms: C_3  and  O_4
REMARK    3  A    between atoms: C_8  and  C_11
REMARK    4  A    between atoms: C_17  and  O_19
REMARK    5  A    between atoms: C_20  and  O_22
REMARK    6  A    between atoms: C_23  and  O_25
REMARK                            x       y       z     vdW  Elec       q    Type
REMARK                         _______ _______ _______ _____ _____    ______ ____
ROOT
ATOM      1  C   UNL     1       5.729  -5.408  26.396  0.00  0.00    +0.179 C 
ATOM      2  C   UNL     1       4.976  -6.705  26.024  0.00  0.00    +0.177 C 
ATOM      3  C   UNL     1       4.327  -6.589  24.641  0.00  0.00    +0.180 C 
ATOM      4  C   UNL     1       5.303  -6.030  23.603  0.00  0.00    +0.220 C 
ATOM      5  C   UNL     1       5.944  -4.730  24.118  0.00  0.00    +0.273 C 
ATOM      6  O   UNL     1       4.931  -3.713  24.230  0.00  0.00    -0.355 OA
ATOM      7  N   UNL     1       5.513  -2.467  23.909  0.00  0.00    -0.085 NA
ATOM      8  C   UNL     1       6.639  -2.713  23.317  0.00  0.00    +0.094 C 
ATOM      9  C   UNL     1       6.942  -4.160  23.126  0.00  0.00    +0.143 C 
ATOM     10  O   UNL     1       6.617  -4.976  25.360  0.00  0.00    -0.327 OA
ENDROOT
BRANCH   8  11
ATOM     11  C   UNL     1       7.539  -1.652  22.808  0.00  0.00    -0.000 A 
ATOM     12  C   UNL     1       7.165  -0.310  22.959  0.00  0.00    +0.010 A 
ATOM     13  C   UNL     1       7.991   0.710  22.484  0.00  0.00    +0.001 A 
ATOM     14  C   UNL     1       9.196   0.397  21.856  0.00  0.00    +0.000 A 
ATOM     15  C   UNL     1       9.573  -0.938  21.699  0.00  0.00    +0.001 A 
ATOM     16  C   UNL     1       8.746  -1.961  22.171  0.00  0.00    +0.010 A 
ENDBRANCH   8  11
BRANCH   2  17
ATOM     17  O   UNL     1       3.952  -6.999  26.986  0.00  0.00    -0.386 OA
ATOM     18  H   UNL     1       3.086  -6.910  26.536  0.00  0.00    +0.210 HD
ENDBRANCH   2  17
BRANCH   3  19
ATOM     19  O   UNL     1       3.890  -7.883  24.186  0.00  0.00    -0.386 OA
ATOM     20  H   UNL     1       3.650  -7.771  23.247  0.00  0.00    +0.210 HD
ENDBRANCH   3  19
BRANCH   4  21
ATOM     21  O   UNL     1       4.598  -5.858  22.361  0.00  0.00    -0.383 OA
ATOM     22  H   UNL     1       3.706  -6.239  22.484  0.00  0.00    +0.210 HD
ENDBRANCH   4  21
BRANCH   1  23
ATOM     23  C   UNL     1       6.558  -5.612  27.674  0.00  0.00    +0.190 C 
BRANCH  23  24
ATOM     24  O   UNL     1       7.937  -5.806  27.361  0.00  0.00    -0.392 OA
ATOM     25  H   UNL     1       8.344  -6.266  28.120  0.00  0.00    +0.210 HD
ENDBRANCH  23  24
ENDBRANCH   1  23
TORSDOF 6
ENDMDL
MODEL 2
REMARK VINA RESULT:      -6.8      2.079      3.542
REMARK  Name = 
REMARK  6 active torsions:
REMARK  status: ('A' for Active; 'I' for Inactive)
REMARK    1  A    between atoms: C_2  and  C_3
REMARK    2  A    between atoms: C_3  and  O_4
REMARK    3  A    between atoms: C_8  and  C_11
REMARK    4  A    between atoms: C_17  and  O_19
REMARK    5  A    between atoms: C_20  and  O_22
REMARK    6  A    between atoms: C_23  and  O_25
REMARK                            x       y       z     vdW  Elec       q    Type
REMARK                         _______ _______ _______ _____ _____    ______ ____
ROOT
ATOM      1  C   UNL     1       5.791  -4.374  25.125  0.00  0.00    +0.179 C 
ATOM      2  C   UNL     1       5.963  -5.376  26.288  0.00  0.00    +0.177 C 
ATOM      3  C   UNL     1       7.442  -5.562  26.643  0.00  0.00    +0.180 C 
ATOM      4  C   UNL     1       8.166  -4.220  26.770  0.00  0.00    +0.220 C 
ATOM      5  C   UNL     1       7.913  -3.356  25.522  0.00  0.00    +0.273 C 
ATOM      6  O   UNL     1       8.528  -3.981  24.380  0.00  0.00    -0.355 OA
ATOM      7  N   UNL     1       9.004  -2.966  23.520  0.00  0.00    -0.085 NA
ATOM      8  C   UNL     1       9.020  -1.864  24.202  0.00  0.00    +0.094 C 
ATOM      9  C   UNL     1       8.593  -2.002  25.624  0.00  0.00    +0.143 C 
ATOM     10  O   UNL     1       6.504  -3.153  25.347  0.00  0.00    -0.327 OA
ENDROOT
BRANCH   8  11
ATOM     11  C   UNL     1       9.479  -0.570  23.646  0.00  0.00    -0.000 A 
ATOM     12  C   UNL     1      10.128   0.342  24.489  0.00  0.00    +0.010 A 
ATOM     13  C   UNL     1      10.566   1.572  23.993  0.00  0.00    +0.001 A 
ATOM     14  C   UNL     1      10.359   1.897  22.653  0.00  0.00    +0.000 A 
ATOM     15  C   UNL     1       9.710   0.995  21.810  0.00  0.00    +0.001 A 
ATOM     16  C   UNL     1       9.268  -0.235  22.304  0.00  0.00    +0.010 A 
ENDBRANCH   8  11
BRANCH   2  17
ATOM     17  O   UNL     1       5.410  -6.657  25.949  0.00  0.00    -0.386 OA
ATOM     18  H   UNL     1       5.568  -7.259  26.706  0.00  0.00    +0.210 HD
ENDBRANCH   2  17
BRANCH   3  19
ATOM     19  O   UNL     1       7.569  -6.254  27.898  0.00  0.00    -0.386 OA
ATOM     20  H   UNL     1       8.457  -6.660  27.894  0.00  0.00    +0.210 HD
ENDBRANCH   3  19
BRANCH   4  21
ATOM     21  O   UNL     1       9.562  -4.476  27.004  0.00  0.00    -0.383 OA
ATOM     22  H   UNL     1       9.932  -3.675  27.426  0.00  0.00    +0.210 HD
ENDBRANCH   4  21
BRANCH   1  23
ATOM     23  C   UNL     1       4.308  -4.024  24.927  0.00  0.00    +0.190 C 
BRANCH  23  24
ATOM     24  O   UNL     1       3.662  -4.991  24.100  0.00  0.00    -0.392 OA
ATOM     25  H   UNL     1       2.954  -5.401  24.631  0.00  0.00    +0.210 HD
ENDBRANCH  23  24
ENDBRANCH   1  23
TORSDOF 6
ENDMDL
MODEL 3
REMARK VINA RESULT:      -6.8      1.714      2.445
REMARK  Name = 
REMARK  6 active torsions:
REMARK  status: ('A' for Active; 'I' for Inactive)
REMARK    1  A    between atoms: C_2  and  C_3
REMARK    2  A    between atoms: C_3  and  O_4
REMARK    3  A    between atoms: C_8  and  C_11
REMARK    4  A    between atoms: C_17  and  O_19
REMARK    5  A    between atoms: C_20  and  O_22
REMARK    6  A    between atoms: C_23  and  O_25
REMARK                            x       y       z     vdW  Elec       q    Type
REMARK                         _______ _______ _______ _____ _____    ______ ____
ROOT
ATOM      1  C   UNL     1       6.853  -4.705  24.856  0.00  0.00    +0.179 C 
ATOM      2  C   UNL     1       6.061  -5.718  24.001  0.00  0.00    +0.177 C 
ATOM      3  C   UNL     1       5.410  -5.033  22.794  0.00  0.00    +0.180 C 
ATOM      4  C   UNL     1       6.397  -4.125  22.059  0.00  0.00    +0.220 C 
ATOM      5  C   UNL     1       7.079  -3.164  23.047  0.00  0.00    +0.273 C 
ATOM      6  O   UNL     1       6.097  -2.255  23.580  0.00  0.00    -0.355 OA
ATOM      7  N   UNL     1       6.715  -1.001  23.785  0.00  0.00    -0.085 NA
ATOM      8  C   UNL     1       7.830  -1.014  23.125  0.00  0.00    +0.094 C 
ATOM      9  C   UNL     1       8.090  -2.265  22.358  0.00  0.00    +0.143 C 
ATOM     10  O   UNL     1       7.750  -3.911  24.071  0.00  0.00    -0.327 OA
ENDROOT
BRANCH   8  11
ATOM     11  C   UNL     1       8.760   0.139  23.078  0.00  0.00    -0.000 A 
ATOM     12  C   UNL     1       9.319   0.613  24.272  0.00  0.00    +0.010 A 
ATOM     13  C   UNL     1      10.193   1.702  24.258  0.00  0.00    +0.001 A 
ATOM     14  C   UNL     1      10.515   2.323  23.052  0.00  0.00    +0.000 A 
ATOM     15  C   UNL     1       9.958   1.858  21.860  0.00  0.00    +0.001 A 
ATOM     16  C   UNL     1       9.081   0.771  21.871  0.00  0.00    +0.010 A 
ENDBRANCH   8  11
BRANCH   2  17
ATOM     17  O   UNL     1       5.032  -6.352  24.776  0.00  0.00    -0.386 OA
ATOM     18  H   UNL     1       4.291  -6.564  24.171  0.00  0.00    +0.210 HD
ENDBRANCH   2  17
BRANCH   3  19
ATOM     19  O   UNL     1       4.933  -6.018  21.860  0.00  0.00    -0.386 OA
ATOM     20  H   UNL     1       4.978  -5.598  20.980  0.00  0.00    +0.210 HD
ENDBRANCH   3  19
BRANCH   4  21
ATOM     21  O   UNL     1       5.693  -3.444  21.005  0.00  0.00    -0.383 OA
ATOM     22  H   UNL     1       5.245  -2.675  21.412  0.00  0.00    +0.210 HD
ENDBRANCH   4  21
BRANCH   1  23
ATOM     23  C   UNL     1       7.681  -5.432  25.927  0.00  0.00    +0.190 C 
BRANCH  23  24
ATOM     24  O   UNL     1       6.835  -6.017  26.916  0.00  0.00    -0.392 OA
ATOM     25  H   UNL     1       6.071  -5.422  27.032  0.00  0.00    +0.210 HD
ENDBRANCH  23  24
ENDBRANCH   1  23
TORSDOF 6
ENDMDL
MODEL 4
REMARK VINA RESULT:      -6.5      1.609      3.145
REMARK  Name = 
REMARK  6 active torsions:
REMARK  status: ('A' for Active; 'I' for Inactive)
REMARK    1  A    between atoms: C_2  and  C_3
REMARK    2  A    between atoms: C_3  and  O_4
REMARK    3  A    between atoms: C_8  and  C_11
REMARK    4  A    between atoms: C_17  and  O_19
REMARK    5  A    between atoms: C_20  and  O_22
REMARK    6  A    between atoms: C_23  and  O_25
REMARK                            x       y       z     vdW  Elec       q    Type
REMARK                         _______ _______ _______ _____ _____    ______ ____
ROOT
ATOM      1  C   UNL     1       4.624  -5.817  24.251  0.00  0.00    +0.179 C 
ATOM      2  C   UNL     1       4.287  -6.591  25.545  0.00  0.00    +0.177 C 
ATOM      3  C   UNL     1       5.511  -6.693  26.461  0.00  0.00    +0.180 C 
ATOM      4  C   UNL     1       6.211  -5.343  26.622  0.00  0.00    +0.220 C 
ATOM      5  C   UNL     1       6.496  -4.720  25.244  0.00  0.00    +0.273 C 
ATOM      6  O   UNL     1       7.458  -5.534  24.545  0.00  0.00    -0.355 OA
ATOM      7  N   UNL     1       8.280  -4.685  23.771  0.00  0.00    -0.085 NA
ATOM      8  C   UNL     1       8.102  -3.479  24.210  0.00  0.00    +0.094 C 
ATOM      9  C   UNL     1       7.165  -3.363  25.363  0.00  0.00    +0.143 C 
ATOM     10  O   UNL     1       5.271  -4.568  24.515  0.00  0.00    -0.327 OA
ENDROOT
BRANCH   8  11
ATOM     11  C   UNL     1       8.812  -2.300  23.657  0.00  0.00    -0.000 A 
ATOM     12  C   UNL     1       9.519  -1.461  24.528  0.00  0.00    +0.010 A 
ATOM     13  C   UNL     1      10.191  -0.340  24.035  0.00  0.00    +0.001 A 
ATOM     14  C   UNL     1      10.162  -0.052  22.671  0.00  0.00    +0.000 A 
ATOM     15  C   UNL     1       9.455  -0.882  21.800  0.00  0.00    +0.001 A 
ATOM     16  C   UNL     1       8.779  -2.002  22.290  0.00  0.00    +0.010 A 
ENDBRANCH   8  11
BRANCH   2  17
ATOM     17  O   UNL     1       3.829  -7.918  25.245  0.00  0.00    -0.386 OA
ATOM     18  H   UNL     1       4.306  -8.225  24.447  0.00  0.00    +0.210 HD
ENDBRANCH   2  17
BRANCH   3  19
ATOM     19  O   UNL     1       5.117  -7.147  27.769  0.00  0.00    -0.386 OA
ATOM     20  H   UNL     1       5.153  -8.122  27.738  0.00  0.00    +0.210 HD
ENDBRANCH   3  19
BRANCH   4  21
ATOM     21  O   UNL     1       7.400  -5.536  27.409  0.00  0.00    -0.383 OA
ATOM     22  H   UNL     1       8.044  -4.857  27.125  0.00  0.00    +0.210 HD
ENDBRANCH   4  21
BRANCH   1  23
ATOM     23  C   UNL     1       3.346  -5.526  23.447  0.00  0.00    +0.190 C 
BRANCH  23  24
ATOM     24  O   UNL     1       2.914  -6.686  22.738  0.00  0.00    -0.392 OA
ATOM     25  H   UNL     1       3.697  -7.063  22.295  0.00  0.00    +0.210 HD
ENDBRANCH  23  24
ENDBRANCH   1  23
TORSDOF 6
ENDMDL
MODEL 5
REMARK VINA RESULT:      -6.4      3.865      7.170
REMARK  Name = 
REMARK  6 active torsions:
REMARK  status: ('A' for Active; 'I' for Inactive)
REMARK    1  A    between atoms: C_2  and  C_3
REMARK    2  A    between atoms: C_3  and  O_4
REMARK    3  A    between atoms: C_8  and  C_11
REMARK    4  A    between atoms: C_17  and  O_19
REMARK    5  A    between atoms: C_20  and  O_22
REMARK    6  A    between atoms: C_23  and  O_25
REMARK                            x       y       z     vdW  Elec       q    Type
REMARK                         _______ _______ _______ _____ _____    ______ ____
ROOT
ATOM      1  C   UNL     1       8.104   1.132  24.562  0.00  0.00    +0.179 C 
ATOM      2  C   UNL     1       8.891   2.054  23.603  0.00  0.00    +0.177 C 
ATOM      3  C   UNL     1       9.730   1.236  22.616  0.00  0.00    +0.180 C 
ATOM      4  C   UNL     1       8.915   0.107  21.982  0.00  0.00    +0.220 C 
ATOM      5  C   UNL     1       8.219  -0.728  23.070  0.00  0.00    +0.273 C 
ATOM      6  O   UNL     1       9.215  -1.411  23.855  0.00  0.00    -0.355 OA
ATOM      7  N   UNL     1       8.694  -2.666  24.240  0.00  0.00    -0.085 NA
ATOM      8  C   UNL     1       7.662  -2.896  23.492  0.00  0.00    +0.094 C 
ATOM      9  C   UNL     1       7.375  -1.842  22.478  0.00  0.00    +0.143 C 
ATOM     10  O   UNL     1       7.375   0.116  23.866  0.00  0.00    -0.327 OA
ENDROOT
BRANCH   8  11
ATOM     11  C   UNL     1       6.851  -4.134  23.583  0.00  0.00    -0.000 A 
ATOM     12  C   UNL     1       6.660  -4.910  22.433  0.00  0.00    +0.010 A 
ATOM     13  C   UNL     1       5.895  -6.078  22.489  0.00  0.00    +0.001 A 
ATOM     14  C   UNL     1       5.319  -6.476  23.694  0.00  0.00    +0.000 A 
ATOM     15  C   UNL     1       5.502  -5.705  24.842  0.00  0.00    +0.001 A 
ATOM     16  C   UNL     1       6.264  -4.535  24.788  0.00  0.00    +0.010 A 
ENDBRANCH   8  11
BRANCH   2  17
ATOM     17  O   UNL     1       9.766   2.927  24.333  0.00  0.00    -0.386 OA
ATOM     18  H   UNL     1      10.158   2.410  25.067  0.00  0.00    +0.210 HD
ENDBRANCH   2  17
BRANCH   3  19
ATOM     19  O   UNL     1      10.215   2.080  21.557  0.00  0.00    -0.386 OA
ATOM     20  H   UNL     1      11.186   1.978  21.554  0.00  0.00    +0.210 HD
ENDBRANCH   3  19
BRANCH   4  21
ATOM     21  O   UNL     1       9.790  -0.674  21.147  0.00  0.00    -0.383 OA
ATOM     22  H   UNL     1      10.465  -0.062  20.792  0.00  0.00    +0.210 HD
ENDBRANCH   4  21
BRANCH   1  23
ATOM     23  C   UNL     1       7.101   1.947  25.394  0.00  0.00    +0.190 C 
BRANCH  23  24
ATOM     24  O   UNL     1       7.763   2.660  26.436  0.00  0.00    -0.392 OA
ATOM     25  H   UNL     1       7.112   2.803  27.149  0.00  0.00    +0.210 HD
ENDBRANCH  23  24
ENDBRANCH   1  23
TORSDOF 6
ENDMDL
MODEL 6
REMARK VINA RESULT:      -6.2      2.089      3.327
REMARK  Name = 
REMARK  6 active torsions:
REMARK  status: ('A' for Active; 'I' for Inactive)
REMARK    1  A    between atoms: C_2  and  C_3
REMARK    2  A    between atoms: C_3  and  O_4
REMARK    3  A    between atoms: C_8  and  C_11
REMARK    4  A    between atoms: C_17  and  O_19
REMARK    5  A    between atoms: C_20  and  O_22
REMARK    6  A    between atoms: C_23  and  O_25
REMARK                            x       y       z     vdW  Elec       q    Type
REMARK                         _______ _______ _______ _____ _____    ______ ____
ROOT
ATOM      1  C   UNL     1       6.382  -5.271  22.756  0.00  0.00    +0.179 C 
ATOM      2  C   UNL     1       4.965  -5.680  23.216  0.00  0.00    +0.177 C 
ATOM      3  C   UNL     1       4.465  -4.768  24.340  0.00  0.00    +0.180 C 
ATOM      4  C   UNL     1       4.688  -3.290  24.012  0.00  0.00    +0.220 C 
ATOM      5  C   UNL     1       6.151  -3.050  23.598  0.00  0.00    +0.273 C 
ATOM      6  O   UNL     1       7.010  -3.292  24.728  0.00  0.00    -0.355 OA
ATOM      7  N   UNL     1       8.094  -2.389  24.665  0.00  0.00    -0.085 NA
ATOM      8  C   UNL     1       7.769  -1.461  23.821  0.00  0.00    +0.094 C 
ATOM      9  C   UNL     1       6.405  -1.598  23.235  0.00  0.00    +0.143 C 
ATOM     10  O   UNL     1       6.480  -3.872  22.470  0.00  0.00    -0.327 OA
ENDROOT
BRANCH   8  11
ATOM     11  C   UNL     1       8.648  -0.313  23.496  0.00  0.00    -0.000 A 
ATOM     12  C   UNL     1       9.244   0.406  24.540  0.00  0.00    +0.010 A 
ATOM     13  C   UNL     1      10.073   1.496  24.262  0.00  0.00    +0.001 A 
ATOM     14  C   UNL     1      10.310   1.873  22.941  0.00  0.00    +0.000 A 
ATOM     15  C   UNL     1       9.716   1.163  21.897  0.00  0.00    +0.001 A 
ATOM     16  C   UNL     1       8.884   0.074  22.172  0.00  0.00    +0.010 A 
ENDBRANCH   8  11
BRANCH   2  17
ATOM     17  O   UNL     1       4.950  -7.036  23.687  0.00  0.00    -0.386 OA
ATOM     18  H   UNL     1       4.555  -7.592  22.982  0.00  0.00    +0.210 HD
ENDBRANCH   2  17
BRANCH   3  19
ATOM     19  O   UNL     1       3.055  -4.966  24.552  0.00  0.00    -0.386 OA
ATOM     20  H   UNL     1       2.692  -4.090  24.786  0.00  0.00    +0.210 HD
ENDBRANCH   3  19
BRANCH   4  21
ATOM     21  O   UNL     1       4.288  -2.505  25.148  0.00  0.00    -0.383 OA
ATOM     22  H   UNL     1       4.294  -1.569  24.864  0.00  0.00    +0.210 HD
ENDBRANCH   4  21
BRANCH   1  23
ATOM     23  C   UNL     1       6.782  -6.040  21.487  0.00  0.00    +0.190 C 
BRANCH  23  24
ATOM     24  O   UNL     1       5.983  -5.640  20.375  0.00  0.00    -0.392 OA
ATOM     25  H   UNL     1       5.167  -5.242  20.733  0.00  0.00    +0.210 HD
ENDBRANCH  23  24
ENDBRANCH   1  23
TORSDOF 6
ENDMDL
MODEL 7
REMARK VINA RESULT:      -6.2      2.740      4.535
REMARK  Name = 
REMARK  6 active torsions:
REMARK  status: ('A' for Active; 'I' for Inactive)
REMARK    1  A    between atoms: C_2  and  C_3
REMARK    2  A    between atoms: C_3  and  O_4
REMARK    3  A    between atoms: C_8  and  C_11
REMARK    4  A    between atoms: C_17  and  O_19
REMARK    5  A    between atoms: C_20  and  O_22
REMARK    6  A    between atoms: C_23  and  O_25
REMARK                            x       y       z     vdW  Elec       q    Type
REMARK                         _______ _______ _______ _____ _____    ______ ____
ROOT
ATOM      1  C   UNL     1       7.268  -3.635  22.730  0.00  0.00    +0.179 C 
ATOM      2  C   UNL     1       7.075  -4.844  23.672  0.00  0.00    +0.177 C 
ATOM      3  C   UNL     1       7.994  -4.744  24.894  0.00  0.00    +0.180 C 
ATOM      4  C   UNL     1       7.941  -3.353  25.529  0.00  0.00    +0.220 C 
ATOM      5  C   UNL     1       8.176  -2.269  24.464  0.00  0.00    +0.273 C 
ATOM      6  O   UNL     1       9.523  -2.376  23.967  0.00  0.00    -0.355 OA
ATOM      7  N   UNL     1       9.995  -1.076  23.677  0.00  0.00    -0.085 NA
ATOM      8  C   UNL     1       9.195  -0.241  24.260  0.00  0.00    +0.094 C 
ATOM      9  C   UNL     1       8.101  -0.871  25.052  0.00  0.00    +0.143 C 
ATOM     10  O   UNL     1       7.195  -2.385  23.425  0.00  0.00    -0.327 OA
ENDROOT
BRANCH   8  11
ATOM     11  C   UNL     1       9.373   1.229  24.204  0.00  0.00    -0.000 A 
ATOM     12  C   UNL     1       8.485   2.051  24.910  0.00  0.00    +0.010 A 
ATOM     13  C   UNL     1       8.625   3.440  24.870  0.00  0.00    +0.001 A 
ATOM     14  C   UNL     1       9.653   4.016  24.124  0.00  0.00    +0.000 A 
ATOM     15  C   UNL     1      10.538   3.203  23.415  0.00  0.00    +0.001 A 
ATOM     16  C   UNL     1      10.398   1.813  23.451  0.00  0.00    +0.010 A 
ENDBRANCH   8  11
BRANCH   2  17
ATOM     17  O   UNL     1       7.354  -6.076  22.990  0.00  0.00    -0.386 OA
ATOM     18  H   UNL     1       6.629  -6.234  22.351  0.00  0.00    +0.210 HD
ENDBRANCH   2  17
BRANCH   3  19
ATOM     19  O   UNL     1       7.601  -5.702  25.893  0.00  0.00    -0.386 OA
ATOM     20  H   UNL     1       7.203  -6.449  25.407  0.00  0.00    +0.210 HD
ENDBRANCH   3  19
BRANCH   4  21
ATOM     21  O   UNL     1       8.897  -3.305  26.603  0.00  0.00    -0.383 OA
ATOM     22  H   UNL     1       8.439  -2.921  27.377  0.00  0.00    +0.210 HD
ENDBRANCH   4  21
BRANCH   1  23
ATOM     23  C   UNL     1       6.192  -3.628  21.632  0.00  0.00    +0.190 C 
BRANCH  23  24
ATOM     24  O   UNL     1       5.090  -4.459  21.993  0.00  0.00    -0.392 OA
ATOM     25  H   UNL     1       5.427  -5.372  22.063  0.00  0.00    +0.210 HD
ENDBRANCH  23  24
ENDBRANCH   1  23
TORSDOF 6
ENDMDL
MODEL 8
REMARK VINA RESULT:      -6.1      4.010      7.649
REMARK  Name = 
REMARK  6 active torsions:
REMARK  status: ('A' for Active; 'I' for Inactive)
REMARK    1  A    between atoms: C_2  and  C_3
REMARK    2  A    between atoms: C_3  and  O_4
REMARK    3  A    between atoms: C_8  and  C_11
REMARK    4  A    between atoms: C_17  and  O_19
REMARK    5  A    between atoms: C_20  and  O_22
REMARK    6  A    between atoms: C_23  and  O_25
REMARK                            x       y       z     vdW  Elec       q    Type
REMARK                         _______ _______ _______ _____ _____    ______ ____
ROOT
ATOM      1  C   UNL     1       7.028   1.953  23.001  0.00  0.00    +0.179 C 
ATOM      2  C   UNL     1       8.220   2.605  22.265  0.00  0.00    +0.177 C 
ATOM      3  C   UNL     1       9.478   1.737  22.374  0.00  0.00    +0.180 C 
ATOM      4  C   UNL     1       9.182   0.270  22.054  0.00  0.00    +0.220 C 
ATOM      5  C   UNL     1       7.989  -0.229  22.886  0.00  0.00    +0.273 C 
ATOM      6  O   UNL     1       8.353  -0.240  24.279  0.00  0.00    -0.355 OA
ATOM      7  N   UNL     1       7.710  -1.335  24.899  0.00  0.00    -0.085 NA
ATOM      8  C   UNL     1       7.299  -2.120  23.954  0.00  0.00    +0.094 C 
ATOM      9  C   UNL     1       7.645  -1.674  22.575  0.00  0.00    +0.143 C 
ATOM     10  O   UNL     1       6.837   0.585  22.625  0.00  0.00    -0.327 OA
ENDROOT
BRANCH   8  11
ATOM     11  C   UNL     1       6.588  -3.395  24.208  0.00  0.00    -0.000 A 
ATOM     12  C   UNL     1       6.887  -4.123  25.367  0.00  0.00    +0.010 A 
ATOM     13  C   UNL     1       6.237  -5.331  25.629  0.00  0.00    +0.001 A 
ATOM     14  C   UNL     1       5.285  -5.818  24.735  0.00  0.00    +0.000 A 
ATOM     15  C   UNL     1       4.986  -5.101  23.577  0.00  0.00    +0.001 A 
ATOM     16  C   UNL     1       5.636  -3.893  23.311  0.00  0.00    +0.010 A 
ENDBRANCH   8  11
BRANCH   2  17
ATOM     17  O   UNL     1       8.512   3.902  22.807  0.00  0.00    -0.386 OA
ATOM     18  H   UNL     1       7.671   4.283  23.136  0.00  0.00    +0.210 HD
ENDBRANCH   2  17
BRANCH   3  19
ATOM     19  O   UNL     1      10.482   2.197  21.452  0.00  0.00    -0.386 OA
ATOM     20  H   UNL     1      11.228   2.510  21.999  0.00  0.00    +0.210 HD
ENDBRANCH   3  19
BRANCH   4  21
ATOM     21  O   UNL     1      10.381  -0.495  22.273  0.00  0.00    -0.383 OA
ATOM     22  H   UNL     1      10.601  -0.929  21.425  0.00  0.00    +0.210 HD
ENDBRANCH   4  21
BRANCH   1  23
ATOM     23  C   UNL     1       5.726   2.712  22.698  0.00  0.00    +0.190 C 
BRANCH  23  24
ATOM     24  O   UNL     1       5.971   3.820  21.834  0.00  0.00    -0.392 OA
ATOM     25  H   UNL     1       6.924   3.817  21.622  0.00  0.00    +0.210 HD
ENDBRANCH  23  24
ENDBRANCH   1  23
TORSDOF 6
ENDMDL
MODEL 9
REMARK VINA RESULT:      -6.1      3.773      5.566
REMARK  Name = 
REMARK  6 active torsions:
REMARK  status: ('A' for Active; 'I' for Inactive)
REMARK    1  A    between atoms: C_2  and  C_3
REMARK    2  A    between atoms: C_3  and  O_4
REMARK    3  A    between atoms: C_8  and  C_11
REMARK    4  A    between atoms: C_17  and  O_19
REMARK    5  A    between atoms: C_20  and  O_22
REMARK    6  A    between atoms: C_23  and  O_25
REMARK                            x       y       z     vdW  Elec       q    Type
REMARK                         _______ _______ _______ _____ _____    ______ ____
ROOT
ATOM      1  C   UNL     1       6.909  -1.202  24.847  0.00  0.00    +0.179 C 
ATOM      2  C   UNL     1       7.313  -2.686  24.705  0.00  0.00    +0.177 C 
ATOM      3  C   UNL     1       8.454  -2.853  23.694  0.00  0.00    +0.180 C 
ATOM      4  C   UNL     1       9.579  -1.846  23.941  0.00  0.00    +0.220 C 
ATOM      5  C   UNL     1       9.011  -0.420  24.032  0.00  0.00    +0.273 C 
ATOM      6  O   UNL     1       8.475  -0.040  22.751  0.00  0.00    -0.355 OA
ATOM      7  N   UNL     1       8.699   1.343  22.567  0.00  0.00    -0.085 NA
ATOM      8  C   UNL     1       9.581   1.706  23.444  0.00  0.00    +0.094 C 
ATOM      9  C   UNL     1      10.096   0.606  24.307  0.00  0.00    +0.143 C 
ATOM     10  O   UNL     1       8.035  -0.349  25.080  0.00  0.00    -0.327 OA
ENDROOT
BRANCH   8  11
ATOM     11  C   UNL     1      10.094   3.093  23.555  0.00  0.00    -0.000 A 
ATOM     12  C   UNL     1       9.213   4.118  23.921  0.00  0.00    +0.010 A 
ATOM     13  C   UNL     1       9.667   5.434  24.027  0.00  0.00    +0.001 A 
ATOM     14  C   UNL     1      11.005   5.733  23.770  0.00  0.00    +0.000 A 
ATOM     15  C   UNL     1      11.886   4.717  23.401  0.00  0.00    +0.001 A 
ATOM     16  C   UNL     1      11.434   3.400  23.290  0.00  0.00    +0.010 A 
ENDBRANCH   8  11
BRANCH   2  17
ATOM     17  O   UNL     1       6.201  -3.483  24.272  0.00  0.00    -0.386 OA
ATOM     18  H   UNL     1       6.436  -3.878  23.407  0.00  0.00    +0.210 HD
ENDBRANCH   2  17
BRANCH   3  19
ATOM     19  O   UNL     1       9.013  -4.175  23.789  0.00  0.00    -0.386 OA
ATOM     20  H   UNL     1       9.979  -4.066  23.698  0.00  0.00    +0.210 HD
ENDBRANCH   3  19
BRANCH   4  21
ATOM     21  O   UNL     1      10.562  -1.996  22.901  0.00  0.00    -0.383 OA
ATOM     22  H   UNL     1      10.487  -1.211  22.323  0.00  0.00    +0.210 HD
ENDBRANCH   4  21
BRANCH   1  23
ATOM     23  C   UNL     1       5.929  -1.019  26.017  0.00  0.00    +0.190 C 
BRANCH  23  24
ATOM     24  O   UNL     1       4.586  -1.263  25.600  0.00  0.00    -0.392 OA
ATOM     25  H   UNL     1       4.154  -0.395  25.491  0.00  0.00    +0.210 HD
ENDBRANCH  23  24
ENDBRANCH   1  23
TORSDOF 6
ENDMDL
