MODEL 1
REMARK VINA RESULT:      -6.2      0.000      0.000
REMARK  Name = 
REMARK  7 active torsions:
REMARK  status: ('A' for Active; 'I' for Inactive)
REMARK    1  A    between atoms: C_2  and  N_3
REMARK    2  A    between atoms: C_6  and  N_10
REMARK    3  A    between atoms: C_14  and  C_24
REMARK    4  A    between atoms: C_18  and  N_19
REMARK    5  A    between atoms: N_19  and  C_20
REMARK    6  A    between atoms: C_20  and  C_21
REMARK    7  A    between atoms: C_20  and  C_22
REMARK                            x       y       z     vdW  Elec       q    Type
REMARK                         _______ _______ _______ _____ _____    ______ ____
ROOT
ATOM      1  N   UNL     1       9.039   1.075  22.908  0.00  0.00    -0.326 N 
ATOM      2  H   UNL     1       8.138   0.636  23.068  0.00  0.00    +0.148 HD
ATOM      3  C   UNL     1       9.104   2.395  23.303  0.00  0.00    +0.125 A 
ATOM      4  C   UNL     1       7.811   3.013  23.752  0.00  0.00    +0.087 A 
ATOM      5  C   UNL     1       7.809   4.291  24.170  0.00  0.00    +0.126 A 
ATOM      6  N   UNL     1       9.040   4.989  24.134  0.00  0.00    -0.199 N 
ATOM      7  C   UNL     1      10.213   4.364  23.688  0.00  0.00    +0.177 A 
ATOM      8  C   UNL     1      11.197   5.326  23.751  0.00  0.00    +0.116 A 
ATOM      9  C   UNL     1      10.563   6.483  24.227  0.00  0.00    +0.156 A 
ATOM     10  N   UNL     1       9.265   6.299  24.473  0.00  0.00    -0.170 NA
ATOM     11  N   UNL     1      10.235   3.054  23.291  0.00  0.00    -0.212 NA
ENDROOT
BRANCH   1  15
ATOM     12  C   UNL     1       8.888  -2.424  23.957  0.00  0.00    +0.051 C 
ATOM     13  C   UNL     1       8.804  -1.961  22.496  0.00  0.00    +0.020 C 
ATOM     14  C   UNL     1       9.974  -1.066  22.080  0.00  0.00    +0.024 C 
ATOM     15  C   UNL     1      10.157   0.138  23.011  0.00  0.00    +0.072 C 
ATOM     16  C   UNL     1      10.273  -0.329  24.474  0.00  0.00    +0.024 C 
ATOM     17  C   UNL     1       9.110  -1.235  24.901  0.00  0.00    +0.020 C 
BRANCH  12  18
ATOM     18  N   UNL     1       9.947  -3.416  24.145  0.00  0.00    -0.327 NA
ATOM     19  H   UNL     1       9.918  -4.094  23.382  0.00  0.00    +0.118 HD
ATOM     20  H   UNL     1      10.869  -2.986  24.098  0.00  0.00    +0.118 HD
ENDBRANCH  12  18
ENDBRANCH   1  15
BRANCH   5  21
ATOM     21  N   UNL     1       6.661   4.937  24.656  0.00  0.00    -0.327 N 
ATOM     22  H   UNL     1       6.933   5.732  25.247  0.00  0.00    +0.148 HD
BRANCH  21  23
ATOM     23  C   UNL     1       5.508   5.240  23.802  0.00  0.00    +0.066 C 
ATOM     24  C   UNL     1       5.949   6.136  22.649  0.00  0.00    +0.027 C 
ATOM     25  C   UNL     1       4.416   5.916  24.622  0.00  0.00    +0.027 C 
ENDBRANCH  21  23
ENDBRANCH   5  21
BRANCH   8  26
ATOM     26  C   UNL     1      12.567   5.165  23.404  0.00  0.00    +0.104 C 
ATOM     27  N   UNL     1      13.674   5.043  23.070  0.00  0.00    -0.191 NA
ENDBRANCH   8  26
TORSDOF 5
ENDMDL
MODEL 2
REMARK VINA RESULT:      -5.9      3.845      8.941
REMARK  Name = 
REMARK  7 active torsions:
REMARK  status: ('A' for Active; 'I' for Inactive)
REMARK    1  A    between atoms: C_2  and  N_3
REMARK    2  A    between atoms: C_6  and  N_10
REMARK    3  A    between atoms: C_14  and  C_24
REMARK    4  A    between atoms: C_18  and  N_19
REMARK    5  A    between atoms: N_19  and  C_20
REMARK    6  A    between atoms: C_20  and  C_21
REMARK    7  A    between atoms: C_20  and  C_22
REMARK                            x       y       z     vdW  Elec       q    Type
REMARK                         _______ _______ _______ _____ _____    ______ ____
ROOT
ATOM      1  N   UNL     1       9.192  -2.150  24.381  0.00  0.00    -0.326 N 
ATOM      2  H   UNL     1       9.492  -1.717  25.248  0.00  0.00    +0.148 HD
ATOM      3  C   UNL     1       8.256  -3.151  24.542  0.00  0.00    +0.125 A 
ATOM      4  C   UNL     1       7.952  -3.547  25.959  0.00  0.00    +0.087 A 
ATOM      5  C   UNL     1       7.033  -4.502  26.186  0.00  0.00    +0.126 A 
ATOM      6  N   UNL     1       6.423  -5.100  25.057  0.00  0.00    -0.199 N 
ATOM      7  C   UNL     1       6.761  -4.701  23.756  0.00  0.00    +0.177 A 
ATOM      8  C   UNL     1       6.017  -5.499  22.915  0.00  0.00    +0.116 A 
ATOM      9  C   UNL     1       5.274  -6.342  23.754  0.00  0.00    +0.156 A 
ATOM     10  N   UNL     1       5.497  -6.112  25.049  0.00  0.00    -0.170 NA
ATOM     11  N   UNL     1       7.670  -3.707  23.512  0.00  0.00    -0.212 NA
ENDROOT
BRANCH   1  15
ATOM     12  C   UNL     1       9.580   1.483  24.503  0.00  0.00    +0.051 C 
ATOM     13  C   UNL     1      10.745   0.500  24.322  0.00  0.00    +0.020 C 
ATOM     14  C   UNL     1      10.540  -0.469  23.156  0.00  0.00    +0.024 C 
ATOM     15  C   UNL     1       9.211  -1.228  23.246  0.00  0.00    +0.072 C 
ATOM     16  C   UNL     1       8.039  -0.241  23.395  0.00  0.00    +0.024 C 
ATOM     17  C   UNL     1       8.237   0.742  24.557  0.00  0.00    +0.020 C 
BRANCH  12  18
ATOM     18  N   UNL     1       9.556   2.487  23.439  0.00  0.00    -0.327 NA
ATOM     19  H   UNL     1       9.366   3.405  23.842  0.00  0.00    +0.118 HD
ATOM     20  H   UNL     1      10.465   2.565  22.985  0.00  0.00    +0.118 HD
ENDBRANCH  12  18
ENDBRANCH   1  15
BRANCH   5  21
ATOM     21  N   UNL     1       6.645  -4.902  27.475  0.00  0.00    -0.327 N 
ATOM     22  H   UNL     1       7.353  -4.609  28.158  0.00  0.00    +0.148 HD
BRANCH  21  23
ATOM     23  C   UNL     1       5.276  -4.729  27.973  0.00  0.00    +0.066 C 
ATOM     24  C   UNL     1       4.855  -3.272  27.813  0.00  0.00    +0.027 C 
ATOM     25  C   UNL     1       5.196  -5.156  29.434  0.00  0.00    +0.027 C 
ENDBRANCH  21  23
ENDBRANCH   5  21
BRANCH   8  26
ATOM     26  C   UNL     1       6.013  -5.464  21.493  0.00  0.00    +0.104 C 
ATOM     27  N   UNL     1       6.017  -5.486  20.331  0.00  0.00    -0.191 NA
ENDBRANCH   8  26
TORSDOF 5
ENDMDL
MODEL 3
REMARK VINA RESULT:      -5.9      4.051      8.792
REMARK  Name = 
REMARK  7 active torsions:
REMARK  status: ('A' for Active; 'I' for Inactive)
REMARK    1  A    between atoms: C_2  and  N_3
REMARK    2  A    between atoms: C_6  and  N_10
REMARK    3  A    between atoms: C_14  and  C_24
REMARK    4  A    between atoms: C_18  and  N_19
REMARK    5  A    between atoms: N_19  and  C_20
REMARK    6  A    between atoms: C_20  and  C_21
REMARK    7  A    between atoms: C_20  and  C_22
REMARK                            x       y       z     vdW  Elec       q    Type
REMARK                         _______ _______ _______ _____ _____    ______ ____
ROOT
ATOM      1  N   UNL     1       7.888  -1.267  24.179  0.00  0.00    -0.326 N 
ATOM      2  H   UNL     1       7.987  -0.666  24.990  0.00  0.00    +0.148 HD
ATOM      3  C   UNL     1       7.233  -2.455  24.431  0.00  0.00    +0.125 A 
ATOM      4  C   UNL     1       6.918  -2.741  25.872  0.00  0.00    +0.087 A 
ATOM      5  C   UNL     1       6.263  -3.873  26.184  0.00  0.00    +0.126 A 
ATOM      6  N   UNL     1       5.931  -4.747  25.121  0.00  0.00    -0.199 N 
ATOM      7  C   UNL     1       6.268  -4.434  23.796  0.00  0.00    +0.177 A 
ATOM      8  C   UNL     1       5.833  -5.500  23.038  0.00  0.00    +0.116 A 
ATOM      9  C   UNL     1       5.264  -6.402  23.949  0.00  0.00    +0.156 A 
ATOM     10  N   UNL     1       5.304  -5.963  25.208  0.00  0.00    -0.170 NA
ATOM     11  N   UNL     1       6.905  -3.270  23.461  0.00  0.00    -0.212 NA
ENDROOT
BRANCH   1  15
ATOM     12  C   UNL     1      10.150   1.320  22.933  0.00  0.00    +0.051 C 
ATOM     13  C   UNL     1      10.268  -0.168  22.576  0.00  0.00    +0.020 C 
ATOM     14  C   UNL     1       8.972  -0.755  22.010  0.00  0.00    +0.024 C 
ATOM     15  C   UNL     1       7.767  -0.520  22.927  0.00  0.00    +0.072 C 
ATOM     16  C   UNL     1       7.630   0.977  23.260  0.00  0.00    +0.024 C 
ATOM     17  C   UNL     1       8.926   1.580  23.820  0.00  0.00    +0.020 C 
BRANCH  12  18
ATOM     18  N   UNL     1      10.085   2.155  21.732  0.00  0.00    -0.327 NA
ATOM     19  H   UNL     1      10.275   3.126  21.983  0.00  0.00    +0.118 HD
ATOM     20  H   UNL     1      10.807   1.895  21.063  0.00  0.00    +0.118 HD
ENDBRANCH  12  18
ENDBRANCH   1  15
BRANCH   5  21
ATOM     21  N   UNL     1       5.880  -4.201  27.494  0.00  0.00    -0.327 N 
ATOM     22  H   UNL     1       6.713  -4.298  28.086  0.00  0.00    +0.148 HD
BRANCH  21  23
ATOM     23  C   UNL     1       4.775  -3.525  28.183  0.00  0.00    +0.066 C 
ATOM     24  C   UNL     1       4.453  -4.264  29.478  0.00  0.00    +0.027 C 
ATOM     25  C   UNL     1       3.552  -3.470  27.275  0.00  0.00    +0.027 C 
ENDBRANCH  21  23
ENDBRANCH   5  21
BRANCH   8  26
ATOM     26  C   UNL     1       5.946  -5.642  21.628  0.00  0.00    +0.104 C 
ATOM     27  N   UNL     1       5.991  -5.738  20.470  0.00  0.00    -0.191 NA
ENDBRANCH   8  26
TORSDOF 5
ENDMDL
MODEL 4
REMARK VINA RESULT:      -5.6      3.886      8.385
REMARK  Name = 
REMARK  7 active torsions:
REMARK  status: ('A' for Active; 'I' for Inactive)
REMARK    1  A    between atoms: C_2  and  N_3
REMARK    2  A    between atoms: C_6  and  N_10
REMARK    3  A    between atoms: C_14  and  C_24
REMARK    4  A    between atoms: C_18  and  N_19
REMARK    5  A    between atoms: N_19  and  C_20
REMARK    6  A    between atoms: C_20  and  C_21
REMARK    7  A    between atoms: C_20  and  C_22
REMARK                            x       y       z     vdW  Elec       q    Type
REMARK                         _______ _______ _______ _____ _____    ______ ____
ROOT
ATOM      1  N   UNL     1       6.795  -0.474  22.946  0.00  0.00    -0.326 N 
ATOM      2  H   UNL     1       7.275  -0.764  22.100  0.00  0.00    +0.148 HD
ATOM      3  C   UNL     1       6.465  -1.510  23.794  0.00  0.00    +0.125 A 
ATOM      4  C   UNL     1       6.717  -2.896  23.270  0.00  0.00    +0.087 A 
ATOM      5  C   UNL     1       6.436  -3.951  24.055  0.00  0.00    +0.126 A 
ATOM      6  N   UNL     1       5.887  -3.684  25.332  0.00  0.00    -0.199 N 
ATOM      7  C   UNL     1       5.657  -2.368  25.760  0.00  0.00    +0.177 A 
ATOM      8  C   UNL     1       5.096  -2.476  27.014  0.00  0.00    +0.116 A 
ATOM      9  C   UNL     1       5.011  -3.851  27.273  0.00  0.00    +0.156 A 
ATOM     10  N   UNL     1       5.491  -4.597  26.276  0.00  0.00    -0.170 NA
ATOM     11  N   UNL     1       5.970  -1.285  24.984  0.00  0.00    -0.212 NA
ENDROOT
BRANCH   1  15
ATOM     12  C   UNL     1       9.786   1.381  21.955  0.00  0.00    +0.051 C 
ATOM     13  C   UNL     1       8.421   1.522  21.267  0.00  0.00    +0.020 C 
ATOM     14  C   UNL     1       7.287   1.851  22.242  0.00  0.00    +0.024 C 
ATOM     15  C   UNL     1       7.199   0.855  23.404  0.00  0.00    +0.072 C 
ATOM     16  C   UNL     1       8.560   0.738  24.113  0.00  0.00    +0.024 C 
ATOM     17  C   UNL     1       9.707   0.416  23.145  0.00  0.00    +0.020 C 
BRANCH  12  18
ATOM     18  N   UNL     1      10.300   2.679  22.395  0.00  0.00    -0.327 NA
ATOM     19  H   UNL     1       9.547   3.215  22.826  0.00  0.00    +0.118 HD
ATOM     20  H   UNL     1      11.010   2.568  23.117  0.00  0.00    +0.118 HD
ENDBRANCH  12  18
ENDBRANCH   1  15
BRANCH   5  21
ATOM     21  N   UNL     1       6.685  -5.279  23.673  0.00  0.00    -0.327 N 
ATOM     22  H   UNL     1       6.958  -5.832  24.494  0.00  0.00    +0.148 HD
BRANCH  21  23
ATOM     23  C   UNL     1       5.798  -6.016  22.767  0.00  0.00    +0.066 C 
ATOM     24  C   UNL     1       6.247  -5.802  21.326  0.00  0.00    +0.027 C 
ATOM     25  C   UNL     1       4.358  -5.552  22.957  0.00  0.00    +0.027 C 
ENDBRANCH  21  23
ENDBRANCH   5  21
BRANCH   8  26
ATOM     26  C   UNL     1       4.692  -1.405  27.858  0.00  0.00    +0.104 C 
ATOM     27  N   UNL     1       4.407  -0.508  28.541  0.00  0.00    -0.191 NA
ENDBRANCH   8  26
TORSDOF 5
ENDMDL
MODEL 5
REMARK VINA RESULT:      -5.6      1.888      2.168
REMARK  Name = 
REMARK  7 active torsions:
REMARK  status: ('A' for Active; 'I' for Inactive)
REMARK    1  A    between atoms: C_2  and  N_3
REMARK    2  A    between atoms: C_6  and  N_10
REMARK    3  A    between atoms: C_14  and  C_24
REMARK    4  A    between atoms: C_18  and  N_19
REMARK    5  A    between atoms: N_19  and  C_20
REMARK    6  A    between atoms: C_20  and  C_21
REMARK    7  A    between atoms: C_20  and  C_22
REMARK                            x       y       z     vdW  Elec       q    Type
REMARK                         _______ _______ _______ _____ _____    ______ ____
ROOT
ATOM      1  N   UNL     1       8.395   1.023  22.500  0.00  0.00    -0.326 N 
ATOM      2  H   UNL     1       7.638   0.373  22.315  0.00  0.00    +0.148 HD
ATOM      3  C   UNL     1       7.993   2.334  22.646  0.00  0.00    +0.125 A 
ATOM      4  C   UNL     1       6.546   2.616  22.354  0.00  0.00    +0.087 A 
ATOM      5  C   UNL     1       6.084   3.871  22.497  0.00  0.00    +0.126 A 
ATOM      6  N   UNL     1       7.011   4.865  22.894  0.00  0.00    -0.199 N 
ATOM      7  C   UNL     1       8.355   4.544  23.135  0.00  0.00    +0.177 A 
ATOM      8  C   UNL     1       8.970   5.733  23.463  0.00  0.00    +0.116 A 
ATOM      9  C   UNL     1       7.964   6.709  23.394  0.00  0.00    +0.156 A 
ATOM     10  N   UNL     1       6.775   6.205  23.063  0.00  0.00    -0.170 NA
ATOM     11  N   UNL     1       8.831   3.265  23.025  0.00  0.00    -0.212 NA
ENDROOT
BRANCH   1  15
ATOM     12  C   UNL     1       8.828  -2.516  23.306  0.00  0.00    +0.051 C 
ATOM     13  C   UNL     1       9.432  -1.837  22.069  0.00  0.00    +0.020 C 
ATOM     14  C   UNL     1      10.266  -0.600  22.408  0.00  0.00    +0.024 C 
ATOM     15  C   UNL     1       9.494   0.420  23.253  0.00  0.00    +0.072 C 
ATOM     16  C   UNL     1       8.915  -0.255  24.510  0.00  0.00    +0.024 C 
ATOM     17  C   UNL     1       8.083  -1.503  24.183  0.00  0.00    +0.020 C 
BRANCH  12  18
ATOM     18  N   UNL     1       9.853  -3.203  24.093  0.00  0.00    -0.327 NA
ATOM     19  H   UNL     1       9.879  -2.810  25.035  0.00  0.00    +0.118 HD
ATOM     20  H   UNL     1       9.628  -4.189  24.210  0.00  0.00    +0.118 HD
ENDBRANCH  12  18
ENDBRANCH   1  15
BRANCH   5  21
ATOM     21  N   UNL     1       4.739   4.220  22.298  0.00  0.00    -0.327 N 
ATOM     22  H   UNL     1       4.622   4.636  21.366  0.00  0.00    +0.148 HD
BRANCH  21  23
ATOM     23  C   UNL     1       3.633   3.328  22.660  0.00  0.00    +0.066 C 
ATOM     24  C   UNL     1       2.581   3.345  21.555  0.00  0.00    +0.027 C 
ATOM     25  C   UNL     1       3.025   3.765  23.988  0.00  0.00    +0.027 C 
ENDBRANCH  21  23
ENDBRANCH   5  21
BRANCH   8  26
ATOM     26  C   UNL     1      10.339   5.918  23.797  0.00  0.00    +0.104 C 
ATOM     27  N   UNL     1      11.460   6.021  24.092  0.00  0.00    -0.191 NA
ENDBRANCH   8  26
TORSDOF 5
ENDMDL
MODEL 6
REMARK VINA RESULT:      -5.4      3.422      6.103
REMARK  Name = 
REMARK  7 active torsions:
REMARK  status: ('A' for Active; 'I' for Inactive)
REMARK    1  A    between atoms: C_2  and  N_3
REMARK    2  A    between atoms: C_6  and  N_10
REMARK    3  A    between atoms: C_14  and  C_24
REMARK    4  A    between atoms: C_18  and  N_19
REMARK    5  A    between atoms: N_19  and  C_20
REMARK    6  A    between atoms: C_20  and  C_21
REMARK    7  A    between atoms: C_20  and  C_22
REMARK                            x       y       z     vdW  Elec       q    Type
REMARK                         _______ _______ _______ _____ _____    ______ ____
ROOT
ATOM      1  N   UNL     1       7.492  -2.997  24.356  0.00  0.00    -0.326 N 
ATOM      2  H   UNL     1       8.229  -3.256  23.709  0.00  0.00    +0.148 HD
ATOM      3  C   UNL     1       7.541  -1.684  24.776  0.00  0.00    +0.125 A 
ATOM      4  C   UNL     1       8.748  -0.900  24.344  0.00  0.00    +0.087 A 
ATOM      5  C   UNL     1       8.847   0.392  24.702  0.00  0.00    +0.126 A 
ATOM      6  N   UNL     1       7.807   0.930  25.496  0.00  0.00    -0.199 N 
ATOM      7  C   UNL     1       6.712   0.143  25.884  0.00  0.00    +0.177 A 
ATOM      8  C   UNL     1       5.922   0.959  26.663  0.00  0.00    +0.116 A 
ATOM      9  C   UNL     1       6.586   2.194  26.710  0.00  0.00    +0.156 A 
ATOM     10  N   UNL     1       7.718   2.201  26.005  0.00  0.00    -0.170 NA
ATOM     11  N   UNL     1       6.583  -1.164  25.499  0.00  0.00    -0.212 NA
ENDROOT
BRANCH   1  15
ATOM     12  C   UNL     1       6.743  -5.247  21.574  0.00  0.00    +0.051 C 
ATOM     13  C   UNL     1       7.317  -5.709  22.921  0.00  0.00    +0.020 C 
ATOM     14  C   UNL     1       6.483  -5.249  24.119  0.00  0.00    +0.024 C 
ATOM     15  C   UNL     1       6.249  -3.734  24.129  0.00  0.00    +0.072 C 
ATOM     16  C   UNL     1       5.645  -3.275  22.789  0.00  0.00    +0.024 C 
ATOM     17  C   UNL     1       6.468  -3.738  21.579  0.00  0.00    +0.020 C 
BRANCH  12  18
ATOM     18  N   UNL     1       5.522  -5.979  21.232  0.00  0.00    -0.327 NA
ATOM     19  H   UNL     1       5.544  -6.900  21.671  0.00  0.00    +0.118 HD
ATOM     20  H   UNL     1       4.697  -5.513  21.605  0.00  0.00    +0.118 HD
ENDBRANCH  12  18
ENDBRANCH   1  15
BRANCH   5  21
ATOM     21  N   UNL     1       9.910   1.219  24.303  0.00  0.00    -0.327 N 
ATOM     22  H   UNL     1      10.768   0.662  24.208  0.00  0.00    +0.148 HD
BRANCH  21  23
ATOM     23  C   UNL     1       9.770   2.223  23.242  0.00  0.00    +0.066 C 
ATOM     24  C   UNL     1       9.836   1.538  21.880  0.00  0.00    +0.027 C 
ATOM     25  C   UNL     1      10.869   3.272  23.370  0.00  0.00    +0.027 C 
ENDBRANCH  21  23
ENDBRANCH   5  21
BRANCH   8  26
ATOM     26  C   UNL     1       4.692   0.609  27.285  0.00  0.00    +0.104 C 
ATOM     27  N   UNL     1       3.691   0.275  27.773  0.00  0.00    -0.191 NA
ENDBRANCH   8  26
TORSDOF 5
ENDMDL
MODEL 7
REMARK VINA RESULT:      -5.3      3.130      5.820
REMARK  Name = 
REMARK  7 active torsions:
REMARK  status: ('A' for Active; 'I' for Inactive)
REMARK    1  A    between atoms: C_2  and  N_3
REMARK    2  A    between atoms: C_6  and  N_10
REMARK    3  A    between atoms: C_14  and  C_24
REMARK    4  A    between atoms: C_18  and  N_19
REMARK    5  A    between atoms: N_19  and  C_20
REMARK    6  A    between atoms: C_20  and  C_21
REMARK    7  A    between atoms: C_20  and  C_22
REMARK                            x       y       z     vdW  Elec       q    Type
REMARK                         _______ _______ _______ _____ _____    ______ ____
ROOT
ATOM      1  N   UNL     1       6.841  -2.344  24.358  0.00  0.00    -0.326 N 
ATOM      2  H   UNL     1       7.666  -2.866  24.082  0.00  0.00    +0.148 HD
ATOM      3  C   UNL     1       7.070  -1.005  24.597  0.00  0.00    +0.125 A 
ATOM      4  C   UNL     1       8.507  -0.567  24.570  0.00  0.00    +0.087 A 
ATOM      5  C   UNL     1       8.797   0.729  24.775  0.00  0.00    +0.126 A 
ATOM      6  N   UNL     1       7.716   1.606  25.032  0.00  0.00    -0.199 N 
ATOM      7  C   UNL     1       6.395   1.135  25.063  0.00  0.00    +0.177 A 
ATOM      8  C   UNL     1       5.615   2.230  25.369  0.00  0.00    +0.116 A 
ATOM      9  C   UNL     1       6.509   3.301  25.514  0.00  0.00    +0.156 A 
ATOM     10  N   UNL     1       7.779   2.949  25.306  0.00  0.00    -0.170 NA
ATOM     11  N   UNL     1       6.083  -0.176  24.823  0.00  0.00    -0.212 NA
ENDROOT
BRANCH   1  15
ATOM     12  C   UNL     1       6.447  -5.474  22.510  0.00  0.00    +0.051 C 
ATOM     13  C   UNL     1       6.208  -5.332  24.019  0.00  0.00    +0.020 C 
ATOM     14  C   UNL     1       5.218  -4.218  24.369  0.00  0.00    +0.024 C 
ATOM     15  C   UNL     1       5.611  -2.866  23.762  0.00  0.00    +0.072 C 
ATOM     16  C   UNL     1       5.821  -3.002  22.243  0.00  0.00    +0.024 C 
ATOM     17  C   UNL     1       6.805  -4.122  21.878  0.00  0.00    +0.020 C 
BRANCH  12  18
ATOM     18  N   UNL     1       5.283  -6.050  21.835  0.00  0.00    -0.327 NA
ATOM     19  H   UNL     1       5.163  -7.019  22.132  0.00  0.00    +0.118 HD
ATOM     20  H   UNL     1       4.426  -5.569  22.102  0.00  0.00    +0.118 HD
ENDBRANCH  12  18
ENDBRANCH   1  15
BRANCH   5  21
ATOM     21  N   UNL     1      10.103   1.241  24.717  0.00  0.00    -0.327 N 
ATOM     22  H   UNL     1      10.741   0.628  25.240  0.00  0.00    +0.148 HD
BRANCH  21  23
ATOM     23  C   UNL     1      10.698   1.741  23.473  0.00  0.00    +0.066 C 
ATOM     24  C   UNL     1      10.825   3.260  23.543  0.00  0.00    +0.027 C 
ATOM     25  C   UNL     1       9.840   1.327  22.283  0.00  0.00    +0.027 C 
ENDBRANCH  21  23
ENDBRANCH   5  21
BRANCH   8  26
ATOM     26  C   UNL     1       4.201   2.252  25.507  0.00  0.00    +0.104 C 
ATOM     27  N   UNL     1       3.048   2.247  25.664  0.00  0.00    -0.191 NA
ENDBRANCH   8  26
TORSDOF 5
ENDMDL
MODEL 8
REMARK VINA RESULT:      -5.2      3.863      8.214
REMARK  Name = 
REMARK  7 active torsions:
REMARK  status: ('A' for Active; 'I' for Inactive)
REMARK    1  A    between atoms: C_2  and  N_3
REMARK    2  A    between atoms: C_6  and  N_10
REMARK    3  A    between atoms: C_14  and  C_24
REMARK    4  A    between atoms: C_18  and  N_19
REMARK    5  A    between atoms: N_19  and  C_20
REMARK    6  A    between atoms: C_20  and  C_21
REMARK    7  A    between atoms: C_20  and  C_22
REMARK                            x       y       z     vdW  Elec       q    Type
REMARK                         _______ _______ _______ _____ _____    ______ ____
ROOT
ATOM      1  N   UNL     1       6.913  -0.316  23.095  0.00  0.00    -0.326 N 
ATOM      2  H   UNL     1       7.613  -0.793  22.537  0.00  0.00    +0.148 HD
ATOM      3  C   UNL     1       6.304  -1.112  24.042  0.00  0.00    +0.125 A 
ATOM      4  C   UNL     1       6.649  -2.574  23.994  0.00  0.00    +0.087 A 
ATOM      5  C   UNL     1       6.105  -3.402  24.903  0.00  0.00    +0.126 A 
ATOM      6  N   UNL     1       5.210  -2.840  25.844  0.00  0.00    -0.199 N 
ATOM      7  C   UNL     1       4.912  -1.469  25.828  0.00  0.00    +0.177 A 
ATOM      8  C   UNL     1       3.997  -1.274  26.840  0.00  0.00    +0.116 A 
ATOM      9  C   UNL     1       3.786  -2.539  27.407  0.00  0.00    +0.156 A 
ATOM     10  N   UNL     1       4.514  -3.495  26.828  0.00  0.00    -0.170 NA
ATOM     11  N   UNL     1       5.484  -0.610  24.929  0.00  0.00    -0.212 NA
ENDROOT
BRANCH   1  15
ATOM     12  C   UNL     1       9.961   1.450  22.119  0.00  0.00    +0.051 C 
ATOM     13  C   UNL     1       8.704   1.358  21.243  0.00  0.00    +0.020 C 
ATOM     14  C   UNL     1       7.435   1.825  21.960  0.00  0.00    +0.024 C 
ATOM     15  C   UNL     1       7.210   1.102  23.293  0.00  0.00    +0.072 C 
ATOM     16  C   UNL     1       8.460   1.221  24.185  0.00  0.00    +0.024 C 
ATOM     17  C   UNL     1       9.741   0.765  23.474  0.00  0.00    +0.020 C 
BRANCH  12  18
ATOM     18  N   UNL     1      10.372   2.840  22.322  0.00  0.00    -0.327 NA
ATOM     19  H   UNL     1      10.936   2.908  23.170  0.00  0.00    +0.118 HD
ATOM     20  H   UNL     1      10.971   3.162  21.564  0.00  0.00    +0.118 HD
ENDBRANCH  12  18
ENDBRANCH   1  15
BRANCH   5  21
ATOM     21  N   UNL     1       6.407  -4.772  24.970  0.00  0.00    -0.327 N 
ATOM     22  H   UNL     1       6.215  -5.216  24.064  0.00  0.00    +0.148 HD
BRANCH  21  23
ATOM     23  C   UNL     1       7.634  -5.277  25.595  0.00  0.00    +0.066 C 
ATOM     24  C   UNL     1       8.037  -4.358  26.744  0.00  0.00    +0.027 C 
ATOM     25  C   UNL     1       8.749  -5.363  24.559  0.00  0.00    +0.027 C 
ENDBRANCH  21  23
ENDBRANCH   5  21
BRANCH   8  26
ATOM     26  C   UNL     1       3.399  -0.041  27.218  0.00  0.00    +0.104 C 
ATOM     27  N   UNL     1       2.920   0.986  27.480  0.00  0.00    -0.191 NA
ENDBRANCH   8  26
TORSDOF 5
ENDMDL
MODEL 9
REMARK VINA RESULT:      -5.1      4.288      6.941
REMARK  Name = 
REMARK  7 active torsions:
REMARK  status: ('A' for Active; 'I' for Inactive)
REMARK    1  A    between atoms: C_2  and  N_3
REMARK    2  A    between atoms: C_6  and  N_10
REMARK    3  A    between atoms: C_14  and  C_24
REMARK    4  A    between atoms: C_18  and  N_19
REMARK    5  A    between atoms: N_19  and  C_20
REMARK    6  A    between atoms: C_20  and  C_21
REMARK    7  A    between atoms: C_20  and  C_22
REMARK                            x       y       z     vdW  Elec       q    Type
REMARK                         _______ _______ _______ _____ _____    ______ ____
ROOT
ATOM      1  N   UNL     1       5.649  -3.176  24.272  0.00  0.00    -0.326 N 
ATOM      2  H   UNL     1       6.129  -3.622  23.497  0.00  0.00    +0.148 HD
ATOM      3  C   UNL     1       5.821  -1.809  24.335  0.00  0.00    +0.125 A 
ATOM      4  C   UNL     1       6.805  -1.224  23.362  0.00  0.00    +0.087 A 
ATOM      5  C   UNL     1       7.005   0.106  23.357  0.00  0.00    +0.126 A 
ATOM      6  N   UNL     1       6.284   0.876  24.301  0.00  0.00    -0.199 N 
ATOM      7  C   UNL     1       5.392   0.271  25.198  0.00  0.00    +0.177 A 
ATOM      8  C   UNL     1       4.899   1.292  25.981  0.00  0.00    +0.116 A 
ATOM      9  C   UNL     1       5.527   2.458  25.520  0.00  0.00    +0.156 A 
ATOM     10  N   UNL     1       6.358   2.231  24.501  0.00  0.00    -0.170 NA
ATOM     11  N   UNL     1       5.154  -1.077  25.191  0.00  0.00    -0.212 NA
ENDROOT
BRANCH   1  15
ATOM     12  C   UNL     1       4.942  -6.753  24.011  0.00  0.00    +0.051 C 
ATOM     13  C   UNL     1       5.495  -6.077  25.273  0.00  0.00    +0.020 C 
ATOM     14  C   UNL     1       4.643  -4.897  25.746  0.00  0.00    +0.024 C 
ATOM     15  C   UNL     1       4.409  -3.858  24.643  0.00  0.00    +0.072 C 
ATOM     16  C   UNL     1       3.825  -4.532  23.387  0.00  0.00    +0.024 C 
ATOM     17  C   UNL     1       4.666  -5.723  22.909  0.00  0.00    +0.020 C 
BRANCH  12  18
ATOM     18  N   UNL     1       3.727  -7.516  24.301  0.00  0.00    -0.327 NA
ATOM     19  H   UNL     1       2.978  -6.874  24.563  0.00  0.00    +0.118 HD
ATOM     20  H   UNL     1       3.395  -8.007  23.473  0.00  0.00    +0.118 HD
ENDBRANCH  12  18
ENDBRANCH   1  15
BRANCH   5  21
ATOM     21  N   UNL     1       7.864   0.749  22.451  0.00  0.00    -0.327 N 
ATOM     22  H   UNL     1       7.600   1.738  22.364  0.00  0.00    +0.148 HD
BRANCH  21  23
ATOM     23  C   UNL     1       9.317   0.554  22.473  0.00  0.00    +0.066 C 
ATOM     24  C   UNL     1      10.014   1.871  22.144  0.00  0.00    +0.027 C 
ATOM     25  C   UNL     1       9.712  -0.528  21.473  0.00  0.00    +0.027 C 
ENDBRANCH  21  23
ENDBRANCH   5  21
BRANCH   8  26
ATOM     26  C   UNL     1       3.952   1.172  27.035  0.00  0.00    +0.104 C 
ATOM     27  N   UNL     1       3.165   1.124  27.890  0.00  0.00    -0.191 NA
ENDBRANCH   8  26
TORSDOF 5
ENDMDL
