MODEL 1
REMARK VINA RESULT:      -7.2      0.000      0.000
REMARK  Name = 
REMARK  9 active torsions:
REMARK  status: ('A' for Active; 'I' for Inactive)
REMARK    1  A    between atoms: C_1  and  C_2
REMARK    2  A    between atoms: C_2  and  O_3
REMARK    3  A    between atoms: C_2  and  C_4
REMARK    4  A    between atoms: C_2  and  C_14
REMARK    5  A    between atoms: C_4  and  O_5
REMARK    6  A    between atoms: O_5  and  C_6
REMARK    7  A    between atoms: N_16  and  C_17
REMARK    8  A    between atoms: C_19  and  C_25
REMARK    9  A    between atoms: C_20  and  C_23
REMARK                            x       y       z     vdW  Elec       q    Type
REMARK                         _______ _______ _______ _____ _____    ______ ____
ROOT
ATOM      1  C   UNL     1       8.872  -3.543  24.262  0.00  0.00    +0.252 C 
ATOM      2  N   UNL     1       7.947  -2.529  24.453  0.00  0.00    -0.283 N 
ATOM      3  H   UNL     1       7.002  -2.777  24.716  0.00  0.00    +0.155 HD
ATOM      4  O   UNL     1      10.079  -3.340  24.112  0.00  0.00    -0.272 OA
ENDROOT
BRANCH   2   5
ATOM      5  C   UNL     1       8.206  -1.145  24.357  0.00  0.00    +0.034 A 
ATOM      6  C   UNL     1       8.123  -0.374  25.521  0.00  0.00    +0.024 A 
ATOM      7  C   UNL     1       8.418   0.991  25.483  0.00  0.00    +0.021 A 
ATOM      8  C   UNL     1       8.773   1.616  24.277  0.00  0.00    +0.064 A 
ATOM      9  C   UNL     1       8.815   0.861  23.096  0.00  0.00    +0.074 A 
ATOM     10  C   UNL     1       8.529  -0.514  23.154  0.00  0.00    +0.037 A 
BRANCH   9  11
ATOM     11  C   UNL     1       9.164   1.490  21.768  0.00  0.00    +0.419 C 
ATOM     12  F   UNL     1       8.326   2.508  21.440  0.00  0.00    -0.166 F 
ATOM     13  F   UNL     1       9.108   0.597  20.744  0.00  0.00    -0.166 F 
ATOM     14  F   UNL     1      10.420   2.014  21.727  0.00  0.00    -0.166 F 
ENDBRANCH   9  11
BRANCH   8  15
ATOM     15  C   UNL     1       9.081   3.018  24.287  0.00  0.00    +0.100 C 
ATOM     16  N   UNL     1       9.325   4.153  24.306  0.00  0.00    -0.191 NA
ENDBRANCH   8  15
ENDBRANCH   2   5
BRANCH   1  18
ATOM     17  C   UNL     1       7.790  -5.442  23.055  0.00  0.00    +0.055 C 
ATOM     18  C   UNL     1       8.366  -5.011  24.412  0.00  0.00    +0.173 C 
BRANCH  18  19
ATOM     19  O   UNL     1       9.483  -5.874  24.689  0.00  0.00    -0.376 OA
ATOM     20  H   UNL     1       9.912  -5.559  25.505  0.00  0.00    +0.211 HD
ENDBRANCH  18  19
BRANCH  18  21
ATOM     21  C   UNL     1       7.340  -5.246  25.526  0.00  0.00    +0.273 C 
BRANCH  21  22
ATOM     22  O   UNL     1       6.133  -4.543  25.236  0.00  0.00    -0.489 OA
BRANCH  22  23
ATOM     23  C   UNL     1       5.041  -5.284  24.894  0.00  0.00    +0.123 A 
ATOM     24  C   UNL     1       4.081  -4.934  23.947  0.00  0.00    +0.085 A 
ATOM     25  C   UNL     1       3.029  -5.808  23.679  0.00  0.00    +0.145 A 
ATOM     26  F   UNL     1       2.128  -5.453  22.750  0.00  0.00    -0.204 F 
ATOM     27  C   UNL     1       2.917  -7.023  24.350  0.00  0.00    +0.076 A 
ATOM     28 CL   UNL     1       1.623  -8.102  24.008  0.00  0.00    -0.081 Cl
ATOM     29  C   UNL     1       3.869  -7.371  25.306  0.00  0.00    +0.026 A 
ATOM     30  C   UNL     1       4.928  -6.501  25.573  0.00  0.00    +0.047 A 
ENDBRANCH  22  23
ENDBRANCH  21  22
ENDBRANCH  18  21
ENDBRANCH   1  18
TORSDOF 8
ENDMDL
MODEL 2
REMARK VINA RESULT:      -6.9      4.093      8.881
REMARK  Name = 
REMARK  9 active torsions:
REMARK  status: ('A' for Active; 'I' for Inactive)
REMARK    1  A    between atoms: C_1  and  C_2
REMARK    2  A    between atoms: C_2  and  O_3
REMARK    3  A    between atoms: C_2  and  C_4
REMARK    4  A    between atoms: C_2  and  C_14
REMARK    5  A    between atoms: C_4  and  O_5
REMARK    6  A    between atoms: O_5  and  C_6
REMARK    7  A    between atoms: N_16  and  C_17
REMARK    8  A    between atoms: C_19  and  C_25
REMARK    9  A    between atoms: C_20  and  C_23
REMARK                            x       y       z     vdW  Elec       q    Type
REMARK                         _______ _______ _______ _____ _____    ______ ____
ROOT
ATOM      1  C   UNL     1       8.322  -1.827  22.779  0.00  0.00    +0.252 C 
ATOM      2  N   UNL     1       8.504  -3.130  23.217  0.00  0.00    -0.283 N 
ATOM      3  H   UNL     1       9.448  -3.470  23.349  0.00  0.00    +0.155 HD
ATOM      4  O   UNL     1       7.223  -1.267  22.754  0.00  0.00    -0.272 OA
ENDROOT
BRANCH   2   5
ATOM      5  C   UNL     1       7.478  -4.041  23.547  0.00  0.00    +0.034 A 
ATOM      6  C   UNL     1       6.908  -4.796  22.517  0.00  0.00    +0.024 A 
ATOM      7  C   UNL     1       5.923  -5.745  22.802  0.00  0.00    +0.021 A 
ATOM      8  C   UNL     1       5.470  -5.936  24.118  0.00  0.00    +0.064 A 
ATOM      9  C   UNL     1       6.003  -5.152  25.151  0.00  0.00    +0.074 A 
ATOM     10  C   UNL     1       7.002  -4.212  24.848  0.00  0.00    +0.037 A 
BRANCH   9  11
ATOM     11  C   UNL     1       5.530  -5.298  26.578  0.00  0.00    +0.419 C 
ATOM     12  F   UNL     1       4.238  -4.908  26.740  0.00  0.00    -0.166 F 
ATOM     13  F   UNL     1       6.269  -4.556  27.445  0.00  0.00    -0.166 F 
ATOM     14  F   UNL     1       5.593  -6.575  27.045  0.00  0.00    -0.166 F 
ENDBRANCH   9  11
BRANCH   8  15
ATOM     15  C   UNL     1       4.466  -6.931  24.367  0.00  0.00    +0.100 C 
ATOM     16  N   UNL     1       3.647  -7.731  24.561  0.00  0.00    -0.191 NA
ENDBRANCH   8  15
ENDBRANCH   2   5
BRANCH   1  18
ATOM     17  C   UNL     1      10.191  -0.526  23.801  0.00  0.00    +0.055 C 
ATOM     18  C   UNL     1       9.601  -0.993  22.463  0.00  0.00    +0.173 C 
BRANCH  18  19
ATOM     19  O   UNL     1      10.583  -1.843  21.843  0.00  0.00    -0.376 OA
ATOM     20  H   UNL     1      11.457  -1.611  22.208  0.00  0.00    +0.211 HD
ENDBRANCH  18  19
BRANCH  18  21
ATOM     21  C   UNL     1       9.398   0.201  21.524  0.00  0.00    +0.273 C 
BRANCH  21  22
ATOM     22  O   UNL     1      10.053   1.353  22.049  0.00  0.00    -0.489 OA
BRANCH  22  23
ATOM     23  C   UNL     1       9.269   2.366  22.514  0.00  0.00    +0.123 A 
ATOM     24  C   UNL     1       9.618   3.283  23.504  0.00  0.00    +0.085 A 
ATOM     25  C   UNL     1       8.720   4.288  23.857  0.00  0.00    +0.145 A 
ATOM     26  F   UNL     1       9.090   5.168  24.801  0.00  0.00    -0.204 F 
ATOM     27  C   UNL     1       7.474   4.386  23.243  0.00  0.00    +0.076 A 
ATOM     28 CL   UNL     1       6.375   5.635  23.678  0.00  0.00    -0.081 Cl
ATOM     29  C   UNL     1       7.117   3.464  22.261  0.00  0.00    +0.026 A 
ATOM     30  C   UNL     1       8.016   2.459  21.899  0.00  0.00    +0.047 A 
ENDBRANCH  22  23
ENDBRANCH  21  22
ENDBRANCH  18  21
ENDBRANCH   1  18
TORSDOF 8
ENDMDL
MODEL 3
REMARK VINA RESULT:      -6.9      1.842      2.104
REMARK  Name = 
REMARK  9 active torsions:
REMARK  status: ('A' for Active; 'I' for Inactive)
REMARK    1  A    between atoms: C_1  and  C_2
REMARK    2  A    between atoms: C_2  and  O_3
REMARK    3  A    between atoms: C_2  and  C_4
REMARK    4  A    between atoms: C_2  and  C_14
REMARK    5  A    between atoms: C_4  and  O_5
REMARK    6  A    between atoms: O_5  and  C_6
REMARK    7  A    between atoms: N_16  and  C_17
REMARK    8  A    between atoms: C_19  and  C_25
REMARK    9  A    between atoms: C_20  and  C_23
REMARK                            x       y       z     vdW  Elec       q    Type
REMARK                         _______ _______ _______ _____ _____    ______ ____
ROOT
ATOM      1  C   UNL     1       9.007  -3.529  24.350  0.00  0.00    +0.252 C 
ATOM      2  N   UNL     1       8.076  -2.527  24.579  0.00  0.00    -0.283 N 
ATOM      3  H   UNL     1       7.154  -2.787  24.904  0.00  0.00    +0.155 HD
ATOM      4  O   UNL     1      10.199  -3.308  24.124  0.00  0.00    -0.272 OA
ENDROOT
BRANCH   2   5
ATOM      5  C   UNL     1       8.304  -1.141  24.443  0.00  0.00    +0.034 A 
ATOM      6  C   UNL     1       8.217  -0.341  25.587  0.00  0.00    +0.024 A 
ATOM      7  C   UNL     1       8.481   1.029  25.509  0.00  0.00    +0.021 A 
ATOM      8  C   UNL     1       8.809   1.628  24.282  0.00  0.00    +0.064 A 
ATOM      9  C   UNL     1       8.855   0.842  23.121  0.00  0.00    +0.074 A 
ATOM     10  C   UNL     1       8.599  -0.536  23.220  0.00  0.00    +0.037 A 
BRANCH   9  11
ATOM     11  C   UNL     1       9.174   1.443  21.773  0.00  0.00    +0.419 C 
ATOM     12  F   UNL     1       8.316   2.440  21.432  0.00  0.00    -0.166 F 
ATOM     13  F   UNL     1       9.116   0.524  20.772  0.00  0.00    -0.166 F 
ATOM     14  F   UNL     1      10.421   1.984  21.699  0.00  0.00    -0.166 F 
ENDBRANCH   9  11
BRANCH   8  15
ATOM     15  C   UNL     1       9.086   3.036  24.251  0.00  0.00    +0.100 C 
ATOM     16  N   UNL     1       9.298   4.178  24.227  0.00  0.00    -0.191 NA
ENDBRANCH   8  15
ENDBRANCH   2   5
BRANCH   1  18
ATOM     17  C   UNL     1       7.630  -5.368  23.374  0.00  0.00    +0.055 C 
ATOM     18  C   UNL     1       8.538  -5.002  24.557  0.00  0.00    +0.173 C 
BRANCH  18  19
ATOM     19  O   UNL     1       9.678  -5.877  24.500  0.00  0.00    -0.376 OA
ATOM     20  H   UNL     1       9.896  -6.148  25.411  0.00  0.00    +0.211 HD
ENDBRANCH  18  19
BRANCH  18  21
ATOM     21  C   UNL     1       7.827  -5.290  25.884  0.00  0.00    +0.273 C 
BRANCH  21  22
ATOM     22  O   UNL     1       6.460  -4.890  25.803  0.00  0.00    -0.489 OA
BRANCH  22  23
ATOM     23  C   UNL     1       5.580  -5.485  26.658  0.00  0.00    +0.123 A 
ATOM     24  C   UNL     1       4.270  -5.852  26.356  0.00  0.00    +0.085 A 
ATOM     25  C   UNL     1       3.493  -6.481  27.327  0.00  0.00    +0.145 A 
ATOM     26  F   UNL     1       2.240  -6.839  27.004  0.00  0.00    -0.204 F 
ATOM     27  C   UNL     1       4.001  -6.742  28.596  0.00  0.00    +0.076 A 
ATOM     28 CL   UNL     1       3.040  -7.529  29.786  0.00  0.00    -0.081 Cl
ATOM     29  C   UNL     1       5.307  -6.367  28.904  0.00  0.00    +0.026 A 
ATOM     30  C   UNL     1       6.092  -5.741  27.933  0.00  0.00    +0.047 A 
ENDBRANCH  22  23
ENDBRANCH  21  22
ENDBRANCH  18  21
ENDBRANCH   1  18
TORSDOF 8
ENDMDL
MODEL 4
REMARK VINA RESULT:      -6.9      2.903      4.028
REMARK  Name = 
REMARK  9 active torsions:
REMARK  status: ('A' for Active; 'I' for Inactive)
REMARK    1  A    between atoms: C_1  and  C_2
REMARK    2  A    between atoms: C_2  and  O_3
REMARK    3  A    between atoms: C_2  and  C_4
REMARK    4  A    between atoms: C_2  and  C_14
REMARK    5  A    between atoms: C_4  and  O_5
REMARK    6  A    between atoms: O_5  and  C_6
REMARK    7  A    between atoms: N_16  and  C_17
REMARK    8  A    between atoms: C_19  and  C_25
REMARK    9  A    between atoms: C_20  and  C_23
REMARK                            x       y       z     vdW  Elec       q    Type
REMARK                         _______ _______ _______ _____ _____    ______ ____
ROOT
ATOM      1  C   UNL     1       9.696  -0.322  23.966  0.00  0.00    +0.252 C 
ATOM      2  N   UNL     1       8.984   0.736  23.422  0.00  0.00    -0.283 N 
ATOM      3  H   UNL     1       8.457   0.581  22.573  0.00  0.00    +0.155 HD
ATOM      4  O   UNL     1      10.223  -0.283  25.080  0.00  0.00    -0.272 OA
ENDROOT
BRANCH   2   5
ATOM      5  C   UNL     1       8.885   2.033  23.970  0.00  0.00    +0.034 A 
ATOM      6  C   UNL     1       7.883   2.276  24.915  0.00  0.00    +0.024 A 
ATOM      7  C   UNL     1       7.776   3.531  25.521  0.00  0.00    +0.021 A 
ATOM      8  C   UNL     1       8.650   4.573  25.171  0.00  0.00    +0.064 A 
ATOM      9  C   UNL     1       9.629   4.353  24.191  0.00  0.00    +0.074 A 
ATOM     10  C   UNL     1       9.731   3.081  23.603  0.00  0.00    +0.037 A 
BRANCH   9  11
ATOM     11  C   UNL     1      10.574   5.448  23.759  0.00  0.00    +0.419 C 
ATOM     12  F   UNL     1       9.945   6.438  23.072  0.00  0.00    -0.166 F 
ATOM     13  F   UNL     1      11.564   4.985  22.949  0.00  0.00    -0.166 F 
ATOM     14  F   UNL     1      11.209   6.061  24.796  0.00  0.00    -0.166 F 
ENDBRANCH   9  11
BRANCH   8  15
ATOM     15  C   UNL     1       8.513   5.842  25.828  0.00  0.00    +0.100 C 
ATOM     16  N   UNL     1       8.390   6.869  26.356  0.00  0.00    -0.191 NA
ENDBRANCH   8  15
ENDBRANCH   2   5
BRANCH   1  18
ATOM     17  C   UNL     1       8.489  -1.628  22.214  0.00  0.00    +0.055 C 
ATOM     18  C   UNL     1       9.675  -1.673  23.187  0.00  0.00    +0.173 C 
BRANCH  18  19
ATOM     19  O   UNL     1      10.869  -1.783  22.392  0.00  0.00    -0.376 OA
ATOM     20  H   UNL     1      11.078  -2.729  22.292  0.00  0.00    +0.211 HD
ENDBRANCH  18  19
BRANCH  18  21
ATOM     21  C   UNL     1       9.605  -2.935  24.054  0.00  0.00    +0.273 C 
BRANCH  21  22
ATOM     22  O   UNL     1       8.663  -3.854  23.506  0.00  0.00    -0.489 OA
BRANCH  22  23
ATOM     23  C   UNL     1       7.860  -4.527  24.378  0.00  0.00    +0.123 A 
ATOM     24  C   UNL     1       8.160  -4.819  25.707  0.00  0.00    +0.085 A 
ATOM     25  C   UNL     1       7.224  -5.492  26.490  0.00  0.00    +0.145 A 
ATOM     26  F   UNL     1       7.532  -5.745  27.772  0.00  0.00    -0.204 F 
ATOM     27  C   UNL     1       5.997  -5.886  25.964  0.00  0.00    +0.076 A 
ATOM     28 CL   UNL     1       4.843  -6.707  26.939  0.00  0.00    -0.081 Cl
ATOM     29  C   UNL     1       5.699  -5.606  24.632  0.00  0.00    +0.026 A 
ATOM     30  C   UNL     1       6.631  -4.926  23.844  0.00  0.00    +0.047 A 
ENDBRANCH  22  23
ENDBRANCH  21  22
ENDBRANCH  18  21
ENDBRANCH   1  18
TORSDOF 8
ENDMDL
MODEL 5
REMARK VINA RESULT:      -6.8      3.933      8.465
REMARK  Name = 
REMARK  9 active torsions:
REMARK  status: ('A' for Active; 'I' for Inactive)
REMARK    1  A    between atoms: C_1  and  C_2
REMARK    2  A    between atoms: C_2  and  O_3
REMARK    3  A    between atoms: C_2  and  C_4
REMARK    4  A    between atoms: C_2  and  C_14
REMARK    5  A    between atoms: C_4  and  O_5
REMARK    6  A    between atoms: O_5  and  C_6
REMARK    7  A    between atoms: N_16  and  C_17
REMARK    8  A    between atoms: C_19  and  C_25
REMARK    9  A    between atoms: C_20  and  C_23
REMARK                            x       y       z     vdW  Elec       q    Type
REMARK                         _______ _______ _______ _____ _____    ______ ____
ROOT
ATOM      1  C   UNL     1       8.759  -1.554  23.363  0.00  0.00    +0.252 C 
ATOM      2  N   UNL     1       9.048  -2.872  23.681  0.00  0.00    -0.283 N 
ATOM      3  H   UNL     1       9.951  -3.248  23.422  0.00  0.00    +0.155 HD
ATOM      4  O   UNL     1       7.766  -0.957  23.784  0.00  0.00    -0.272 OA
ENDROOT
BRANCH   2   5
ATOM      5  C   UNL     1       8.202  -3.756  24.385  0.00  0.00    +0.034 A 
ATOM      6  C   UNL     1       8.524  -4.064  25.710  0.00  0.00    +0.024 A 
ATOM      7  C   UNL     1       7.691  -4.896  26.462  0.00  0.00    +0.021 A 
ATOM      8  C   UNL     1       6.536  -5.459  25.894  0.00  0.00    +0.064 A 
ATOM      9  C   UNL     1       6.228  -5.192  24.551  0.00  0.00    +0.074 A 
ATOM     10  C   UNL     1       7.071  -4.343  23.814  0.00  0.00    +0.037 A 
BRANCH   9  11
ATOM     11  C   UNL     1       5.015  -5.795  23.885  0.00  0.00    +0.419 C 
ATOM     12  F   UNL     1       4.953  -5.506  22.559  0.00  0.00    -0.166 F 
ATOM     13  F   UNL     1       3.852  -5.350  24.432  0.00  0.00    -0.166 F 
ATOM     14  F   UNL     1       4.963  -7.153  23.972  0.00  0.00    -0.166 F 
ENDBRANCH   9  11
BRANCH   8  15
ATOM     15  C   UNL     1       5.701  -6.297  26.707  0.00  0.00    +0.100 C 
ATOM     16  N   UNL     1       5.033  -6.985  27.362  0.00  0.00    -0.191 NA
ENDBRANCH   8  15
ENDBRANCH   2   5
BRANCH   1  18
ATOM     17  C   UNL     1      10.729  -0.038  23.595  0.00  0.00    +0.055 C 
ATOM     18  C   UNL     1       9.840  -0.757  22.570  0.00  0.00    +0.173 C 
BRANCH  18  19
ATOM     19  O   UNL     1      10.682  -1.678  21.855  0.00  0.00    -0.376 OA
ATOM     20  H   UNL     1      11.531  -1.743  22.330  0.00  0.00    +0.211 HD
ENDBRANCH  18  19
BRANCH  18  21
ATOM     21  C   UNL     1       9.302   0.240  21.538  0.00  0.00    +0.273 C 
BRANCH  21  22
ATOM     22  O   UNL     1       9.736   1.560  21.860  0.00  0.00    -0.489 OA
BRANCH  22  23
ATOM     23  C   UNL     1       8.807   2.423  22.362  0.00  0.00    +0.123 A 
ATOM     24  C   UNL     1       9.022   3.359  23.371  0.00  0.00    +0.085 A 
ATOM     25  C   UNL     1       7.981   4.198  23.763  0.00  0.00    +0.145 A 
ATOM     26  F   UNL     1       8.221   5.102  24.726  0.00  0.00    -0.204 F 
ATOM     27  C   UNL     1       6.726   4.110  23.167  0.00  0.00    +0.076 A 
ATOM     28 CL   UNL     1       5.448   5.156  23.648  0.00  0.00    -0.081 Cl
ATOM     29  C   UNL     1       6.504   3.168  22.165  0.00  0.00    +0.026 A 
ATOM     30  C   UNL     1       7.546   2.329  21.765  0.00  0.00    +0.047 A 
ENDBRANCH  22  23
ENDBRANCH  21  22
ENDBRANCH  18  21
ENDBRANCH   1  18
TORSDOF 8
ENDMDL
MODEL 6
REMARK VINA RESULT:      -6.8      1.754      2.239
REMARK  Name = 
REMARK  9 active torsions:
REMARK  status: ('A' for Active; 'I' for Inactive)
REMARK    1  A    between atoms: C_1  and  C_2
REMARK    2  A    between atoms: C_2  and  O_3
REMARK    3  A    between atoms: C_2  and  C_4
REMARK    4  A    between atoms: C_2  and  C_14
REMARK    5  A    between atoms: C_4  and  O_5
REMARK    6  A    between atoms: O_5  and  C_6
REMARK    7  A    between atoms: N_16  and  C_17
REMARK    8  A    between atoms: C_19  and  C_25
REMARK    9  A    between atoms: C_20  and  C_23
REMARK                            x       y       z     vdW  Elec       q    Type
REMARK                         _______ _______ _______ _____ _____    ______ ____
ROOT
ATOM      1  C   UNL     1       8.498  -3.033  25.744  0.00  0.00    +0.252 C 
ATOM      2  N   UNL     1       8.220  -2.673  24.435  0.00  0.00    -0.283 N 
ATOM      3  H   UNL     1       8.037  -3.403  23.759  0.00  0.00    +0.155 HD
ATOM      4  O   UNL     1       8.563  -2.223  26.672  0.00  0.00    -0.272 OA
ENDROOT
BRANCH   2   5
ATOM      5  C   UNL     1       8.123  -1.353  23.945  0.00  0.00    +0.034 A 
ATOM      6  C   UNL     1       6.897  -0.933  23.418  0.00  0.00    +0.024 A 
ATOM      7  C   UNL     1       6.739   0.380  22.965  0.00  0.00    +0.021 A 
ATOM      8  C   UNL     1       7.810   1.286  23.004  0.00  0.00    +0.064 A 
ATOM      9  C   UNL     1       9.056   0.862  23.489  0.00  0.00    +0.074 A 
ATOM     10  C   UNL     1       9.193  -0.458  23.953  0.00  0.00    +0.037 A 
BRANCH   9  11
ATOM     11  C   UNL     1      10.247   1.789  23.525  0.00  0.00    +0.419 C 
ATOM     12  F   UNL     1      10.643   2.176  22.284  0.00  0.00    -0.166 F 
ATOM     13  F   UNL     1      11.330   1.214  24.115  0.00  0.00    -0.166 F 
ATOM     14  F   UNL     1      10.022   2.939  24.218  0.00  0.00    -0.166 F 
ENDBRANCH   9  11
BRANCH   8  15
ATOM     15  C   UNL     1       7.599   2.629  22.541  0.00  0.00    +0.100 C 
ATOM     16  N   UNL     1       7.420   3.717  22.175  0.00  0.00    -0.191 NA
ENDBRANCH   8  15
ENDBRANCH   2   5
BRANCH   1  18
ATOM     17  C   UNL     1       9.058  -5.277  24.804  0.00  0.00    +0.055 C 
ATOM     18  C   UNL     1       8.566  -4.558  26.067  0.00  0.00    +0.173 C 
BRANCH  18  19
ATOM     19  O   UNL     1       9.550  -4.785  27.092  0.00  0.00    -0.376 OA
ATOM     20  H   UNL     1      10.010  -5.619  26.889  0.00  0.00    +0.211 HD
ENDBRANCH  18  19
BRANCH  18  21
ATOM     21  C   UNL     1       7.259  -5.188  26.564  0.00  0.00    +0.273 C 
BRANCH  21  22
ATOM     22  O   UNL     1       6.144  -4.426  26.107  0.00  0.00    -0.489 OA
BRANCH  22  23
ATOM     23  C   UNL     1       5.207  -5.072  25.356  0.00  0.00    +0.123 A 
ATOM     24  C   UNL     1       4.723  -6.358  25.582  0.00  0.00    +0.085 A 
ATOM     25  C   UNL     1       3.739  -6.879  24.744  0.00  0.00    +0.145 A 
ATOM     26  F   UNL     1       3.278  -8.115  24.995  0.00  0.00    -0.204 F 
ATOM     27  C   UNL     1       3.237  -6.137  23.678  0.00  0.00    +0.076 A 
ATOM     28 CL   UNL     1       2.016  -6.782  22.654  0.00  0.00    -0.081 Cl
ATOM     29  C   UNL     1       3.728  -4.854  23.442  0.00  0.00    +0.026 A 
ATOM     30  C   UNL     1       4.710  -4.326  24.283  0.00  0.00    +0.047 A 
ENDBRANCH  22  23
ENDBRANCH  21  22
ENDBRANCH  18  21
ENDBRANCH   1  18
TORSDOF 8
ENDMDL
MODEL 7
REMARK VINA RESULT:      -6.7      3.959      8.347
REMARK  Name = 
REMARK  9 active torsions:
REMARK  status: ('A' for Active; 'I' for Inactive)
REMARK    1  A    between atoms: C_1  and  C_2
REMARK    2  A    between atoms: C_2  and  O_3
REMARK    3  A    between atoms: C_2  and  C_4
REMARK    4  A    between atoms: C_2  and  C_14
REMARK    5  A    between atoms: C_4  and  O_5
REMARK    6  A    between atoms: O_5  and  C_6
REMARK    7  A    between atoms: N_16  and  C_17
REMARK    8  A    between atoms: C_19  and  C_25
REMARK    9  A    between atoms: C_20  and  C_23
REMARK                            x       y       z     vdW  Elec       q    Type
REMARK                         _______ _______ _______ _____ _____    ______ ____
ROOT
ATOM      1  C   UNL     1       8.590  -1.490  23.151  0.00  0.00    +0.252 C 
ATOM      2  N   UNL     1       8.946  -2.766  23.559  0.00  0.00    -0.283 N 
ATOM      3  H   UNL     1       9.887  -3.090  23.376  0.00  0.00    +0.155 HD
ATOM      4  O   UNL     1       7.534  -0.943  23.478  0.00  0.00    -0.272 OA
ENDROOT
BRANCH   2   5
ATOM      5  C   UNL     1       8.119  -3.669  24.261  0.00  0.00    +0.034 A 
ATOM      6  C   UNL     1       8.440  -3.961  25.591  0.00  0.00    +0.024 A 
ATOM      7  C   UNL     1       7.624  -4.812  26.341  0.00  0.00    +0.021 A 
ATOM      8  C   UNL     1       6.490  -5.409  25.767  0.00  0.00    +0.064 A 
ATOM      9  C   UNL     1       6.185  -5.158  24.421  0.00  0.00    +0.074 A 
ATOM     10  C   UNL     1       7.009  -4.289  23.686  0.00  0.00    +0.037 A 
BRANCH   9  11
ATOM     11  C   UNL     1       4.994  -5.796  23.749  0.00  0.00    +0.419 C 
ATOM     12  F   UNL     1       4.976  -7.147  23.895  0.00  0.00    -0.166 F 
ATOM     13  F   UNL     1       4.964  -5.552  22.411  0.00  0.00    -0.166 F 
ATOM     14  F   UNL     1       3.797  -5.356  24.226  0.00  0.00    -0.166 F 
ENDBRANCH   9  11
BRANCH   8  15
ATOM     15  C   UNL     1       5.672  -6.266  26.578  0.00  0.00    +0.100 C 
ATOM     16  N   UNL     1       5.012  -6.968  27.226  0.00  0.00    -0.191 NA
ENDBRANCH   8  15
ENDBRANCH   2   5
BRANCH   1  18
ATOM     17  C   UNL     1      10.622  -0.065  23.418  0.00  0.00    +0.055 C 
ATOM     18  C   UNL     1       9.662  -0.661  22.379  0.00  0.00    +0.173 C 
BRANCH  18  19
ATOM     19  O   UNL     1      10.436  -1.542  21.545  0.00  0.00    -0.376 OA
ATOM     20  H   UNL     1      11.363  -1.502  21.844  0.00  0.00    +0.211 HD
ENDBRANCH  18  19
BRANCH  18  21
ATOM     21  C   UNL     1       9.114   0.441  21.465  0.00  0.00    +0.273 C 
BRANCH  21  22
ATOM     22  O   UNL     1       9.480   1.723  21.971  0.00  0.00    -0.489 OA
BRANCH  22  23
ATOM     23  C   UNL     1       8.473   2.555  22.363  0.00  0.00    +0.123 A 
ATOM     24  C   UNL     1       7.148   2.493  21.936  0.00  0.00    +0.085 A 
ATOM     25  C   UNL     1       6.219   3.396  22.447  0.00  0.00    +0.145 A 
ATOM     26  F   UNL     1       4.946   3.303  22.031  0.00  0.00    -0.204 F 
ATOM     27  C   UNL     1       6.595   4.367  23.372  0.00  0.00    +0.076 A 
ATOM     28 CL   UNL     1       5.441   5.473  24.006  0.00  0.00    -0.081 Cl
ATOM     29  C   UNL     1       7.921   4.440  23.792  0.00  0.00    +0.026 A 
ATOM     30  C   UNL     1       8.855   3.532  23.287  0.00  0.00    +0.047 A 
ENDBRANCH  22  23
ENDBRANCH  21  22
ENDBRANCH  18  21
ENDBRANCH   1  18
TORSDOF 8
ENDMDL
MODEL 8
REMARK VINA RESULT:      -6.5      4.674      8.210
REMARK  Name = 
REMARK  9 active torsions:
REMARK  status: ('A' for Active; 'I' for Inactive)
REMARK    1  A    between atoms: C_1  and  C_2
REMARK    2  A    between atoms: C_2  and  O_3
REMARK    3  A    between atoms: C_2  and  C_4
REMARK    4  A    between atoms: C_2  and  C_14
REMARK    5  A    between atoms: C_4  and  O_5
REMARK    6  A    between atoms: O_5  and  C_6
REMARK    7  A    between atoms: N_16  and  C_17
REMARK    8  A    between atoms: C_19  and  C_25
REMARK    9  A    between atoms: C_20  and  C_23
REMARK                            x       y       z     vdW  Elec       q    Type
REMARK                         _______ _______ _______ _____ _____    ______ ____
ROOT
ATOM      1  C   UNL     1       9.508   0.773  23.378  0.00  0.00    +0.252 C 
ATOM      2  N   UNL     1       8.329   0.182  23.806  0.00  0.00    -0.283 N 
ATOM      3  H   UNL     1       7.452   0.644  23.602  0.00  0.00    +0.155 HD
ATOM      4  O   UNL     1      10.604   0.210  23.424  0.00  0.00    -0.272 OA
ENDROOT
BRANCH   2   5
ATOM      5  C   UNL     1       8.222  -1.053  24.480  0.00  0.00    +0.034 A 
ATOM      6  C   UNL     1       8.342  -1.059  25.874  0.00  0.00    +0.024 A 
ATOM      7  C   UNL     1       8.195  -2.251  26.588  0.00  0.00    +0.021 A 
ATOM      8  C   UNL     1       7.956  -3.462  25.920  0.00  0.00    +0.064 A 
ATOM      9  C   UNL     1       7.879  -3.475  24.520  0.00  0.00    +0.074 A 
ATOM     10  C   UNL     1       8.015  -2.265  23.819  0.00  0.00    +0.037 A 
BRANCH   9  11
ATOM     11  C   UNL     1       7.651  -4.755  23.753  0.00  0.00    +0.419 C 
ATOM     12  F   UNL     1       8.662  -5.648  23.918  0.00  0.00    -0.166 F 
ATOM     13  F   UNL     1       7.539  -4.542  22.414  0.00  0.00    -0.166 F 
ATOM     14  F   UNL     1       6.513  -5.411  24.113  0.00  0.00    -0.166 F 
ENDBRANCH   9  11
BRANCH   8  15
ATOM     15  C   UNL     1       7.798  -4.661  26.695  0.00  0.00    +0.100 C 
ATOM     16  N   UNL     1       7.674  -5.625  27.331  0.00  0.00    -0.191 NA
ENDBRANCH   8  15
ENDBRANCH   2   5
BRANCH   1  18
ATOM     17  C   UNL     1       9.811   3.235  23.661  0.00  0.00    +0.055 C 
ATOM     18  C   UNL     1       9.396   2.151  22.656  0.00  0.00    +0.173 C 
BRANCH  18  19
ATOM     19  O   UNL     1      10.339   2.198  21.571  0.00  0.00    -0.376 OA
ATOM     20  H   UNL     1      10.042   2.882  20.943  0.00  0.00    +0.211 HD
ENDBRANCH  18  19
BRANCH  18  21
ATOM     21  C   UNL     1       8.021   2.476  22.060  0.00  0.00    +0.273 C 
BRANCH  21  22
ATOM     22  O   UNL     1       7.708   3.851  22.272  0.00  0.00    -0.489 OA
BRANCH  22  23
ATOM     23  C   UNL     1       6.398   4.177  22.457  0.00  0.00    +0.123 A 
ATOM     24  C   UNL     1       5.327   3.285  22.466  0.00  0.00    +0.085 A 
ATOM     25  C   UNL     1       4.038   3.761  22.698  0.00  0.00    +0.145 A 
ATOM     26  F   UNL     1       3.027   2.878  22.718  0.00  0.00    -0.204 F 
ATOM     27  C   UNL     1       3.801   5.116  22.912  0.00  0.00    +0.076 A 
ATOM     28 CL   UNL     1       2.210   5.696  23.208  0.00  0.00    -0.081 Cl
ATOM     29  C   UNL     1       4.868   6.012  22.893  0.00  0.00    +0.026 A 
ATOM     30  C   UNL     1       6.162   5.539  22.667  0.00  0.00    +0.047 A 
ENDBRANCH  22  23
ENDBRANCH  21  22
ENDBRANCH  18  21
ENDBRANCH   1  18
TORSDOF 8
ENDMDL
MODEL 9
REMARK VINA RESULT:      -6.5      4.229      7.887
REMARK  Name = 
REMARK  9 active torsions:
REMARK  status: ('A' for Active; 'I' for Inactive)
REMARK    1  A    between atoms: C_1  and  C_2
REMARK    2  A    between atoms: C_2  and  O_3
REMARK    3  A    between atoms: C_2  and  C_4
REMARK    4  A    between atoms: C_2  and  C_14
REMARK    5  A    between atoms: C_4  and  O_5
REMARK    6  A    between atoms: O_5  and  C_6
REMARK    7  A    between atoms: N_16  and  C_17
REMARK    8  A    between atoms: C_19  and  C_25
REMARK    9  A    between atoms: C_20  and  C_23
REMARK                            x       y       z     vdW  Elec       q    Type
REMARK                         _______ _______ _______ _____ _____    ______ ____
ROOT
ATOM      1  C   UNL     1       6.240   2.698  24.031  0.00  0.00    +0.252 C 
ATOM      2  N   UNL     1       6.797   1.628  24.714  0.00  0.00    -0.283 N 
ATOM      3  H   UNL     1       7.610   1.791  25.294  0.00  0.00    +0.155 HD
ATOM      4  O   UNL     1       5.158   2.639  23.443  0.00  0.00    -0.272 OA
ENDROOT
BRANCH   2   5
ATOM      5  C   UNL     1       6.306   0.304  24.715  0.00  0.00    +0.034 A 
ATOM      6  C   UNL     1       5.461  -0.086  25.759  0.00  0.00    +0.024 A 
ATOM      7  C   UNL     1       4.912  -1.371  25.778  0.00  0.00    +0.021 A 
ATOM      8  C   UNL     1       5.222  -2.298  24.770  0.00  0.00    +0.064 A 
ATOM      9  C   UNL     1       6.104  -1.931  23.743  0.00  0.00    +0.074 A 
ATOM     10  C   UNL     1       6.636  -0.630  23.733  0.00  0.00    +0.037 A 
BRANCH   9  11
ATOM     11  C   UNL     1       6.491  -2.899  22.651  0.00  0.00    +0.419 C 
ATOM     12  F   UNL     1       5.450  -3.204  21.832  0.00  0.00    -0.166 F 
ATOM     13  F   UNL     1       6.951  -4.079  23.147  0.00  0.00    -0.166 F 
ATOM     14  F   UNL     1       7.479  -2.436  21.837  0.00  0.00    -0.166 F 
ENDBRANCH   9  11
BRANCH   8  15
ATOM     15  C   UNL     1       4.625  -3.602  24.821  0.00  0.00    +0.100 C 
ATOM     16  N   UNL     1       4.143  -4.658  24.874  0.00  0.00    -0.191 NA
ENDBRANCH   8  15
ENDBRANCH   2   5
BRANCH   1  18
ATOM     17  C   UNL     1       6.813   4.803  22.817  0.00  0.00    +0.055 C 
ATOM     18  C   UNL     1       6.953   4.079  24.164  0.00  0.00    +0.173 C 
BRANCH  18  19
ATOM     19  O   UNL     1       6.266   4.877  25.145  0.00  0.00    -0.376 OA
ATOM     20  H   UNL     1       5.605   5.423  24.681  0.00  0.00    +0.211 HD
ENDBRANCH  18  19
BRANCH  18  21
ATOM     21  C   UNL     1       8.424   4.027  24.591  0.00  0.00    +0.273 C 
BRANCH  21  22
ATOM     22  O   UNL     1       9.251   3.744  23.465  0.00  0.00    -0.489 OA
BRANCH  22  23
ATOM     23  C   UNL     1       9.519   2.435  23.194  0.00  0.00    +0.123 A 
ATOM     24  C   UNL     1       9.231   1.771  22.004  0.00  0.00    +0.085 A 
ATOM     25  C   UNL     1       9.593   0.433  21.859  0.00  0.00    +0.145 A 
ATOM     26  F   UNL     1       9.318  -0.178  20.696  0.00  0.00    -0.204 F 
ATOM     27  C   UNL     1      10.230  -0.254  22.889  0.00  0.00    +0.076 A 
ATOM     28 CL   UNL     1      10.683  -1.902  22.700  0.00  0.00    -0.081 Cl
ATOM     29  C   UNL     1      10.510   0.404  24.085  0.00  0.00    +0.026 A 
ATOM     30  C   UNL     1      10.155   1.747  24.232  0.00  0.00    +0.047 A 
ENDBRANCH  22  23
ENDBRANCH  21  22
ENDBRANCH  18  21
ENDBRANCH   1  18
TORSDOF 8
ENDMDL
