MODEL 1
REMARK VINA RESULT:      -5.2      0.000      0.000
REMARK  Name = 
REMARK  12 active torsions:
REMARK  status: ('A' for Active; 'I' for Inactive)
REMARK    1  A    between atoms: C_1  and  C_2
REMARK    2  A    between atoms: C_2  and  O_3
REMARK    3  A    between atoms: O_3  and  P_4
REMARK    4  A    between atoms: P_4  and  O_6
REMARK    5  A    between atoms: P_4  and  C_9
REMARK    6  A    between atoms: O_6  and  C_7
REMARK    7  A    between atoms: C_7  and  C_8
REMARK    8  A    between atoms: C_9  and  C_11
REMARK    9  A    between atoms: C_9  and  N_12
REMARK   10  A    between atoms: N_15  and  C_16
REMARK   11  A    between atoms: N_15  and  N_19
REMARK   12  A    between atoms: C_16  and  C_17
REMARK                            x       y       z     vdW  Elec       q    Type
REMARK                         _______ _______ _______ _____ _____    ______ ____
ROOT
ATOM      1  C   UNL     1       8.991  -3.862  25.357  0.00  0.00    +0.186 C 
ATOM      2  C   UNL     1       9.883  -5.095  25.464  0.00  0.00    +0.041 C 
ENDROOT
BRANCH   1   3
ATOM      3  N   UNL     1       9.510  -2.941  24.319  0.00  0.00    -0.284 N 
ATOM      4  H   UNL     1       9.111  -3.182  23.409  0.00  0.00    +0.151 HD
ATOM      5  C   UNL     1       9.552  -1.568  24.504  0.00  0.00    +0.325 C 
ATOM      6  N   UNL     1       9.970  -0.834  23.382  0.00  0.00    -0.140 N 
ATOM      7  O   UNL     1       9.232  -1.049  25.572  0.00  0.00    -0.251 OA
BRANCH   6   8
ATOM      8  N   UNL     1      10.328  -1.536  22.216  0.00  0.00    +0.053 NA
ATOM      9  O   UNL     1       9.385  -2.037  21.599  0.00  0.00    -0.126 OA
ENDBRANCH   6   8
BRANCH   6  10
ATOM     10  C   UNL     1       9.902   0.633  23.372  0.00  0.00    +0.155 C 
BRANCH  10  11
ATOM     11  C   UNL     1       9.903   1.295  21.994  0.00  0.00    +0.130 C 
ATOM     12 CL   UNL     1       8.262   1.720  21.451  0.00  0.00    -0.124 Cl
ENDBRANCH  10  11
ENDBRANCH   6  10
ENDBRANCH   1   3
BRANCH   1  13
ATOM     13  P   UNL     1       7.281  -4.350  24.927  0.00  0.00    +0.352 P 
ATOM     14  O   UNL     1       7.374  -5.467  25.993  0.00  0.00    -0.257 OA
BRANCH  13  15
ATOM     15  O   UNL     1       5.664  -4.811  24.521  0.00  0.00    -0.307 OA
BRANCH  15  17
ATOM     16  C   UNL     1       4.458  -6.888  24.332  0.00  0.00    +0.034 C 
ATOM     17  C   UNL     1       5.193  -5.940  25.254  0.00  0.00    +0.167 C 
ENDBRANCH  15  17
ENDBRANCH  13  15
BRANCH  13  18
ATOM     18  O   UNL     1       7.804  -4.952  23.476  0.00  0.00    -0.307 OA
BRANCH  18  19
ATOM     19  C   UNL     1       7.047  -4.629  22.313  0.00  0.00    +0.167 C 
ATOM     20  C   UNL     1       6.921  -5.862  21.444  0.00  0.00    +0.034 C 
ENDBRANCH  18  19
ENDBRANCH  13  18
ENDBRANCH   1  13
TORSDOF 9
ENDMDL
MODEL 2
REMARK VINA RESULT:      -5.1      1.476      1.998
REMARK  Name = 
REMARK  12 active torsions:
REMARK  status: ('A' for Active; 'I' for Inactive)
REMARK    1  A    between atoms: C_1  and  C_2
REMARK    2  A    between atoms: C_2  and  O_3
REMARK    3  A    between atoms: O_3  and  P_4
REMARK    4  A    between atoms: P_4  and  O_6
REMARK    5  A    between atoms: P_4  and  C_9
REMARK    6  A    between atoms: O_6  and  C_7
REMARK    7  A    between atoms: C_7  and  C_8
REMARK    8  A    between atoms: C_9  and  C_11
REMARK    9  A    between atoms: C_9  and  N_12
REMARK   10  A    between atoms: N_15  and  C_16
REMARK   11  A    between atoms: N_15  and  N_19
REMARK   12  A    between atoms: C_16  and  C_17
REMARK                            x       y       z     vdW  Elec       q    Type
REMARK                         _______ _______ _______ _____ _____    ______ ____
ROOT
ATOM      1  C   UNL     1       8.641  -3.926  25.081  0.00  0.00    +0.186 C 
ATOM      2  C   UNL     1       9.595  -4.955  25.681  0.00  0.00    +0.041 C 
ENDROOT
BRANCH   1   3
ATOM      3  N   UNL     1       9.381  -2.989  24.204  0.00  0.00    -0.284 N 
ATOM      4  H   UNL     1       9.079  -3.107  23.235  0.00  0.00    +0.151 HD
ATOM      5  C   UNL     1       9.545  -1.651  24.523  0.00  0.00    +0.325 C 
ATOM      6  N   UNL     1      10.177  -0.881  23.534  0.00  0.00    -0.140 N 
ATOM      7  O   UNL     1       9.149  -1.188  25.591  0.00  0.00    -0.251 OA
BRANCH   6   8
ATOM      8  N   UNL     1      10.604  -1.521  22.356  0.00  0.00    +0.053 NA
ATOM      9  O   UNL     1       9.703  -1.817  21.568  0.00  0.00    -0.126 OA
ENDBRANCH   6   8
BRANCH   6  10
ATOM     10  C   UNL     1      10.266   0.580  23.657  0.00  0.00    +0.155 C 
BRANCH  10  11
ATOM     11  C   UNL     1       9.014   1.364  23.260  0.00  0.00    +0.130 C 
ATOM     12 CL   UNL     1       8.848   1.515  21.494  0.00  0.00    -0.124 Cl
ENDBRANCH  10  11
ENDBRANCH   6  10
ENDBRANCH   1   3
BRANCH   1  13
ATOM     13  P   UNL     1       7.338  -4.761  24.105  0.00  0.00    +0.352 P 
ATOM     14  O   UNL     1       8.435  -5.651  23.476  0.00  0.00    -0.257 OA
BRANCH  13  15
ATOM     15  O   UNL     1       6.106  -5.550  23.182  0.00  0.00    -0.307 OA
BRANCH  15  17
ATOM     16  C   UNL     1       6.153  -5.759  20.782  0.00  0.00    +0.034 C 
ATOM     17  C   UNL     1       6.615  -6.332  22.104  0.00  0.00    +0.167 C 
ENDBRANCH  15  17
ENDBRANCH  13  15
BRANCH  13  18
ATOM     18  O   UNL     1       7.151  -3.405  23.172  0.00  0.00    -0.307 OA
BRANCH  18  19
ATOM     19  C   UNL     1       5.852  -2.823  23.102  0.00  0.00    +0.167 C 
ATOM     20  C   UNL     1       5.486  -2.259  24.457  0.00  0.00    +0.034 C 
ENDBRANCH  18  19
ENDBRANCH  13  18
ENDBRANCH   1  13
TORSDOF 9
ENDMDL
MODEL 3
REMARK VINA RESULT:      -5.0      0.983      2.263
REMARK  Name = 
REMARK  12 active torsions:
REMARK  status: ('A' for Active; 'I' for Inactive)
REMARK    1  A    between atoms: C_1  and  C_2
REMARK    2  A    between atoms: C_2  and  O_3
REMARK    3  A    between atoms: O_3  and  P_4
REMARK    4  A    between atoms: P_4  and  O_6
REMARK    5  A    between atoms: P_4  and  C_9
REMARK    6  A    between atoms: O_6  and  C_7
REMARK    7  A    between atoms: C_7  and  C_8
REMARK    8  A    between atoms: C_9  and  C_11
REMARK    9  A    between atoms: C_9  and  N_12
REMARK   10  A    between atoms: N_15  and  C_16
REMARK   11  A    between atoms: N_15  and  N_19
REMARK   12  A    between atoms: C_16  and  C_17
REMARK                            x       y       z     vdW  Elec       q    Type
REMARK                         _______ _______ _______ _____ _____    ______ ____
ROOT
ATOM      1  C   UNL     1       8.692  -3.857  25.158  0.00  0.00    +0.186 C 
ATOM      2  C   UNL     1       9.624  -5.014  25.508  0.00  0.00    +0.041 C 
ENDROOT
BRANCH   1   3
ATOM      3  N   UNL     1       9.350  -2.940  24.198  0.00  0.00    -0.284 N 
ATOM      4  H   UNL     1       8.980  -3.096  23.258  0.00  0.00    +0.151 HD
ATOM      5  C   UNL     1       9.510  -1.589  24.459  0.00  0.00    +0.325 C 
ATOM      6  N   UNL     1      10.055  -0.843  23.402  0.00  0.00    -0.140 N 
ATOM      7  O   UNL     1       9.183  -1.095  25.537  0.00  0.00    -0.251 OA
BRANCH   6   8
ATOM      8  N   UNL     1      10.409  -1.518  22.218  0.00  0.00    +0.053 NA
ATOM      9  O   UNL     1       9.460  -1.968  21.571  0.00  0.00    -0.126 OA
ENDBRANCH   6   8
BRANCH   6  10
ATOM     10  C   UNL     1      10.125   0.622  23.468  0.00  0.00    +0.155 C 
BRANCH  10  11
ATOM     11  C   UNL     1      10.063   1.357  22.129  0.00  0.00    +0.130 C 
ATOM     12 CL   UNL     1       8.407   1.434  21.480  0.00  0.00    -0.124 Cl
ENDBRANCH  10  11
ENDBRANCH   6  10
ENDBRANCH   1   3
BRANCH   1  13
ATOM     13  P   UNL     1       7.142  -4.490  24.419  0.00  0.00    +0.352 P 
ATOM     14  O   UNL     1       6.427  -3.217  24.929  0.00  0.00    -0.257 OA
BRANCH  13  15
ATOM     15  O   UNL     1       5.677  -5.088  23.720  0.00  0.00    -0.307 OA
BRANCH  15  17
ATOM     16  C   UNL     1       7.156  -5.635  21.899  0.00  0.00    +0.034 C 
ATOM     17  C   UNL     1       5.890  -5.999  22.644  0.00  0.00    +0.167 C 
ENDBRANCH  15  17
ENDBRANCH  13  15
BRANCH  13  18
ATOM     18  O   UNL     1       7.048  -5.660  25.587  0.00  0.00    -0.307 OA
BRANCH  18  19
ATOM     19  C   UNL     1       5.905  -5.656  26.438  0.00  0.00    +0.167 C 
ATOM     20  C   UNL     1       6.348  -5.392  27.862  0.00  0.00    +0.034 C 
ENDBRANCH  18  19
ENDBRANCH  13  18
ENDBRANCH   1  13
TORSDOF 9
ENDMDL
MODEL 4
REMARK VINA RESULT:      -4.9      2.977      5.993
REMARK  Name = 
REMARK  12 active torsions:
REMARK  status: ('A' for Active; 'I' for Inactive)
REMARK    1  A    between atoms: C_1  and  C_2
REMARK    2  A    between atoms: C_2  and  O_3
REMARK    3  A    between atoms: O_3  and  P_4
REMARK    4  A    between atoms: P_4  and  O_6
REMARK    5  A    between atoms: P_4  and  C_9
REMARK    6  A    between atoms: O_6  and  C_7
REMARK    7  A    between atoms: C_7  and  C_8
REMARK    8  A    between atoms: C_9  and  C_11
REMARK    9  A    between atoms: C_9  and  N_12
REMARK   10  A    between atoms: N_15  and  C_16
REMARK   11  A    between atoms: N_15  and  N_19
REMARK   12  A    between atoms: C_16  and  C_17
REMARK                            x       y       z     vdW  Elec       q    Type
REMARK                         _______ _______ _______ _____ _____    ______ ____
ROOT
ATOM      1  C   UNL     1       8.314  -1.409  22.517  0.00  0.00    +0.186 C 
ATOM      2  C   UNL     1       9.486  -1.073  21.601  0.00  0.00    +0.041 C 
ENDROOT
BRANCH   1   3
ATOM      3  N   UNL     1       8.089  -2.874  22.548  0.00  0.00    -0.284 N 
ATOM      4  H   UNL     1       8.607  -3.289  23.325  0.00  0.00    +0.151 HD
ATOM      5  C   UNL     1       6.826  -3.430  22.428  0.00  0.00    +0.325 C 
ATOM      6  N   UNL     1       6.777  -4.824  22.586  0.00  0.00    -0.140 N 
ATOM      7  O   UNL     1       5.832  -2.738  22.212  0.00  0.00    -0.251 OA
BRANCH   6   8
ATOM      8  N   UNL     1       7.981  -5.517  22.814  0.00  0.00    +0.053 NA
ATOM      9  O   UNL     1       8.514  -5.292  23.903  0.00  0.00    -0.126 OA
ENDBRANCH   6   8
BRANCH   6  10
ATOM     10  C   UNL     1       5.491  -5.531  22.656  0.00  0.00    +0.155 C 
BRANCH  10  11
ATOM     11  C   UNL     1       5.133  -6.139  24.012  0.00  0.00    +0.130 C 
ATOM     12 CL   UNL     1       5.360  -4.983  25.347  0.00  0.00    -0.124 Cl
ENDBRANCH  10  11
ENDBRANCH   6  10
ENDBRANCH   1   3
BRANCH   1  13
ATOM     13  P   UNL     1       8.645  -0.817  24.217  0.00  0.00    +0.352 P 
ATOM     14  O   UNL     1       7.591   0.292  23.992  0.00  0.00    -0.257 OA
BRANCH  13  15
ATOM     15  O   UNL     1       8.958  -0.257  25.823  0.00  0.00    -0.307 OA
BRANCH  15  17
ATOM     16  C   UNL     1       8.306  -2.543  26.206  0.00  0.00    +0.034 C 
ATOM     17  C   UNL     1       8.610  -1.201  26.833  0.00  0.00    +0.167 C 
ENDBRANCH  15  17
ENDBRANCH  13  15
BRANCH  13  18
ATOM     18  O   UNL     1      10.127  -0.248  23.744  0.00  0.00    -0.307 OA
BRANCH  18  19
ATOM     19  C   UNL     1      10.716   0.792  24.518  0.00  0.00    +0.167 C 
ATOM     20  C   UNL     1      10.616   2.096  23.756  0.00  0.00    +0.034 C 
ENDBRANCH  18  19
ENDBRANCH  13  18
ENDBRANCH   1  13
TORSDOF 9
ENDMDL
MODEL 5
REMARK VINA RESULT:      -4.8      2.550      3.631
REMARK  Name = 
REMARK  12 active torsions:
REMARK  status: ('A' for Active; 'I' for Inactive)
REMARK    1  A    between atoms: C_1  and  C_2
REMARK    2  A    between atoms: C_2  and  O_3
REMARK    3  A    between atoms: O_3  and  P_4
REMARK    4  A    between atoms: P_4  and  O_6
REMARK    5  A    between atoms: P_4  and  C_9
REMARK    6  A    between atoms: O_6  and  C_7
REMARK    7  A    between atoms: C_7  and  C_8
REMARK    8  A    between atoms: C_9  and  C_11
REMARK    9  A    between atoms: C_9  and  N_12
REMARK   10  A    between atoms: N_15  and  C_16
REMARK   11  A    between atoms: N_15  and  N_19
REMARK   12  A    between atoms: C_16  and  C_17
REMARK                            x       y       z     vdW  Elec       q    Type
REMARK                         _______ _______ _______ _____ _____    ______ ____
ROOT
ATOM      1  C   UNL     1       6.772  -5.107  22.827  0.00  0.00    +0.186 C 
ATOM      2  C   UNL     1       7.182  -5.915  21.599  0.00  0.00    +0.041 C 
ENDROOT
BRANCH   1   3
ATOM      3  N   UNL     1       7.325  -3.735  22.747  0.00  0.00    -0.284 N 
ATOM      4  H   UNL     1       6.570  -3.050  22.830  0.00  0.00    +0.151 HD
ATOM      5  C   UNL     1       8.442  -3.346  23.468  0.00  0.00    +0.325 C 
ATOM      6  N   UNL     1       8.769  -1.985  23.362  0.00  0.00    -0.140 N 
ATOM      7  O   UNL     1       9.079  -4.143  24.154  0.00  0.00    -0.251 OA
BRANCH   6   8
ATOM      8  N   UNL     1       7.978  -1.167  22.533  0.00  0.00    +0.053 NA
ATOM      9  O   UNL     1       6.850  -0.923  22.967  0.00  0.00    -0.126 OA
ENDBRANCH   6   8
BRANCH   6  10
ATOM     10  C   UNL     1       9.820  -1.393  24.200  0.00  0.00    +0.155 C 
BRANCH  10  11
ATOM     11  C   UNL     1       9.340  -0.570  25.396  0.00  0.00    +0.130 C 
ATOM     12 CL   UNL     1       8.420  -1.553  26.561  0.00  0.00    -0.124 Cl
ENDBRANCH  10  11
ENDBRANCH   6  10
ENDBRANCH   1   3
BRANCH   1  13
ATOM     13  P   UNL     1       4.948  -5.014  22.946  0.00  0.00    +0.352 P 
ATOM     14  O   UNL     1       5.008  -3.664  22.193  0.00  0.00    -0.257 OA
BRANCH  13  15
ATOM     15  O   UNL     1       3.224  -4.925  23.058  0.00  0.00    -0.307 OA
BRANCH  15  17
ATOM     16  C   UNL     1       1.126  -6.052  22.693  0.00  0.00    +0.034 C 
ATOM     17  C   UNL     1       2.587  -6.201  23.055  0.00  0.00    +0.167 C 
ENDBRANCH  15  17
ENDBRANCH  13  15
BRANCH  13  18
ATOM     18  O   UNL     1       5.056  -4.724  24.572  0.00  0.00    -0.307 OA
BRANCH  18  19
ATOM     19  C   UNL     1       5.736  -5.686  25.374  0.00  0.00    +0.167 C 
ATOM     20  C   UNL     1       6.497  -4.971  26.469  0.00  0.00    +0.034 C 
ENDBRANCH  18  19
ENDBRANCH  13  18
ENDBRANCH   1  13
TORSDOF 9
ENDMDL
MODEL 6
REMARK VINA RESULT:      -4.8      1.714      3.089
REMARK  Name = 
REMARK  12 active torsions:
REMARK  status: ('A' for Active; 'I' for Inactive)
REMARK    1  A    between atoms: C_1  and  C_2
REMARK    2  A    between atoms: C_2  and  O_3
REMARK    3  A    between atoms: O_3  and  P_4
REMARK    4  A    between atoms: P_4  and  O_6
REMARK    5  A    between atoms: P_4  and  C_9
REMARK    6  A    between atoms: O_6  and  C_7
REMARK    7  A    between atoms: C_7  and  C_8
REMARK    8  A    between atoms: C_9  and  C_11
REMARK    9  A    between atoms: C_9  and  N_12
REMARK   10  A    between atoms: N_15  and  C_16
REMARK   11  A    between atoms: N_15  and  N_19
REMARK   12  A    between atoms: C_16  and  C_17
REMARK                            x       y       z     vdW  Elec       q    Type
REMARK                         _______ _______ _______ _____ _____    ______ ____
ROOT
ATOM      1  C   UNL     1       7.574  -3.757  22.631  0.00  0.00    +0.186 C 
ATOM      2  C   UNL     1       6.254  -3.928  21.887  0.00  0.00    +0.041 C 
ENDROOT
BRANCH   1   3
ATOM      3  N   UNL     1       7.860  -2.319  22.846  0.00  0.00    -0.284 N 
ATOM      4  H   UNL     1       7.265  -1.953  23.592  0.00  0.00    +0.151 HD
ATOM      5  C   UNL     1       9.152  -1.829  22.945  0.00  0.00    +0.325 C 
ATOM      6  N   UNL     1       9.244  -0.463  23.256  0.00  0.00    -0.140 N 
ATOM      7  O   UNL     1      10.133  -2.553  22.782  0.00  0.00    -0.251 OA
BRANCH   6   8
ATOM      8  N   UNL     1       8.053   0.273  23.404  0.00  0.00    +0.053 NA
ATOM      9  O   UNL     1       7.612   0.764  22.363  0.00  0.00    -0.126 OA
ENDBRANCH   6   8
BRANCH   6  10
ATOM     10  C   UNL     1      10.540   0.157  23.561  0.00  0.00    +0.155 C 
BRANCH  10  11
ATOM     11  C   UNL     1      10.487   1.484  24.318  0.00  0.00    +0.130 C 
ATOM     12 CL   UNL     1      10.611   2.885  23.227  0.00  0.00    -0.124 Cl
ENDBRANCH  10  11
ENDBRANCH   6  10
ENDBRANCH   1   3
BRANCH   1  13
ATOM     13  P   UNL     1       7.506  -4.604  24.251  0.00  0.00    +0.352 P 
ATOM     14  O   UNL     1       8.687  -5.491  23.792  0.00  0.00    -0.257 OA
BRANCH  13  15
ATOM     15  O   UNL     1       7.441  -5.405  25.783  0.00  0.00    -0.307 OA
BRANCH  15  17
ATOM     16  C   UNL     1       8.314  -3.245  26.393  0.00  0.00    +0.034 C 
ATOM     17  C   UNL     1       8.053  -4.667  26.838  0.00  0.00    +0.167 C 
ENDBRANCH  15  17
ENDBRANCH  13  15
BRANCH  13  18
ATOM     18  O   UNL     1       6.086  -5.341  23.821  0.00  0.00    -0.307 OA
BRANCH  18  19
ATOM     19  C   UNL     1       5.334  -5.980  24.847  0.00  0.00    +0.167 C 
ATOM     20  C   UNL     1       4.244  -6.819  24.215  0.00  0.00    +0.034 C 
ENDBRANCH  18  19
ENDBRANCH  13  18
ENDBRANCH   1  13
TORSDOF 9
ENDMDL
MODEL 7
REMARK VINA RESULT:      -4.8      3.451      6.785
REMARK  Name = 
REMARK  12 active torsions:
REMARK  status: ('A' for Active; 'I' for Inactive)
REMARK    1  A    between atoms: C_1  and  C_2
REMARK    2  A    between atoms: C_2  and  O_3
REMARK    3  A    between atoms: O_3  and  P_4
REMARK    4  A    between atoms: P_4  and  O_6
REMARK    5  A    between atoms: P_4  and  C_9
REMARK    6  A    between atoms: O_6  and  C_7
REMARK    7  A    between atoms: C_7  and  C_8
REMARK    8  A    between atoms: C_9  and  C_11
REMARK    9  A    between atoms: C_9  and  N_12
REMARK   10  A    between atoms: N_15  and  C_16
REMARK   11  A    between atoms: N_15  and  N_19
REMARK   12  A    between atoms: C_16  and  C_17
REMARK                            x       y       z     vdW  Elec       q    Type
REMARK                         _______ _______ _______ _____ _____    ______ ____
ROOT
ATOM      1  C   UNL     1      10.373   0.161  23.657  0.00  0.00    +0.186 C 
ATOM      2  C   UNL     1      11.275   0.769  24.726  0.00  0.00    +0.041 C 
ENDROOT
BRANCH   1   3
ATOM      3  N   UNL     1       9.494  -0.873  24.253  0.00  0.00    -0.284 N 
ATOM      4  H   UNL     1       8.544  -0.509  24.350  0.00  0.00    +0.151 HD
ATOM      5  C   UNL     1       9.490  -2.184  23.806  0.00  0.00    +0.325 C 
ATOM      6  N   UNL     1       8.523  -3.009  24.404  0.00  0.00    -0.140 N 
ATOM      7  O   UNL     1      10.271  -2.576  22.941  0.00  0.00    -0.251 OA
BRANCH   6   8
ATOM      8  N   UNL     1       7.692  -2.457  25.397  0.00  0.00    +0.053 NA
ATOM      9  O   UNL     1       8.197  -2.386  26.519  0.00  0.00    -0.126 OA
ENDBRANCH   6   8
BRANCH   6  10
ATOM     10  C   UNL     1       8.285  -4.372  23.913  0.00  0.00    +0.155 C 
BRANCH  10  11
ATOM     11  C   UNL     1       7.278  -4.507  22.771  0.00  0.00    +0.130 C 
ATOM     12 CL   UNL     1       7.315  -6.125  22.030  0.00  0.00    -0.124 Cl
ENDBRANCH  10  11
ENDBRANCH   6  10
ENDBRANCH   1   3
BRANCH   1  13
ATOM     13  P   UNL     1       9.336   1.458  22.887  0.00  0.00    +0.352 P 
ATOM     14  O   UNL     1       9.769   0.925  21.501  0.00  0.00    -0.257 OA
BRANCH  13  15
ATOM     15  O   UNL     1       8.356   2.684  22.159  0.00  0.00    -0.307 OA
BRANCH  15  17
ATOM     16  C   UNL     1       6.675   1.297  23.185  0.00  0.00    +0.034 C 
ATOM     17  C   UNL     1       6.964   2.379  22.167  0.00  0.00    +0.167 C 
ENDBRANCH  15  17
ENDBRANCH  13  15
BRANCH  13  18
ATOM     18  O   UNL     1      10.410   2.622  23.371  0.00  0.00    -0.307 OA
BRANCH  18  19
ATOM     19  C   UNL     1       9.889   3.902  23.717  0.00  0.00    +0.167 C 
ATOM     20  C   UNL     1      10.998   4.929  23.633  0.00  0.00    +0.034 C 
ENDBRANCH  18  19
ENDBRANCH  13  18
ENDBRANCH   1  13
TORSDOF 9
ENDMDL
MODEL 8
REMARK VINA RESULT:      -4.7      3.284      6.209
REMARK  Name = 
REMARK  12 active torsions:
REMARK  status: ('A' for Active; 'I' for Inactive)
REMARK    1  A    between atoms: C_1  and  C_2
REMARK    2  A    between atoms: C_2  and  O_3
REMARK    3  A    between atoms: O_3  and  P_4
REMARK    4  A    between atoms: P_4  and  O_6
REMARK    5  A    between atoms: P_4  and  C_9
REMARK    6  A    between atoms: O_6  and  C_7
REMARK    7  A    between atoms: C_7  and  C_8
REMARK    8  A    between atoms: C_9  and  C_11
REMARK    9  A    between atoms: C_9  and  N_12
REMARK   10  A    between atoms: N_15  and  C_16
REMARK   11  A    between atoms: N_15  and  N_19
REMARK   12  A    between atoms: C_16  and  C_17
REMARK                            x       y       z     vdW  Elec       q    Type
REMARK                         _______ _______ _______ _____ _____    ______ ____
ROOT
ATOM      1  C   UNL     1       9.222  -1.207  25.236  0.00  0.00    +0.186 C 
ATOM      2  C   UNL     1       8.843  -0.883  26.678  0.00  0.00    +0.041 C 
ENDROOT
BRANCH   1   3
ATOM      3  N   UNL     1       8.150  -1.999  24.588  0.00  0.00    -0.284 N 
ATOM      4  H   UNL     1       7.668  -1.428  23.892  0.00  0.00    +0.151 HD
ATOM      5  C   UNL     1       8.362  -3.288  24.125  0.00  0.00    +0.325 C 
ATOM      6  N   UNL     1       7.275  -3.856  23.442  0.00  0.00    -0.140 N 
ATOM      7  O   UNL     1       9.431  -3.870  24.298  0.00  0.00    -0.251 OA
BRANCH   6   8
ATOM      8  N   UNL     1       6.092  -3.102  23.318  0.00  0.00    +0.053 NA
ATOM      9  O   UNL     1       6.130  -2.208  22.470  0.00  0.00    -0.126 OA
ENDBRANCH   6   8
BRANCH   6  10
ATOM     10  C   UNL     1       7.408  -5.143  22.748  0.00  0.00    +0.155 C 
BRANCH  10  11
ATOM     11  C   UNL     1       6.106  -5.780  22.262  0.00  0.00    +0.130 C 
ATOM     12 CL   UNL     1       5.140  -6.442  23.603  0.00  0.00    -0.124 Cl
ENDBRANCH  10  11
ENDBRANCH   6  10
ENDBRANCH   1   3
BRANCH   1  13
ATOM     13  P   UNL     1       9.487   0.335  24.287  0.00  0.00    +0.352 P 
ATOM     14  O   UNL     1      10.896   0.433  24.916  0.00  0.00    -0.257 OA
BRANCH  13  15
ATOM     15  O   UNL     1       9.737   1.792  23.389  0.00  0.00    -0.307 OA
BRANCH  15  17
ATOM     16  C   UNL     1       9.454   0.205  21.600  0.00  0.00    +0.034 C 
ATOM     17  C   UNL     1       9.962   1.573  21.999  0.00  0.00    +0.167 C 
ENDBRANCH  15  17
ENDBRANCH  13  15
BRANCH  13  18
ATOM     18  O   UNL     1       8.411   1.134  25.260  0.00  0.00    -0.307 OA
BRANCH  18  19
ATOM     19  C   UNL     1       7.412   1.931  24.629  0.00  0.00    +0.167 C 
ATOM     20  C   UNL     1       6.355   1.024  24.035  0.00  0.00    +0.034 C 
ENDBRANCH  18  19
ENDBRANCH  13  18
ENDBRANCH   1  13
TORSDOF 9
ENDMDL
MODEL 9
REMARK VINA RESULT:      -4.5      3.276      6.426
REMARK  Name = 
REMARK  12 active torsions:
REMARK  status: ('A' for Active; 'I' for Inactive)
REMARK    1  A    between atoms: C_1  and  C_2
REMARK    2  A    between atoms: C_2  and  O_3
REMARK    3  A    between atoms: O_3  and  P_4
REMARK    4  A    between atoms: P_4  and  O_6
REMARK    5  A    between atoms: P_4  and  C_9
REMARK    6  A    between atoms: O_6  and  C_7
REMARK    7  A    between atoms: C_7  and  C_8
REMARK    8  A    between atoms: C_9  and  C_11
REMARK    9  A    between atoms: C_9  and  N_12
REMARK   10  A    between atoms: N_15  and  C_16
REMARK   11  A    between atoms: N_15  and  N_19
REMARK   12  A    between atoms: C_16  and  C_17
REMARK                            x       y       z     vdW  Elec       q    Type
REMARK                         _______ _______ _______ _____ _____    ______ ____
ROOT
ATOM      1  C   UNL     1       8.467  -0.201  22.459  0.00  0.00    +0.186 C 
ATOM      2  C   UNL     1       9.251   0.090  21.183  0.00  0.00    +0.041 C 
ENDROOT
BRANCH   1   3
ATOM      3  N   UNL     1       8.808  -1.547  22.976  0.00  0.00    -0.284 N 
ATOM      4  H   UNL     1       9.178  -1.471  23.926  0.00  0.00    +0.151 HD
ATOM      5  C   UNL     1       7.947  -2.625  22.853  0.00  0.00    +0.325 C 
ATOM      6  N   UNL     1       8.376  -3.800  23.491  0.00  0.00    -0.140 N 
ATOM      7  O   UNL     1       6.885  -2.538  22.239  0.00  0.00    -0.251 OA
BRANCH   6   8
ATOM      8  N   UNL     1       9.620  -3.789  24.152  0.00  0.00    +0.053 NA
ATOM      9  O   UNL     1       9.856  -4.789  24.833  0.00  0.00    -0.126 OA
ENDBRANCH   6   8
BRANCH   6  10
ATOM     10  C   UNL     1       7.495  -4.970  23.593  0.00  0.00    +0.155 C 
BRANCH  10  11
ATOM     11  C   UNL     1       7.562  -5.962  22.432  0.00  0.00    +0.130 C 
ATOM     12 CL   UNL     1       6.284  -5.675  21.227  0.00  0.00    -0.124 Cl
ENDBRANCH  10  11
ENDBRANCH   6  10
ENDBRANCH   1   3
BRANCH   1  13
ATOM     13  P   UNL     1       8.850   1.049  23.739  0.00  0.00    +0.352 P 
ATOM     14  O   UNL     1      10.200   0.334  23.977  0.00  0.00    -0.257 OA
BRANCH  13  15
ATOM     15  O   UNL     1       9.212   2.231  24.950  0.00  0.00    -0.307 OA
BRANCH  15  17
ATOM     16  C   UNL     1       9.310   4.504  24.158  0.00  0.00    +0.034 C 
ATOM     17  C   UNL     1       8.461   3.435  24.812  0.00  0.00    +0.167 C 
ENDBRANCH  15  17
ENDBRANCH  13  15
BRANCH  13  18
ATOM     18  O   UNL     1       7.711   0.388  24.744  0.00  0.00    -0.307 OA
BRANCH  18  19
ATOM     19  C   UNL     1       6.352   0.418  24.317  0.00  0.00    +0.167 C 
ATOM     20  C   UNL     1       5.595  -0.706  24.990  0.00  0.00    +0.034 C 
ENDBRANCH  18  19
ENDBRANCH  13  18
ENDBRANCH   1  13
TORSDOF 9
ENDMDL
