MODEL 1
REMARK VINA RESULT:      -5.9      0.000      0.000
REMARK  Name = 
REMARK  6 active torsions:
REMARK  status: ('A' for Active; 'I' for Inactive)
REMARK    1  A    between atoms: CA_2  and  CB_3
REMARK    2  A    between atoms: CA_2  and  N_10
REMARK    3  A    between atoms: CA_2  and  C_15
REMARK    4  A    between atoms: CB_3  and  CG_4
REMARK    5  A    between atoms: N_13  and  O_14
REMARK    6  A    between atoms: C_15  and  O_16
REMARK                            x       y       z     vdW  Elec       q    Type
REMARK                         _______ _______ _______ _____ _____    ______ ____
ROOT
ATOM      1  CA  PHE A   1       9.723   5.026  24.062  0.00  0.00    +0.187 C 
ENDROOT
BRANCH   1   2
ATOM      2  N   PHE A   1      10.839   4.839  23.112  0.00  0.00    -0.284 N 
ATOM      3  H   PHE A   1      10.561   4.596  22.170  0.00  0.00    +0.151 HD
ATOM      4  C   UNK A   0      12.026   5.515  23.217  0.00  0.00    +0.323 C 
ATOM      5  N   UNK A   0      12.916   5.194  22.223  0.00  0.00    -0.181 N 
ATOM      6  H   UNK A   0      12.599   4.958  21.290  0.00  0.00    +0.184 HD
ATOM      7  O   UNK A   0      12.331   6.233  24.160  0.00  0.00    -0.251 OA
BRANCH   5   8
ATOM      8  O   UNK A   0      14.134   5.916  22.269  0.00  0.00    -0.294 OA
ATOM      9  H   UNK A   0      14.329   6.072  21.318  0.00  0.00    +0.241 HD
ENDBRANCH   5   8
ENDBRANCH   1   2
BRANCH   1  10
ATOM     10  C   PHE A   1       8.757   6.135  23.610  0.00  0.00    +0.326 C 
ATOM     11  OXT PHE A   1       8.437   7.089  24.308  0.00  0.00    -0.249 OA
BRANCH  10  12
ATOM     12  O   PHE A   1       8.344   6.020  22.325  0.00  0.00    -0.479 OA
ATOM     13  H   PHE A   1       8.167   6.905  21.945  0.00  0.00    +0.295 HD
ENDBRANCH  10  12
ENDBRANCH   1  10
BRANCH   1  14
ATOM     14  CB  PHE A   1       8.926   3.762  24.429  0.00  0.00    +0.069 C 
BRANCH  14  15
ATOM     15  CG  PHE A   1       9.262   2.547  23.590  0.00  0.00    -0.045 A 
ATOM     16  CD2 PHE A   1       8.710   2.404  22.309  0.00  0.00    +0.004 A 
ATOM     17  CE2 PHE A   1       8.999   1.281  21.536  0.00  0.00    +0.000 A 
ATOM     18  CZ  PHE A   1       9.840   0.289  22.033  0.00  0.00    +0.000 A 
ATOM     19  CE1 PHE A   1      10.391   0.419  23.307  0.00  0.00    +0.000 A 
ATOM     20  CD1 PHE A   1      10.103   1.542  24.085  0.00  0.00    +0.004 A 
ENDBRANCH  14  15
ENDBRANCH   1  14
TORSDOF 6
ENDMDL
MODEL 2
REMARK VINA RESULT:      -5.8      6.479      8.260
REMARK  Name = 
REMARK  6 active torsions:
REMARK  status: ('A' for Active; 'I' for Inactive)
REMARK    1  A    between atoms: CA_2  and  CB_3
REMARK    2  A    between atoms: CA_2  and  N_10
REMARK    3  A    between atoms: CA_2  and  C_15
REMARK    4  A    between atoms: CB_3  and  CG_4
REMARK    5  A    between atoms: N_13  and  O_14
REMARK    6  A    between atoms: C_15  and  O_16
REMARK                            x       y       z     vdW  Elec       q    Type
REMARK                         _______ _______ _______ _____ _____    ______ ____
ROOT
ATOM      1  CA  PHE A   1       8.059  -2.442  22.739  0.00  0.00    +0.187 C 
ENDROOT
BRANCH   1   2
ATOM      2  N   PHE A   1       7.772  -3.874  22.516  0.00  0.00    -0.284 N 
ATOM      3  H   PHE A   1       8.164  -4.501  23.205  0.00  0.00    +0.151 HD
ATOM      4  C   UNK A   0       6.627  -4.316  21.906  0.00  0.00    +0.323 C 
ATOM      5  N   UNK A   0       6.564  -5.684  21.811  0.00  0.00    -0.181 N 
ATOM      6  H   UNK A   0       6.968  -6.279  22.525  0.00  0.00    +0.184 HD
ATOM      7  O   UNK A   0       5.799  -3.585  21.378  0.00  0.00    -0.251 OA
BRANCH   5   8
ATOM      8  O   UNK A   0       5.367  -6.178  21.236  0.00  0.00    -0.294 OA
ATOM      9  H   UNK A   0       5.025  -5.397  20.745  0.00  0.00    +0.241 HD
ENDBRANCH   5   8
ENDBRANCH   1   2
BRANCH   1  10
ATOM     10  C   PHE A   1       7.117  -1.819  23.784  0.00  0.00    +0.326 C 
ATOM     11  OXT PHE A   1       7.266  -1.934  24.994  0.00  0.00    -0.249 OA
BRANCH  10  12
ATOM     12  O   PHE A   1       6.138  -1.046  23.256  0.00  0.00    -0.479 OA
ATOM     13  H   PHE A   1       5.414  -1.607  22.908  0.00  0.00    +0.295 HD
ENDBRANCH  10  12
ENDBRANCH   1  10
BRANCH   1  14
ATOM     14  CB  PHE A   1       9.517  -2.088  23.079  0.00  0.00    +0.069 C 
BRANCH  14  15
ATOM     15  CG  PHE A   1       9.825  -0.605  23.034  0.00  0.00    -0.045 A 
ATOM     16  CD2 PHE A   1      10.341   0.039  24.168  0.00  0.00    +0.004 A 
ATOM     17  CE2 PHE A   1      10.610   1.407  24.143  0.00  0.00    +0.000 A 
ATOM     18  CZ  PHE A   1      10.366   2.145  22.988  0.00  0.00    +0.000 A 
ATOM     19  CE1 PHE A   1       9.848   1.515  21.856  0.00  0.00    +0.000 A 
ATOM     20  CD1 PHE A   1       9.576   0.146  21.879  0.00  0.00    +0.004 A 
ENDBRANCH  14  15
ENDBRANCH   1  14
TORSDOF 6
ENDMDL
MODEL 3
REMARK VINA RESULT:      -5.8      8.655     10.253
REMARK  Name = 
REMARK  6 active torsions:
REMARK  status: ('A' for Active; 'I' for Inactive)
REMARK    1  A    between atoms: CA_2  and  CB_3
REMARK    2  A    between atoms: CA_2  and  N_10
REMARK    3  A    between atoms: CA_2  and  C_15
REMARK    4  A    between atoms: CB_3  and  CG_4
REMARK    5  A    between atoms: N_13  and  O_14
REMARK    6  A    between atoms: C_15  and  O_16
REMARK                            x       y       z     vdW  Elec       q    Type
REMARK                         _______ _______ _______ _____ _____    ______ ____
ROOT
ATOM      1  CA  PHE A   1       7.733  -4.337  25.665  0.00  0.00    +0.187 C 
ENDROOT
BRANCH   1   2
ATOM      2  N   PHE A   1       6.623  -5.272  25.940  0.00  0.00    -0.284 N 
ATOM      3  H   PHE A   1       6.233  -5.723  25.123  0.00  0.00    +0.151 HD
ATOM      4  C   UNK A   0       6.520  -5.982  27.107  0.00  0.00    +0.323 C 
ATOM      5  N   UNK A   0       5.416  -6.795  27.145  0.00  0.00    -0.181 N 
ATOM      6  H   UNK A   0       5.057  -7.233  26.304  0.00  0.00    +0.184 HD
ATOM      7  O   UNK A   0       7.251  -5.825  28.077  0.00  0.00    -0.251 OA
BRANCH   5   8
ATOM      8  O   UNK A   0       5.310  -7.587  28.316  0.00  0.00    -0.294 OA
ATOM      9  H   UNK A   0       4.898  -8.415  27.980  0.00  0.00    +0.241 HD
ENDBRANCH   5   8
ENDBRANCH   1   2
BRANCH   1  10
ATOM     10  C   PHE A   1       9.087  -5.061  25.555  0.00  0.00    +0.326 C 
ATOM     11  OXT PHE A   1       9.498  -5.590  24.530  0.00  0.00    -0.249 OA
BRANCH  10  12
ATOM     12  O   PHE A   1       9.842  -4.995  26.678  0.00  0.00    -0.479 OA
ATOM     13  H   PHE A   1      10.554  -4.332  26.568  0.00  0.00    +0.295 HD
ENDBRANCH  10  12
ENDBRANCH   1  10
BRANCH   1  14
ATOM     14  CB  PHE A   1       7.548  -3.399  24.459  0.00  0.00    +0.069 C 
BRANCH  14  15
ATOM     15  CG  PHE A   1       8.529  -2.246  24.410  0.00  0.00    -0.045 A 
ATOM     16  CD2 PHE A   1       8.608  -1.345  25.482  0.00  0.00    +0.004 A 
ATOM     17  CE2 PHE A   1       9.494  -0.271  25.439  0.00  0.00    +0.000 A 
ATOM     18  CZ  PHE A   1      10.309  -0.082  24.326  0.00  0.00    +0.000 A 
ATOM     19  CE1 PHE A   1      10.236  -0.970  23.252  0.00  0.00    +0.000 A 
ATOM     20  CD1 PHE A   1       9.348  -2.046  23.292  0.00  0.00    +0.004 A 
ENDBRANCH  14  15
ENDBRANCH   1  14
TORSDOF 6
ENDMDL
MODEL 4
REMARK VINA RESULT:      -5.8      6.495      8.342
REMARK  Name = 
REMARK  6 active torsions:
REMARK  status: ('A' for Active; 'I' for Inactive)
REMARK    1  A    between atoms: CA_2  and  CB_3
REMARK    2  A    between atoms: CA_2  and  N_10
REMARK    3  A    between atoms: CA_2  and  C_15
REMARK    4  A    between atoms: CB_3  and  CG_4
REMARK    5  A    between atoms: N_13  and  O_14
REMARK    6  A    between atoms: C_15  and  O_16
REMARK                            x       y       z     vdW  Elec       q    Type
REMARK                         _______ _______ _______ _____ _____    ______ ____
ROOT
ATOM      1  CA  PHE A   1       8.962  -2.618  23.749  0.00  0.00    +0.187 C 
ENDROOT
BRANCH   1   2
ATOM      2  N   PHE A   1       7.992  -3.126  22.757  0.00  0.00    -0.284 N 
ATOM      3  H   PHE A   1       8.391  -3.689  22.019  0.00  0.00    +0.151 HD
ATOM      4  C   UNK A   0       6.688  -3.410  23.070  0.00  0.00    +0.323 C 
ATOM      5  N   UNK A   0       5.969  -3.878  21.999  0.00  0.00    -0.181 N 
ATOM      6  H   UNK A   0       6.406  -4.442  21.280  0.00  0.00    +0.184 HD
ATOM      7  O   UNK A   0       6.166  -3.157  24.148  0.00  0.00    -0.251 OA
BRANCH   5   8
ATOM      8  O   UNK A   0       4.631  -4.234  22.301  0.00  0.00    -0.294 OA
ATOM      9  H   UNK A   0       4.705  -5.194  22.505  0.00  0.00    +0.241 HD
ENDBRANCH   5   8
ENDBRANCH   1   2
BRANCH   1  10
ATOM     10  C   PHE A   1       9.305  -3.672  24.816  0.00  0.00    +0.326 C 
ATOM     11  OXT PHE A   1      10.152  -4.544  24.669  0.00  0.00    -0.249 OA
BRANCH  10  12
ATOM     12  O   PHE A   1       8.645  -3.509  25.988  0.00  0.00    -0.479 OA
ATOM     13  H   PHE A   1       7.845  -2.961  25.853  0.00  0.00    +0.295 HD
ENDBRANCH  10  12
ENDBRANCH   1  10
BRANCH   1  14
ATOM     14  CB  PHE A   1      10.258  -2.014  23.182  0.00  0.00    +0.069 C 
BRANCH  14  15
ATOM     15  CG  PHE A   1      10.245  -0.503  23.070  0.00  0.00    -0.045 A 
ATOM     16  CD2 PHE A   1      10.644   0.285  24.160  0.00  0.00    +0.004 A 
ATOM     17  CE2 PHE A   1      10.618   1.676  24.074  0.00  0.00    +0.000 A 
ATOM     18  CZ  PHE A   1      10.192   2.295  22.901  0.00  0.00    +0.000 A 
ATOM     19  CE1 PHE A   1       9.789   1.521  21.814  0.00  0.00    +0.000 A 
ATOM     20  CD1 PHE A   1       9.812   0.127  21.897  0.00  0.00    +0.004 A 
ENDBRANCH  14  15
ENDBRANCH   1  14
TORSDOF 6
ENDMDL
MODEL 5
REMARK VINA RESULT:      -5.7      7.552      9.185
REMARK  Name = 
REMARK  6 active torsions:
REMARK  status: ('A' for Active; 'I' for Inactive)
REMARK    1  A    between atoms: CA_2  and  CB_3
REMARK    2  A    between atoms: CA_2  and  N_10
REMARK    3  A    between atoms: CA_2  and  C_15
REMARK    4  A    between atoms: CB_3  and  CG_4
REMARK    5  A    between atoms: N_13  and  O_14
REMARK    6  A    between atoms: C_15  and  O_16
REMARK                            x       y       z     vdW  Elec       q    Type
REMARK                         _______ _______ _______ _____ _____    ______ ____
ROOT
ATOM      1  CA  PHE A   1       8.684  -3.548  24.932  0.00  0.00    +0.187 C 
ENDROOT
BRANCH   1   2
ATOM      2  N   PHE A   1       7.496  -3.982  24.170  0.00  0.00    -0.284 N 
ATOM      3  H   PHE A   1       6.880  -3.235  23.877  0.00  0.00    +0.151 HD
ATOM      4  C   UNK A   0       7.491  -5.093  23.369  0.00  0.00    +0.323 C 
ATOM      5  N   UNK A   0       6.284  -5.303  22.750  0.00  0.00    -0.181 N 
ATOM      6  H   UNK A   0       5.697  -4.528  22.469  0.00  0.00    +0.184 HD
ATOM      7  O   UNK A   0       8.410  -5.899  23.301  0.00  0.00    -0.251 OA
BRANCH   5   8
ATOM      8  O   UNK A   0       6.261  -6.414  21.870  0.00  0.00    -0.294 OA
ATOM      9  H   UNK A   0       7.202  -6.486  21.590  0.00  0.00    +0.241 HD
ENDBRANCH   5   8
ENDBRANCH   1   2
BRANCH   1  10
ATOM     10  C   PHE A   1       9.077  -4.561  26.021  0.00  0.00    +0.326 C 
ATOM     11  OXT PHE A   1       8.448  -4.729  27.058  0.00  0.00    -0.249 OA
BRANCH  10  12
ATOM     12  O   PHE A   1      10.146  -5.330  25.703  0.00  0.00    -0.479 OA
ATOM     13  H   PHE A   1      10.305  -5.996  26.403  0.00  0.00    +0.295 HD
ENDBRANCH  10  12
ENDBRANCH   1  10
BRANCH   1  14
ATOM     14  CB  PHE A   1       9.924  -3.175  24.100  0.00  0.00    +0.069 C 
BRANCH  14  15
ATOM     15  CG  PHE A   1       9.892  -1.773  23.527  0.00  0.00    -0.045 A 
ATOM     16  CD2 PHE A   1      10.008  -0.664  24.378  0.00  0.00    +0.004 A 
ATOM     17  CE2 PHE A   1       9.961   0.630  23.863  0.00  0.00    +0.000 A 
ATOM     18  CZ  PHE A   1       9.796   0.832  22.495  0.00  0.00    +0.000 A 
ATOM     19  CE1 PHE A   1       9.675  -0.264  21.641  0.00  0.00    +0.000 A 
ATOM     20  CD1 PHE A   1       9.720  -1.561  22.154  0.00  0.00    +0.004 A 
ENDBRANCH  14  15
ENDBRANCH   1  14
TORSDOF 6
ENDMDL
MODEL 6
REMARK VINA RESULT:      -5.6      7.597      9.058
REMARK  Name = 
REMARK  6 active torsions:
REMARK  status: ('A' for Active; 'I' for Inactive)
REMARK    1  A    between atoms: CA_2  and  CB_3
REMARK    2  A    between atoms: CA_2  and  N_10
REMARK    3  A    between atoms: CA_2  and  C_15
REMARK    4  A    between atoms: CB_3  and  CG_4
REMARK    5  A    between atoms: N_13  and  O_14
REMARK    6  A    between atoms: C_15  and  O_16
REMARK                            x       y       z     vdW  Elec       q    Type
REMARK                         _______ _______ _______ _____ _____    ______ ____
ROOT
ATOM      1  CA  PHE A   1       8.704  -2.643  23.715  0.00  0.00    +0.187 C 
ENDROOT
BRANCH   1   2
ATOM      2  N   PHE A   1       9.005  -3.880  24.464  0.00  0.00    -0.284 N 
ATOM      3  H   PHE A   1       9.962  -4.201  24.393  0.00  0.00    +0.151 HD
ATOM      4  C   UNK A   0       8.357  -4.226  25.621  0.00  0.00    +0.323 C 
ATOM      5  N   UNK A   0       8.802  -5.410  26.152  0.00  0.00    -0.181 N 
ATOM      6  H   UNK A   0       9.770  -5.695  26.062  0.00  0.00    +0.184 HD
ATOM      7  O   UNK A   0       7.392  -3.625  26.077  0.00  0.00    -0.251 OA
BRANCH   5   8
ATOM      8  O   UNK A   0       8.191  -5.769  27.380  0.00  0.00    -0.294 OA
ATOM      9  H   UNK A   0       7.301  -5.357  27.306  0.00  0.00    +0.241 HD
ENDBRANCH   5   8
ENDBRANCH   1   2
BRANCH   1  10
ATOM     10  C   PHE A   1       9.962  -1.790  23.475  0.00  0.00    +0.326 C 
ATOM     11  OXT PHE A   1      10.679  -1.892  22.488  0.00  0.00    -0.249 OA
BRANCH  10  12
ATOM     12  O   PHE A   1      10.176  -0.841  24.418  0.00  0.00    -0.479 OA
ATOM     13  H   PHE A   1      11.136  -0.716  24.562  0.00  0.00    +0.295 HD
ENDBRANCH  10  12
ENDBRANCH   1  10
BRANCH   1  14
ATOM     14  CB  PHE A   1       7.938  -2.820  22.392  0.00  0.00    +0.069 C 
BRANCH  14  15
ATOM     15  CG  PHE A   1       6.823  -3.843  22.450  0.00  0.00    -0.045 A 
ATOM     16  CD2 PHE A   1       5.601  -3.515  23.055  0.00  0.00    +0.004 A 
ATOM     17  CE2 PHE A   1       4.574  -4.455  23.130  0.00  0.00    +0.000 A 
ATOM     18  CZ  PHE A   1       4.756  -5.731  22.603  0.00  0.00    +0.000 A 
ATOM     19  CE1 PHE A   1       5.969  -6.069  22.003  0.00  0.00    +0.000 A 
ATOM     20  CD1 PHE A   1       7.000  -5.130  21.928  0.00  0.00    +0.004 A 
ENDBRANCH  14  15
ENDBRANCH   1  14
TORSDOF 6
ENDMDL
MODEL 7
REMARK VINA RESULT:      -5.5      7.911      9.504
REMARK  Name = 
REMARK  6 active torsions:
REMARK  status: ('A' for Active; 'I' for Inactive)
REMARK    1  A    between atoms: CA_2  and  CB_3
REMARK    2  A    between atoms: CA_2  and  N_10
REMARK    3  A    between atoms: CA_2  and  C_15
REMARK    4  A    between atoms: CB_3  and  CG_4
REMARK    5  A    between atoms: N_13  and  O_14
REMARK    6  A    between atoms: C_15  and  O_16
REMARK                            x       y       z     vdW  Elec       q    Type
REMARK                         _______ _______ _______ _____ _____    ______ ____
ROOT
ATOM      1  CA  PHE A   1       7.938  -4.384  23.318  0.00  0.00    +0.187 C 
ENDROOT
BRANCH   1   2
ATOM      2  N   PHE A   1       8.443  -5.013  24.555  0.00  0.00    -0.284 N 
ATOM      3  H   PHE A   1       9.420  -4.841  24.754  0.00  0.00    +0.151 HD
ATOM      4  C   UNK A   0       7.653  -5.238  25.652  0.00  0.00    +0.323 C 
ATOM      5  N   UNK A   0       8.331  -5.824  26.691  0.00  0.00    -0.181 N 
ATOM      6  H   UNK A   0       9.309  -5.623  26.859  0.00  0.00    +0.184 HD
ATOM      7  O   UNK A   0       6.441  -5.063  25.677  0.00  0.00    -0.251 OA
BRANCH   5   8
ATOM      8  O   UNK A   0       7.556  -6.019  27.861  0.00  0.00    -0.294 OA
ATOM      9  H   UNK A   0       7.238  -5.111  28.064  0.00  0.00    +0.241 HD
ENDBRANCH   5   8
ENDBRANCH   1   2
BRANCH   1  10
ATOM     10  C   PHE A   1       6.889  -5.259  22.609  0.00  0.00    +0.326 C 
ATOM     11  OXT PHE A   1       7.154  -6.294  22.011  0.00  0.00    -0.249 OA
BRANCH  10  12
ATOM     12  O   PHE A   1       5.613  -4.833  22.770  0.00  0.00    -0.479 OA
ATOM     13  H   PHE A   1       5.023  -5.283  22.131  0.00  0.00    +0.295 HD
ENDBRANCH  10  12
ENDBRANCH   1  10
BRANCH   1  14
ATOM     14  CB  PHE A   1       7.406  -2.946  23.456  0.00  0.00    +0.069 C 
BRANCH  14  15
ATOM     15  CG  PHE A   1       8.469  -1.874  23.333  0.00  0.00    -0.045 A 
ATOM     16  CD2 PHE A   1       9.074  -1.349  24.484  0.00  0.00    +0.004 A 
ATOM     17  CE2 PHE A   1      10.039  -0.350  24.382  0.00  0.00    +0.000 A 
ATOM     18  CZ  PHE A   1      10.410   0.138  23.131  0.00  0.00    +0.000 A 
ATOM     19  CE1 PHE A   1       9.812  -0.374  21.980  0.00  0.00    +0.000 A 
ATOM     20  CD1 PHE A   1       8.844  -1.375  22.079  0.00  0.00    +0.004 A 
ENDBRANCH  14  15
ENDBRANCH   1  14
TORSDOF 6
ENDMDL
MODEL 8
REMARK VINA RESULT:      -5.4      6.449      7.522
REMARK  Name = 
REMARK  6 active torsions:
REMARK  status: ('A' for Active; 'I' for Inactive)
REMARK    1  A    between atoms: CA_2  and  CB_3
REMARK    2  A    between atoms: CA_2  and  N_10
REMARK    3  A    between atoms: CA_2  and  C_15
REMARK    4  A    between atoms: CB_3  and  CG_4
REMARK    5  A    between atoms: N_13  and  O_14
REMARK    6  A    between atoms: C_15  and  O_16
REMARK                            x       y       z     vdW  Elec       q    Type
REMARK                         _______ _______ _______ _____ _____    ______ ____
ROOT
ATOM      1  CA  PHE A   1       8.258  -1.667  25.342  0.00  0.00    +0.187 C 
ENDROOT
BRANCH   1   2
ATOM      2  N   PHE A   1       8.661  -2.905  26.039  0.00  0.00    -0.284 N 
ATOM      3  H   PHE A   1       8.158  -3.096  26.895  0.00  0.00    +0.151 HD
ATOM      4  C   UNK A   0       9.137  -4.008  25.380  0.00  0.00    +0.323 C 
ATOM      5  N   UNK A   0       9.442  -5.046  26.224  0.00  0.00    -0.181 N 
ATOM      6  H   UNK A   0       8.912  -5.207  27.072  0.00  0.00    +0.184 HD
ATOM      7  O   UNK A   0       9.395  -4.040  24.184  0.00  0.00    -0.251 OA
BRANCH   5   8
ATOM      8  O   UNK A   0       9.885  -6.223  25.570  0.00  0.00    -0.294 OA
ATOM      9  H   UNK A   0       9.442  -6.935  26.084  0.00  0.00    +0.241 HD
ENDBRANCH   5   8
ENDBRANCH   1   2
BRANCH   1  10
ATOM     10  C   PHE A   1       6.780  -1.317  25.590  0.00  0.00    +0.326 C 
ATOM     11  OXT PHE A   1       5.986  -1.032  24.702  0.00  0.00    -0.249 OA
BRANCH  10  12
ATOM     12  O   PHE A   1       6.393  -1.433  26.883  0.00  0.00    -0.479 OA
ATOM     13  H   PHE A   1       7.112  -1.138  27.480  0.00  0.00    +0.295 HD
ENDBRANCH  10  12
ENDBRANCH   1  10
BRANCH   1  14
ATOM     14  CB  PHE A   1       9.133  -0.427  25.599  0.00  0.00    +0.069 C 
BRANCH  14  15
ATOM     15  CG  PHE A   1       9.465   0.370  24.354  0.00  0.00    -0.045 A 
ATOM     16  CD2 PHE A   1       9.434  -0.249  23.096  0.00  0.00    +0.004 A 
ATOM     17  CE2 PHE A   1       9.756   0.471  21.946  0.00  0.00    +0.000 A 
ATOM     18  CZ  PHE A   1      10.113   1.814  22.041  0.00  0.00    +0.000 A 
ATOM     19  CE1 PHE A   1      10.151   2.437  23.287  0.00  0.00    +0.000 A 
ATOM     20  CD1 PHE A   1       9.831   1.719  24.441  0.00  0.00    +0.004 A 
ENDBRANCH  14  15
ENDBRANCH   1  14
TORSDOF 6
ENDMDL
MODEL 9
REMARK VINA RESULT:      -5.4      5.889      7.356
REMARK  Name = 
REMARK  6 active torsions:
REMARK  status: ('A' for Active; 'I' for Inactive)
REMARK    1  A    between atoms: CA_2  and  CB_3
REMARK    2  A    between atoms: CA_2  and  N_10
REMARK    3  A    between atoms: CA_2  and  C_15
REMARK    4  A    between atoms: CB_3  and  CG_4
REMARK    5  A    between atoms: N_13  and  O_14
REMARK    6  A    between atoms: C_15  and  O_16
REMARK                            x       y       z     vdW  Elec       q    Type
REMARK                         _______ _______ _______ _____ _____    ______ ____
ROOT
ATOM      1  CA  PHE A   1       8.557  -2.151  22.491  0.00  0.00    +0.187 C 
ENDROOT
BRANCH   1   2
ATOM      2  N   PHE A   1       9.154  -0.986  21.807  0.00  0.00    -0.284 N 
ATOM      3  H   PHE A   1       9.418  -1.145  20.844  0.00  0.00    +0.151 HD
ATOM      4  C   UNK A   0       8.826   0.308  22.117  0.00  0.00    +0.323 C 
ATOM      5  N   UNK A   0       9.493   1.230  21.351  0.00  0.00    -0.181 N 
ATOM      6  H   UNK A   0       9.738   1.033  20.388  0.00  0.00    +0.184 HD
ATOM      7  O   UNK A   0       8.116   0.633  23.061  0.00  0.00    -0.251 OA
BRANCH   5   8
ATOM      8  O   UNK A   0       9.136   2.577  21.608  0.00  0.00    -0.294 OA
ATOM      9  H   UNK A   0       9.901   2.907  22.130  0.00  0.00    +0.241 HD
ENDBRANCH   5   8
ENDBRANCH   1   2
BRANCH   1  10
ATOM     10  C   PHE A   1       9.238  -2.441  23.841  0.00  0.00    +0.326 C 
ATOM     11  OXT PHE A   1      10.161  -3.233  23.984  0.00  0.00    -0.249 OA
BRANCH  10  12
ATOM     12  O   PHE A   1       8.786  -1.678  24.865  0.00  0.00    -0.479 OA
ATOM     13  H   PHE A   1       8.223  -2.212  25.462  0.00  0.00    +0.295 HD
ENDBRANCH  10  12
ENDBRANCH   1  10
BRANCH   1  14
ATOM     14  CB  PHE A   1       7.030  -2.119  22.678  0.00  0.00    +0.069 C 
BRANCH  14  15
ATOM     15  CG  PHE A   1       6.364  -3.477  22.595  0.00  0.00    -0.045 A 
ATOM     16  CD2 PHE A   1       5.102  -3.677  23.174  0.00  0.00    +0.004 A 
ATOM     17  CE2 PHE A   1       4.490  -4.928  23.119  0.00  0.00    +0.000 A 
ATOM     18  CZ  PHE A   1       5.130  -5.992  22.488  0.00  0.00    +0.000 A 
ATOM     19  CE1 PHE A   1       6.387  -5.805  21.914  0.00  0.00    +0.000 A 
ATOM     20  CD1 PHE A   1       7.004  -4.554  21.968  0.00  0.00    +0.004 A 
ENDBRANCH  14  15
ENDBRANCH   1  14
TORSDOF 6
ENDMDL
