MODEL 1
REMARK VINA RESULT:      -3.2      0.000      0.000
REMARK  Name = 
REMARK  2 active torsions:
REMARK  status: ('A' for Active; 'I' for Inactive)
REMARK    1  A    between atoms: C_1  and  C_2
REMARK    2  A    between atoms: C_2  and  C_4
REMARK                            x       y       z     vdW  Elec       q    Type
REMARK                         _______ _______ _______ _____ _____    ______ ____
ROOT
ATOM      1  C   UNL     1       9.837   0.796  21.903  0.00  0.00    +0.277 C 
ATOM      2  O   UNL     1       9.260   0.110  21.076  0.00  0.00    -0.267 OA
ATOM      3  N   UNL     1      10.114   2.123  21.733  0.00  0.00    -0.323 N 
ATOM      4  H   UNL     1       9.834   2.588  20.883  0.00  0.00    +0.145 HD
ATOM      5  H   UNL     1      10.600   2.636  22.462  0.00  0.00    +0.145 HD
ENDROOT
BRANCH   1   7
ATOM      6  C   UNL     1      10.774   1.195  24.265  0.00  0.00    +0.096 C 
ATOM      7  C   UNL     1      10.314   0.210  23.234  0.00  0.00    +0.214 C 
ATOM      8  O   UNL     1      10.301  -1.007  23.397  0.00  0.00    -0.288 OA
ENDBRANCH   1   7
TORSDOF 1
ENDMDL
MODEL 2
REMARK VINA RESULT:      -3.2      6.455      6.897
REMARK  Name = 
REMARK  2 active torsions:
REMARK  status: ('A' for Active; 'I' for Inactive)
REMARK    1  A    between atoms: C_1  and  C_2
REMARK    2  A    between atoms: C_2  and  C_4
REMARK                            x       y       z     vdW  Elec       q    Type
REMARK                         _______ _______ _______ _____ _____    ______ ____
ROOT
ATOM      1  C   UNL     1       9.042  -5.297  25.233  0.00  0.00    +0.277 C 
ATOM      2  O   UNL     1       8.719  -5.344  24.059  0.00  0.00    -0.267 OA
ATOM      3  N   UNL     1      10.315  -5.511  25.683  0.00  0.00    -0.323 N 
ATOM      4  H   UNL     1      11.050  -5.719  25.024  0.00  0.00    +0.145 HD
ATOM      5  H   UNL     1      10.516  -5.459  26.677  0.00  0.00    +0.145 HD
ENDROOT
BRANCH   1   7
ATOM      6  C   UNL     1       7.657  -3.549  26.516  0.00  0.00    +0.096 C 
ATOM      7  C   UNL     1       8.020  -4.991  26.332  0.00  0.00    +0.214 C 
ATOM      8  O   UNL     1       7.556  -5.912  26.997  0.00  0.00    -0.288 OA
ENDBRANCH   1   7
TORSDOF 1
ENDMDL
MODEL 3
REMARK VINA RESULT:      -3.1      2.577      2.719
REMARK  Name = 
REMARK  2 active torsions:
REMARK  status: ('A' for Active; 'I' for Inactive)
REMARK    1  A    between atoms: C_1  and  C_2
REMARK    2  A    between atoms: C_2  and  C_4
REMARK                            x       y       z     vdW  Elec       q    Type
REMARK                         _______ _______ _______ _____ _____    ______ ____
ROOT
ATOM      1  C   UNL     1      10.550   2.652  23.099  0.00  0.00    +0.277 C 
ATOM      2  O   UNL     1      11.284   3.600  23.317  0.00  0.00    -0.267 OA
ATOM      3  N   UNL     1      10.154   2.265  21.850  0.00  0.00    -0.323 N 
ATOM      4  H   UNL     1      10.474   2.778  21.042  0.00  0.00    +0.145 HD
ATOM      5  H   UNL     1       9.539   1.465  21.738  0.00  0.00    +0.145 HD
ENDROOT
BRANCH   1   7
ATOM      6  C   UNL     1      10.803   0.589  24.616  0.00  0.00    +0.096 C 
ATOM      7  C   UNL     1       9.994   1.793  24.239  0.00  0.00    +0.214 C 
ATOM      8  O   UNL     1       8.941   2.116  24.779  0.00  0.00    -0.288 OA
ENDBRANCH   1   7
TORSDOF 1
ENDMDL
MODEL 4
REMARK VINA RESULT:      -3.0      1.791      2.233
REMARK  Name = 
REMARK  2 active torsions:
REMARK  status: ('A' for Active; 'I' for Inactive)
REMARK    1  A    between atoms: C_1  and  C_2
REMARK    2  A    between atoms: C_2  and  C_4
REMARK                            x       y       z     vdW  Elec       q    Type
REMARK                         _______ _______ _______ _____ _____    ______ ____
ROOT
ATOM      1  C   UNL     1      10.144  -0.963  22.256  0.00  0.00    +0.277 C 
ATOM      2  O   UNL     1      10.618  -2.002  22.681  0.00  0.00    -0.267 OA
ATOM      3  N   UNL     1       9.466  -0.862  21.074  0.00  0.00    -0.323 N 
ATOM      4  H   UNL     1       9.335  -1.682  20.500  0.00  0.00    +0.145 HD
ATOM      5  H   UNL     1       9.097   0.036  20.777  0.00  0.00    +0.145 HD
ENDROOT
BRANCH   1   7
ATOM      6  C   UNL     1      10.506   0.231  24.506  0.00  0.00    +0.096 C 
ATOM      7  C   UNL     1      10.275   0.351  23.031  0.00  0.00    +0.214 C 
ATOM      8  O   UNL     1      10.188   1.417  22.428  0.00  0.00    -0.288 OA
ENDBRANCH   1   7
TORSDOF 1
ENDMDL
MODEL 5
REMARK VINA RESULT:      -2.9      5.719      6.039
REMARK  Name = 
REMARK  2 active torsions:
REMARK  status: ('A' for Active; 'I' for Inactive)
REMARK    1  A    between atoms: C_1  and  C_2
REMARK    2  A    between atoms: C_2  and  C_4
REMARK                            x       y       z     vdW  Elec       q    Type
REMARK                         _______ _______ _______ _____ _____    ______ ____
ROOT
ATOM      1  C   UNL     1      12.511   5.220  23.413  0.00  0.00    +0.277 C 
ATOM      2  O   UNL     1      12.041   4.111  23.228  0.00  0.00    -0.267 OA
ATOM      3  N   UNL     1      13.591   5.713  22.736  0.00  0.00    -0.323 N 
ATOM      4  H   UNL     1      14.044   5.146  22.035  0.00  0.00    +0.145 HD
ATOM      5  H   UNL     1      13.934   6.647  22.940  0.00  0.00    +0.145 HD
ENDROOT
BRANCH   1   7
ATOM      6  C   UNL     1      10.437   6.400  24.374  0.00  0.00    +0.096 C 
ATOM      7  C   UNL     1      11.917   6.178  24.449  0.00  0.00    +0.214 C 
ATOM      8  O   UNL     1      12.656   6.708  25.274  0.00  0.00    -0.288 OA
ENDBRANCH   1   7
TORSDOF 1
ENDMDL
MODEL 6
REMARK VINA RESULT:      -2.9      2.194      2.288
REMARK  Name = 
REMARK  2 active torsions:
REMARK  status: ('A' for Active; 'I' for Inactive)
REMARK    1  A    between atoms: C_1  and  C_2
REMARK    2  A    between atoms: C_2  and  C_4
REMARK                            x       y       z     vdW  Elec       q    Type
REMARK                         _______ _______ _______ _____ _____    ______ ____
ROOT
ATOM      1  C   UNL     1       8.643   1.559  21.748  0.00  0.00    +0.277 C 
ATOM      2  O   UNL     1       7.614   2.169  21.516  0.00  0.00    -0.267 OA
ATOM      3  N   UNL     1       9.894   2.092  21.607  0.00  0.00    -0.323 N 
ATOM      4  H   UNL     1       9.999   3.045  21.294  0.00  0.00    +0.145 HD
ATOM      5  H   UNL     1      10.711   1.527  21.816  0.00  0.00    +0.145 HD
ENDROOT
BRANCH   1   7
ATOM      6  C   UNL     1       9.796  -0.739  21.840  0.00  0.00    +0.096 C 
ATOM      7  C   UNL     1       8.620   0.105  22.228  0.00  0.00    +0.214 C 
ATOM      8  O   UNL     1       7.668  -0.297  22.890  0.00  0.00    -0.288 OA
ENDBRANCH   1   7
TORSDOF 1
ENDMDL
MODEL 7
REMARK VINA RESULT:      -2.9      6.668      7.177
REMARK  Name = 
REMARK  2 active torsions:
REMARK  status: ('A' for Active; 'I' for Inactive)
REMARK    1  A    between atoms: C_1  and  C_2
REMARK    2  A    between atoms: C_2  and  C_4
REMARK                            x       y       z     vdW  Elec       q    Type
REMARK                         _______ _______ _______ _____ _____    ______ ____
ROOT
ATOM      1  C   UNL     1       7.553  -5.326  25.811  0.00  0.00    +0.277 C 
ATOM      2  O   UNL     1       6.346  -5.159  25.814  0.00  0.00    -0.267 OA
ATOM      3  N   UNL     1       8.268  -5.740  26.900  0.00  0.00    -0.323 N 
ATOM      4  H   UNL     1       7.792  -5.927  27.770  0.00  0.00    +0.145 HD
ATOM      5  H   UNL     1       9.274  -5.858  26.831  0.00  0.00    +0.145 HD
ENDROOT
BRANCH   1   7
ATOM      6  C   UNL     1       7.646  -5.041  23.256  0.00  0.00    +0.096 C 
ATOM      7  C   UNL     1       8.392  -5.076  24.555  0.00  0.00    +0.214 C 
ATOM      8  O   UNL     1       9.605  -4.920  24.661  0.00  0.00    -0.288 OA
ENDBRANCH   1   7
TORSDOF 1
ENDMDL
MODEL 8
REMARK VINA RESULT:      -2.9      6.650      6.939
REMARK  Name = 
REMARK  2 active torsions:
REMARK  status: ('A' for Active; 'I' for Inactive)
REMARK    1  A    between atoms: C_1  and  C_2
REMARK    2  A    between atoms: C_2  and  C_4
REMARK                            x       y       z     vdW  Elec       q    Type
REMARK                         _______ _______ _______ _____ _____    ______ ____
ROOT
ATOM      1  C   UNL     1       8.838  -5.192  25.273  0.00  0.00    +0.277 C 
ATOM      2  O   UNL     1       9.976  -5.003  24.879  0.00  0.00    -0.267 OA
ATOM      3  N   UNL     1       8.533  -5.770  26.473  0.00  0.00    -0.323 N 
ATOM      4  H   UNL     1       9.276  -6.066  27.089  0.00  0.00    +0.145 HD
ATOM      5  H   UNL     1       7.562  -5.900  26.741  0.00  0.00    +0.145 HD
ENDROOT
BRANCH   1   7
ATOM      6  C   UNL     1       7.556  -5.359  23.049  0.00  0.00    +0.096 C 
ATOM      7  C   UNL     1       7.623  -4.789  24.433  0.00  0.00    +0.214 C 
ATOM      8  O   UNL     1       6.780  -4.037  24.914  0.00  0.00    -0.288 OA
ENDBRANCH   1   7
TORSDOF 1
ENDMDL
MODEL 9
REMARK VINA RESULT:      -2.9      2.011      2.748
REMARK  Name = 
REMARK  2 active torsions:
REMARK  status: ('A' for Active; 'I' for Inactive)
REMARK    1  A    between atoms: C_1  and  C_2
REMARK    2  A    between atoms: C_2  and  C_4
REMARK                            x       y       z     vdW  Elec       q    Type
REMARK                         _______ _______ _______ _____ _____    ______ ____
ROOT
ATOM      1  C   UNL     1      10.167  -0.385  24.202  0.00  0.00    +0.277 C 
ATOM      2  O   UNL     1       9.462  -1.009  24.977  0.00  0.00    -0.267 OA
ATOM      3  N   UNL     1      10.974   0.653  24.573  0.00  0.00    -0.323 N 
ATOM      4  H   UNL     1      11.008   0.940  25.540  0.00  0.00    +0.145 HD
ATOM      5  H   UNL     1      11.536   1.132  23.876  0.00  0.00    +0.145 HD
ENDROOT
BRANCH   1   7
ATOM      6  C   UNL     1       9.715   0.346  21.777  0.00  0.00    +0.096 C 
ATOM      7  C   UNL     1      10.205  -0.720  22.709  0.00  0.00    +0.214 C 
ATOM      8  O   UNL     1      10.624  -1.816  22.347  0.00  0.00    -0.288 OA
ENDBRANCH   1   7
TORSDOF 1
ENDMDL
