MODEL 1
REMARK VINA RESULT:      -6.4      0.000      0.000
REMARK  Name = 
REMARK  7 active torsions:
REMARK  status: ('A' for Active; 'I' for Inactive)
REMARK    1  A    between atoms: O_1  and  C_2
REMARK    2  A    between atoms: C_2  and  C_4
REMARK    3  A    between atoms: N_6  and  C_7
REMARK    4  A    between atoms: C_9  and  C_20
REMARK    5  A    between atoms: C_11  and  N_12
REMARK    6  A    between atoms: C_13  and  C_15
REMARK    7  A    between atoms: C_15  and  O_16
REMARK                            x       y       z     vdW  Elec       q    Type
REMARK                         _______ _______ _______ _____ _____    ______ ____
ROOT
ATOM      1  C   UNL     1       8.080  -2.913  23.861  0.00  0.00    +0.055 A 
ATOM      2  C   UNL     1       7.922  -3.646  25.065  0.00  0.00    +0.083 A 
ATOM      3 CL   UNL     1       8.571  -3.010  26.545  0.00  0.00    -0.080 Cl
ATOM      4  C   UNL     1       7.238  -4.888  25.077  0.00  0.00    +0.055 A 
ATOM      5  C   UNL     1       6.730  -5.378  23.872  0.00  0.00    +0.043 A 
ATOM      6  C   UNL     1       6.924  -4.687  22.679  0.00  0.00    +0.055 A 
ATOM      7  C   UNL     1       7.599  -3.472  22.673  0.00  0.00    +0.043 A 
ENDROOT
BRANCH   1   9
ATOM      8  C   UNL     1       9.916  -1.346  23.237  0.00  0.00    +0.325 C 
ATOM      9  N   UNL     1       8.709  -1.640  23.847  0.00  0.00    -0.275 N 
ATOM     10  H   UNL     1       8.194  -0.847  24.233  0.00  0.00    +0.155 HD
ATOM     11  O   UNL     1      10.645  -2.074  22.569  0.00  0.00    -0.263 OA
BRANCH   8  12
ATOM     12  C   UNL     1      10.379   0.106  23.373  0.00  0.00    +0.393 C 
ATOM     13  O   UNL     1      10.871   0.553  24.391  0.00  0.00    -0.240 OA
BRANCH  12  14
ATOM     14  O   UNL     1      10.157   0.783  22.226  0.00  0.00    -0.474 OA
ATOM     15  H   UNL     1       9.643   1.603  22.430  0.00  0.00    +0.296 HD
ENDBRANCH  12  14
ENDBRANCH   8  12
ENDBRANCH   1   9
BRANCH   4  16
ATOM     16  N   UNL     1       7.034  -5.608  26.284  0.00  0.00    -0.275 N 
ATOM     17  H   UNL     1       7.775  -6.237  26.595  0.00  0.00    +0.155 HD
ATOM     18  C   UNL     1       5.898  -5.558  27.077  0.00  0.00    +0.325 C 
ATOM     19  O   UNL     1       4.825  -5.007  26.859  0.00  0.00    -0.263 OA
BRANCH  18  20
ATOM     20  C   UNL     1       6.000  -6.320  28.404  0.00  0.00    +0.393 C 
ATOM     21  O   UNL     1       6.530  -5.854  29.392  0.00  0.00    -0.240 OA
BRANCH  20  22
ATOM     22  O   UNL     1       5.416  -7.530  28.300  0.00  0.00    -0.474 OA
ATOM     23  H   UNL     1       5.800  -8.010  27.526  0.00  0.00    +0.296 HD
ENDBRANCH  20  22
ENDBRANCH  18  20
ENDBRANCH   4  16
BRANCH   6  24
ATOM     24  C   UNL     1       6.410  -5.218  21.459  0.00  0.00    +0.099 C 
ATOM     25  N   UNL     1       5.994  -5.650  20.465  0.00  0.00    -0.191 NA
ENDBRANCH   6  24
TORSDOF 7
ENDMDL
MODEL 2
REMARK VINA RESULT:      -6.3      0.154      6.504
REMARK  Name = 
REMARK  7 active torsions:
REMARK  status: ('A' for Active; 'I' for Inactive)
REMARK    1  A    between atoms: O_1  and  C_2
REMARK    2  A    between atoms: C_2  and  C_4
REMARK    3  A    between atoms: N_6  and  C_7
REMARK    4  A    between atoms: C_9  and  C_20
REMARK    5  A    between atoms: C_11  and  N_12
REMARK    6  A    between atoms: C_13  and  C_15
REMARK    7  A    between atoms: C_15  and  O_16
REMARK                            x       y       z     vdW  Elec       q    Type
REMARK                         _______ _______ _______ _____ _____    ______ ____
ROOT
ATOM      1  C   UNL     1       7.147  -4.795  25.156  0.00  0.00    +0.055 A 
ATOM      2  C   UNL     1       7.771  -3.522  25.117  0.00  0.00    +0.083 A 
ATOM      3 CL   UNL     1       8.323  -2.793  26.594  0.00  0.00    -0.080 Cl
ATOM      4  C   UNL     1       7.956  -2.839  23.887  0.00  0.00    +0.055 A 
ATOM      5  C   UNL     1       7.500  -3.447  22.715  0.00  0.00    +0.043 A 
ATOM      6  C   UNL     1       6.843  -4.673  22.754  0.00  0.00    +0.055 A 
ATOM      7  C   UNL     1       6.661  -5.336  23.962  0.00  0.00    +0.043 A 
ENDROOT
BRANCH   1   9
ATOM      8  C   UNL     1       5.894  -5.511  27.189  0.00  0.00    +0.325 C 
ATOM      9  N   UNL     1       7.012  -5.515  26.373  0.00  0.00    -0.275 N 
ATOM     10  H   UNL     1       7.755  -6.166  26.629  0.00  0.00    +0.155 HD
ATOM     11  O   UNL     1       4.815  -4.951  27.024  0.00  0.00    -0.263 OA
BRANCH   8  12
ATOM     12  C   UNL     1       6.006  -6.370  28.451  0.00  0.00    +0.393 C 
ATOM     13  O   UNL     1       6.544  -5.985  29.470  0.00  0.00    -0.240 OA
BRANCH  12  14
ATOM     14  O   UNL     1       5.435  -7.578  28.253  0.00  0.00    -0.474 OA
ATOM     15  H   UNL     1       4.795  -7.512  27.502  0.00  0.00    +0.296 HD
ENDBRANCH  12  14
ENDBRANCH   8  12
ENDBRANCH   1   9
BRANCH   4  16
ATOM     16  N   UNL     1       8.621  -1.586  23.830  0.00  0.00    -0.275 N 
ATOM     17  H   UNL     1       8.127  -0.767  24.188  0.00  0.00    +0.155 HD
ATOM     18  C   UNL     1       9.883  -1.360  23.305  0.00  0.00    +0.325 C 
ATOM     19  O   UNL     1      10.616  -2.128  22.690  0.00  0.00    -0.263 OA
BRANCH  18  20
ATOM     20  C   UNL     1      10.424   0.061  23.505  0.00  0.00    +0.393 C 
ATOM     21  O   UNL     1      10.962   0.423  24.532  0.00  0.00    -0.240 OA
BRANCH  20  22
ATOM     22  O   UNL     1      10.226   0.803  22.397  0.00  0.00    -0.474 OA
ATOM     23  H   UNL     1       9.377   1.301  22.487  0.00  0.00    +0.296 HD
ENDBRANCH  20  22
ENDBRANCH  18  20
ENDBRANCH   4  16
BRANCH   6  24
ATOM     24  C   UNL     1       6.370  -5.263  21.544  0.00  0.00    +0.099 C 
ATOM     25  N   UNL     1       5.988  -5.745  20.559  0.00  0.00    -0.191 NA
ENDBRANCH   6  24
TORSDOF 7
ENDMDL
MODEL 3
REMARK VINA RESULT:      -6.1      0.849      1.168
REMARK  Name = 
REMARK  7 active torsions:
REMARK  status: ('A' for Active; 'I' for Inactive)
REMARK    1  A    between atoms: O_1  and  C_2
REMARK    2  A    between atoms: C_2  and  C_4
REMARK    3  A    between atoms: N_6  and  C_7
REMARK    4  A    between atoms: C_9  and  C_20
REMARK    5  A    between atoms: C_11  and  N_12
REMARK    6  A    between atoms: C_13  and  C_15
REMARK    7  A    between atoms: C_15  and  O_16
REMARK                            x       y       z     vdW  Elec       q    Type
REMARK                         _______ _______ _______ _____ _____    ______ ____
ROOT
ATOM      1  C   UNL     1       7.688  -2.765  23.744  0.00  0.00    +0.055 A 
ATOM      2  C   UNL     1       7.288  -3.259  25.012  0.00  0.00    +0.083 A 
ATOM      3 CL   UNL     1       7.763  -2.410  26.451  0.00  0.00    -0.080 Cl
ATOM      4  C   UNL     1       6.501  -4.434  25.120  0.00  0.00    +0.055 A 
ATOM      5  C   UNL     1       6.136  -5.099  23.947  0.00  0.00    +0.043 A 
ATOM      6  C   UNL     1       6.567  -4.646  22.704  0.00  0.00    +0.055 A 
ATOM      7  C   UNL     1       7.341  -3.496  22.604  0.00  0.00    +0.043 A 
ENDROOT
BRANCH   1   9
ATOM      8  C   UNL     1       9.768  -1.462  23.304  0.00  0.00    +0.325 C 
ATOM      9  N   UNL     1       8.424  -1.556  23.621  0.00  0.00    -0.275 N 
ATOM     10  H   UNL     1       7.910  -0.675  23.674  0.00  0.00    +0.155 HD
ATOM     11  O   UNL     1      10.564  -2.354  23.028  0.00  0.00    -0.263 OA
BRANCH   8  12
ATOM     12  C   UNL     1      10.323  -0.037  23.238  0.00  0.00    +0.393 C 
ATOM     13  O   UNL     1      10.182   0.685  22.271  0.00  0.00    -0.240 OA
BRANCH  12  14
ATOM     14  O   UNL     1      10.971   0.271  24.382  0.00  0.00    -0.474 OA
ATOM     15  H   UNL     1      10.306   0.402  25.103  0.00  0.00    +0.296 HD
ENDBRANCH  12  14
ENDBRANCH   8  12
ENDBRANCH   1   9
BRANCH   4  16
ATOM     16  N   UNL     1       6.055  -4.912  26.380  0.00  0.00    -0.275 N 
ATOM     17  H   UNL     1       5.079  -4.751  26.633  0.00  0.00    +0.155 HD
ATOM     18  C   UNL     1       6.834  -5.561  27.325  0.00  0.00    +0.325 C 
ATOM     19  O   UNL     1       8.047  -5.746  27.335  0.00  0.00    -0.263 OA
BRANCH  18  20
ATOM     20  C   UNL     1       6.067  -6.103  28.538  0.00  0.00    +0.393 C 
ATOM     21  O   UNL     1       5.914  -5.465  29.559  0.00  0.00    -0.240 OA
BRANCH  20  22
ATOM     22  O   UNL     1       5.601  -7.342  28.286  0.00  0.00    -0.474 OA
ATOM     23  H   UNL     1       4.633  -7.372  28.487  0.00  0.00    +0.296 HD
ENDBRANCH  20  22
ENDBRANCH  18  20
ENDBRANCH   4  16
BRANCH   6  24
ATOM     24  C   UNL     1       6.195  -5.354  21.522  0.00  0.00    +0.099 C 
ATOM     25  N   UNL     1       5.892  -5.932  20.562  0.00  0.00    -0.191 NA
ENDBRANCH   6  24
TORSDOF 7
ENDMDL
MODEL 4
REMARK VINA RESULT:      -6.0      3.721      4.885
REMARK  Name = 
REMARK  7 active torsions:
REMARK  status: ('A' for Active; 'I' for Inactive)
REMARK    1  A    between atoms: O_1  and  C_2
REMARK    2  A    between atoms: C_2  and  C_4
REMARK    3  A    between atoms: N_6  and  C_7
REMARK    4  A    between atoms: C_9  and  C_20
REMARK    5  A    between atoms: C_11  and  N_12
REMARK    6  A    between atoms: C_13  and  C_15
REMARK    7  A    between atoms: C_15  and  O_16
REMARK                            x       y       z     vdW  Elec       q    Type
REMARK                         _______ _______ _______ _____ _____    ______ ____
ROOT
ATOM      1  C   UNL     1       7.628   0.045  23.513  0.00  0.00    +0.055 A 
ATOM      2  C   UNL     1       7.730  -1.274  23.000  0.00  0.00    +0.083 A 
ATOM      3 CL   UNL     1       8.905  -1.627  21.772  0.00  0.00    -0.080 Cl
ATOM      4  C   UNL     1       6.887  -2.308  23.481  0.00  0.00    +0.055 A 
ATOM      5  C   UNL     1       5.948  -1.996  24.467  0.00  0.00    +0.043 A 
ATOM      6  C   UNL     1       5.811  -0.693  24.938  0.00  0.00    +0.055 A 
ATOM      7  C   UNL     1       6.637   0.318  24.460  0.00  0.00    +0.043 A 
ENDROOT
BRANCH   1   9
ATOM      8  C   UNL     1       9.761   1.333  23.609  0.00  0.00    +0.325 C 
ATOM      9  N   UNL     1       8.508   1.075  23.083  0.00  0.00    -0.275 N 
ATOM     10  H   UNL     1       8.246   1.614  22.256  0.00  0.00    +0.155 HD
ATOM     11  O   UNL     1      10.374   0.730  24.485  0.00  0.00    -0.263 OA
BRANCH   8  12
ATOM     12  C   UNL     1      10.507   2.506  22.969  0.00  0.00    +0.393 C 
ATOM     13  O   UNL     1      11.097   3.350  23.617  0.00  0.00    -0.240 OA
BRANCH  12  14
ATOM     14  O   UNL     1      10.404   2.455  21.623  0.00  0.00    -0.474 OA
ATOM     15  H   UNL     1      11.312   2.470  21.231  0.00  0.00    +0.296 HD
ENDBRANCH  12  14
ENDBRANCH   8  12
ENDBRANCH   1   9
BRANCH   4  16
ATOM     16  N   UNL     1       7.011  -3.642  23.010  0.00  0.00    -0.275 N 
ATOM     17  H   UNL     1       7.676  -4.255  23.484  0.00  0.00    +0.155 HD
ATOM     18  C   UNL     1       6.328  -4.191  21.936  0.00  0.00    +0.325 C 
ATOM     19  O   UNL     1       5.596  -3.641  21.120  0.00  0.00    -0.263 OA
BRANCH  18  20
ATOM     20  C   UNL     1       6.539  -5.696  21.734  0.00  0.00    +0.393 C 
ATOM     21  O   UNL     1       7.550  -6.273  22.083  0.00  0.00    -0.240 OA
BRANCH  20  22
ATOM     22  O   UNL     1       5.461  -6.250  21.145  0.00  0.00    -0.474 OA
ATOM     23  H   UNL     1       4.775  -5.553  21.003  0.00  0.00    +0.296 HD
ENDBRANCH  20  22
ENDBRANCH  18  20
ENDBRANCH   4  16
BRANCH   6  24
ATOM     24  C   UNL     1       4.832  -0.397  25.932  0.00  0.00    +0.099 C 
ATOM     25  N   UNL     1       4.036  -0.155  26.741  0.00  0.00    -0.191 NA
ENDBRANCH   6  24
TORSDOF 7
ENDMDL
MODEL 5
REMARK VINA RESULT:      -6.0      3.217      4.712
REMARK  Name = 
REMARK  7 active torsions:
REMARK  status: ('A' for Active; 'I' for Inactive)
REMARK    1  A    between atoms: O_1  and  C_2
REMARK    2  A    between atoms: C_2  and  C_4
REMARK    3  A    between atoms: N_6  and  C_7
REMARK    4  A    between atoms: C_9  and  C_20
REMARK    5  A    between atoms: C_11  and  N_12
REMARK    6  A    between atoms: C_13  and  C_15
REMARK    7  A    between atoms: C_15  and  O_16
REMARK                            x       y       z     vdW  Elec       q    Type
REMARK                         _______ _______ _______ _____ _____    ______ ____
ROOT
ATOM      1  C   UNL     1       7.265  -4.577  24.159  0.00  0.00    +0.055 A 
ATOM      2  C   UNL     1       6.161  -5.140  23.469  0.00  0.00    +0.083 A 
ATOM      3 CL   UNL     1       6.016  -4.910  21.754  0.00  0.00    -0.080 Cl
ATOM      4  C   UNL     1       5.177  -5.892  24.161  0.00  0.00    +0.055 A 
ATOM      5  C   UNL     1       5.317  -6.058  25.540  0.00  0.00    +0.043 A 
ATOM      6  C   UNL     1       6.372  -5.467  26.229  0.00  0.00    +0.055 A 
ATOM      7  C   UNL     1       7.331  -4.728  25.547  0.00  0.00    +0.043 A 
ENDROOT
BRANCH   1   9
ATOM      8  C   UNL     1       8.271  -2.525  23.160  0.00  0.00    +0.325 C 
ATOM      9  N   UNL     1       8.289  -3.875  23.467  0.00  0.00    -0.275 N 
ATOM     10  H   UNL     1       9.155  -4.373  23.259  0.00  0.00    +0.155 HD
ATOM     11  O   UNL     1       7.432  -1.676  23.445  0.00  0.00    -0.263 OA
BRANCH   8  12
ATOM     12  C   UNL     1       9.498  -2.014  22.403  0.00  0.00    +0.393 C 
ATOM     13  O   UNL     1      10.639  -2.239  22.759  0.00  0.00    -0.240 OA
BRANCH  12  14
ATOM     14  O   UNL     1       9.123  -1.297  21.321  0.00  0.00    -0.474 OA
ATOM     15  H   UNL     1       8.784  -1.916  20.628  0.00  0.00    +0.296 HD
ENDBRANCH  12  14
ENDBRANCH   8  12
ENDBRANCH   1   9
BRANCH   4  16
ATOM     16  N   UNL     1       4.093  -6.499  23.474  0.00  0.00    -0.275 N 
ATOM     17  H   UNL     1       4.261  -7.397  23.018  0.00  0.00    +0.155 HD
ATOM     18  C   UNL     1       2.819  -5.970  23.337  0.00  0.00    +0.325 C 
ATOM     19  O   UNL     1       2.402  -4.862  23.655  0.00  0.00    -0.263 OA
BRANCH  18  20
ATOM     20  C   UNL     1       1.798  -6.902  22.674  0.00  0.00    +0.393 C 
ATOM     21  O   UNL     1       0.851  -6.492  22.033  0.00  0.00    -0.240 OA
BRANCH  20  22
ATOM     22  O   UNL     1       2.118  -8.192  22.898  0.00  0.00    -0.474 OA
ATOM     23  H   UNL     1       3.050  -8.350  22.608  0.00  0.00    +0.296 HD
ENDBRANCH  20  22
ENDBRANCH  18  20
ENDBRANCH   4  16
BRANCH   6  24
ATOM     24  C   UNL     1       6.481  -5.637  27.642  0.00  0.00    +0.099 C 
ATOM     25  N   UNL     1       6.570  -5.777  28.791  0.00  0.00    -0.191 NA
ENDBRANCH   6  24
TORSDOF 7
ENDMDL
MODEL 6
REMARK VINA RESULT:      -5.9      4.105      6.432
REMARK  Name = 
REMARK  7 active torsions:
REMARK  status: ('A' for Active; 'I' for Inactive)
REMARK    1  A    between atoms: O_1  and  C_2
REMARK    2  A    between atoms: C_2  and  C_4
REMARK    3  A    between atoms: N_6  and  C_7
REMARK    4  A    between atoms: C_9  and  C_20
REMARK    5  A    between atoms: C_11  and  N_12
REMARK    6  A    between atoms: C_13  and  C_15
REMARK    7  A    between atoms: C_15  and  O_16
REMARK                            x       y       z     vdW  Elec       q    Type
REMARK                         _______ _______ _______ _____ _____    ______ ____
ROOT
ATOM      1  C   UNL     1       9.777   2.733  23.295  0.00  0.00    +0.055 A 
ATOM      2  C   UNL     1       9.881   1.447  23.884  0.00  0.00    +0.083 A 
ATOM      3 CL   UNL     1      11.438   0.849  24.366  0.00  0.00    -0.080 Cl
ATOM      4  C   UNL     1       8.728   0.646  24.089  0.00  0.00    +0.055 A 
ATOM      5  C   UNL     1       7.489   1.150  23.689  0.00  0.00    +0.043 A 
ATOM      6  C   UNL     1       7.389   2.391  23.065  0.00  0.00    +0.055 A 
ATOM      7  C   UNL     1       8.521   3.170  22.863  0.00  0.00    +0.043 A 
ENDROOT
BRANCH   1   9
ATOM      8  C   UNL     1      11.054   4.844  23.662  0.00  0.00    +0.325 C 
ATOM      9  N   UNL     1      10.916   3.569  23.140  0.00  0.00    -0.275 N 
ATOM     10  H   UNL     1      11.743   3.174  22.691  0.00  0.00    +0.155 HD
ATOM     11  O   UNL     1      10.282   5.478  24.375  0.00  0.00    -0.263 OA
BRANCH   8  12
ATOM     12  C   UNL     1      12.381   5.537  23.346  0.00  0.00    +0.393 C 
ATOM     13  O   UNL     1      12.894   5.517  22.244  0.00  0.00    -0.240 OA
BRANCH  12  14
ATOM     14  O   UNL     1      12.871   6.146  24.448  0.00  0.00    -0.474 OA
ATOM     15  H   UNL     1      13.806   5.858  24.586  0.00  0.00    +0.296 HD
ENDBRANCH  12  14
ENDBRANCH   8  12
ENDBRANCH   1   9
BRANCH   4  16
ATOM     16  N   UNL     1       8.814  -0.623  24.720  0.00  0.00    -0.275 N 
ATOM     17  H   UNL     1       8.609  -0.673  25.719  0.00  0.00    +0.155 HD
ATOM     18  C   UNL     1       9.179  -1.812  24.109  0.00  0.00    +0.325 C 
ATOM     19  O   UNL     1       9.608  -2.001  22.976  0.00  0.00    -0.263 OA
BRANCH  18  20
ATOM     20  C   UNL     1       9.045  -3.061  24.988  0.00  0.00    +0.393 C 
ATOM     21  O   UNL     1       8.325  -3.105  25.965  0.00  0.00    -0.240 OA
BRANCH  20  22
ATOM     22  O   UNL     1       9.811  -4.061  24.509  0.00  0.00    -0.474 OA
ATOM     23  H   UNL     1      10.764  -3.826  24.630  0.00  0.00    +0.296 HD
ENDBRANCH  20  22
ENDBRANCH  18  20
ENDBRANCH   4  16
BRANCH   6  24
ATOM     24  C   UNL     1       6.113   2.874  22.649  0.00  0.00    +0.099 C 
ATOM     25  N   UNL     1       5.073   3.266  22.312  0.00  0.00    -0.191 NA
ENDBRANCH   6  24
TORSDOF 7
ENDMDL
MODEL 7
REMARK VINA RESULT:      -5.9      3.570      7.299
REMARK  Name = 
REMARK  7 active torsions:
REMARK  status: ('A' for Active; 'I' for Inactive)
REMARK    1  A    between atoms: O_1  and  C_2
REMARK    2  A    between atoms: C_2  and  C_4
REMARK    3  A    between atoms: N_6  and  C_7
REMARK    4  A    between atoms: C_9  and  C_20
REMARK    5  A    between atoms: C_11  and  N_12
REMARK    6  A    between atoms: C_13  and  C_15
REMARK    7  A    between atoms: C_15  and  O_16
REMARK                            x       y       z     vdW  Elec       q    Type
REMARK                         _______ _______ _______ _____ _____    ______ ____
ROOT
ATOM      1  C   UNL     1       7.285  -2.628  23.633  0.00  0.00    +0.055 A 
ATOM      2  C   UNL     1       8.041  -1.541  23.125  0.00  0.00    +0.083 A 
ATOM      3 CL   UNL     1       8.965  -1.748  21.669  0.00  0.00    -0.080 Cl
ATOM      4  C   UNL     1       8.048  -0.287  23.788  0.00  0.00    +0.055 A 
ATOM      5  C   UNL     1       7.298  -0.150  24.958  0.00  0.00    +0.043 A 
ATOM      6  C   UNL     1       6.594  -1.228  25.487  0.00  0.00    +0.055 A 
ATOM      7  C   UNL     1       6.594  -2.456  24.836  0.00  0.00    +0.043 A 
ENDROOT
BRANCH   1   9
ATOM      8  C   UNL     1       6.332  -4.183  21.931  0.00  0.00    +0.325 C 
ATOM      9  N   UNL     1       7.221  -3.870  22.945  0.00  0.00    -0.275 N 
ATOM     10  H   UNL     1       7.947  -4.562  23.139  0.00  0.00    +0.155 HD
ATOM     11  O   UNL     1       5.480  -3.477  21.401  0.00  0.00    -0.263 OA
BRANCH   8  12
ATOM     12  C   UNL     1       6.470  -5.595  21.358  0.00  0.00    +0.393 C 
ATOM     13  O   UNL     1       6.965  -6.517  21.977  0.00  0.00    -0.240 OA
BRANCH  12  14
ATOM     14  O   UNL     1       5.973  -5.647  20.102  0.00  0.00    -0.474 OA
ATOM     15  H   UNL     1       6.555  -5.115  19.505  0.00  0.00    +0.296 HD
ENDBRANCH  12  14
ENDBRANCH   8  12
ENDBRANCH   1   9
BRANCH   4  16
ATOM     16  N   UNL     1       8.763   0.822  23.263  0.00  0.00    -0.275 N 
ATOM     17  H   UNL     1       8.317   1.371  22.527  0.00  0.00    +0.155 HD
ATOM     18  C   UNL     1      10.036   1.219  23.640  0.00  0.00    +0.325 C 
ATOM     19  O   UNL     1      10.835   0.658  24.382  0.00  0.00    -0.263 OA
BRANCH  18  20
ATOM     20  C   UNL     1      10.514   2.539  23.022  0.00  0.00    +0.393 C 
ATOM     21  O   UNL     1      10.911   3.473  23.688  0.00  0.00    -0.240 OA
BRANCH  20  22
ATOM     22  O   UNL     1      10.435   2.486  21.677  0.00  0.00    -0.474 OA
ATOM     23  H   UNL     1      10.442   1.541  21.388  0.00  0.00    +0.296 HD
ENDBRANCH  20  22
ENDBRANCH  18  20
ENDBRANCH   4  16
BRANCH   6  24
ATOM     24  C   UNL     1       5.851  -1.066  26.694  0.00  0.00    +0.099 C 
ATOM     25  N   UNL     1       5.247  -0.933  27.677  0.00  0.00    -0.191 NA
ENDBRANCH   6  24
TORSDOF 7
ENDMDL
MODEL 8
REMARK VINA RESULT:      -5.4      2.249      2.412
REMARK  Name = 
REMARK  7 active torsions:
REMARK  status: ('A' for Active; 'I' for Inactive)
REMARK    1  A    between atoms: O_1  and  C_2
REMARK    2  A    between atoms: C_2  and  C_4
REMARK    3  A    between atoms: N_6  and  C_7
REMARK    4  A    between atoms: C_9  and  C_20
REMARK    5  A    between atoms: C_11  and  N_12
REMARK    6  A    between atoms: C_13  and  C_15
REMARK    7  A    between atoms: C_15  and  O_16
REMARK                            x       y       z     vdW  Elec       q    Type
REMARK                         _______ _______ _______ _____ _____    ______ ____
ROOT
ATOM      1  C   UNL     1       6.029  -2.052  23.885  0.00  0.00    +0.055 A 
ATOM      2  C   UNL     1       5.935  -2.653  25.166  0.00  0.00    +0.083 A 
ATOM      3 CL   UNL     1       5.952  -1.651  26.584  0.00  0.00    -0.080 Cl
ATOM      4  C   UNL     1       5.823  -4.060  25.303  0.00  0.00    +0.055 A 
ATOM      5  C   UNL     1       5.815  -4.842  24.146  0.00  0.00    +0.043 A 
ATOM      6  C   UNL     1       5.957  -4.261  22.889  0.00  0.00    +0.055 A 
ATOM      7  C   UNL     1       6.071  -2.882  22.760  0.00  0.00    +0.043 A 
ENDROOT
BRANCH   1   9
ATOM      8  C   UNL     1       7.206   0.090  23.392  0.00  0.00    +0.325 C 
ATOM      9  N   UNL     1       6.081  -0.640  23.732  0.00  0.00    -0.275 N 
ATOM     10  H   UNL     1       5.203  -0.121  23.781  0.00  0.00    +0.155 HD
ATOM     11  O   UNL     1       8.334  -0.306  23.116  0.00  0.00    -0.263 OA
BRANCH   8  12
ATOM     12  C   UNL     1       6.995   1.603  23.296  0.00  0.00    +0.393 C 
ATOM     13  O   UNL     1       7.738   2.411  23.819  0.00  0.00    -0.240 OA
BRANCH  12  14
ATOM     14  O   UNL     1       5.891   1.882  22.569  0.00  0.00    -0.474 OA
ATOM     15  H   UNL     1       5.822   1.232  21.827  0.00  0.00    +0.296 HD
ENDBRANCH  12  14
ENDBRANCH   8  12
ENDBRANCH   1   9
BRANCH   4  16
ATOM     16  N   UNL     1       5.681  -4.669  26.578  0.00  0.00    -0.275 N 
ATOM     17  H   UNL     1       4.853  -4.436  27.128  0.00  0.00    +0.155 HD
ATOM     18  C   UNL     1       6.583  -5.541  27.167  0.00  0.00    +0.325 C 
ATOM     19  O   UNL     1       7.704  -5.866  26.792  0.00  0.00    -0.263 OA
BRANCH  18  20
ATOM     20  C   UNL     1       6.112  -6.168  28.485  0.00  0.00    +0.393 C 
ATOM     21  O   UNL     1       5.926  -7.361  28.618  0.00  0.00    -0.240 OA
BRANCH  20  22
ATOM     22  O   UNL     1       5.962  -5.221  29.432  0.00  0.00    -0.474 OA
ATOM     23  H   UNL     1       5.308  -4.550  29.119  0.00  0.00    +0.296 HD
ENDBRANCH  20  22
ENDBRANCH  18  20
ENDBRANCH   4  16
BRANCH   6  24
ATOM     24  C   UNL     1       5.965  -5.085  21.724  0.00  0.00    +0.099 C 
ATOM     25  N   UNL     1       5.972  -5.753  20.775  0.00  0.00    -0.191 NA
ENDBRANCH   6  24
TORSDOF 7
ENDMDL
MODEL 9
REMARK VINA RESULT:      -5.4      5.228      8.516
REMARK  Name = 
REMARK  7 active torsions:
REMARK  status: ('A' for Active; 'I' for Inactive)
REMARK    1  A    between atoms: O_1  and  C_2
REMARK    2  A    between atoms: C_2  and  C_4
REMARK    3  A    between atoms: N_6  and  C_7
REMARK    4  A    between atoms: C_9  and  C_20
REMARK    5  A    between atoms: C_11  and  N_12
REMARK    6  A    between atoms: C_13  and  C_15
REMARK    7  A    between atoms: C_15  and  O_16
REMARK                            x       y       z     vdW  Elec       q    Type
REMARK                         _______ _______ _______ _____ _____    ______ ____
ROOT
ATOM      1  C   UNL     1       8.779   4.092  24.028  0.00  0.00    +0.055 A 
ATOM      2  C   UNL     1       8.734   2.712  23.704  0.00  0.00    +0.083 A 
ATOM      3 CL   UNL     1       7.243   1.839  23.879  0.00  0.00    -0.080 Cl
ATOM      4  C   UNL     1       9.890   2.036  23.235  0.00  0.00    +0.055 A 
ATOM      5  C   UNL     1      11.077   2.762  23.108  0.00  0.00    +0.043 A 
ATOM      6  C   UNL     1      11.138   4.104  23.470  0.00  0.00    +0.055 A 
ATOM      7  C   UNL     1      10.003   4.760  23.933  0.00  0.00    +0.043 A 
ENDROOT
BRANCH   1   9
ATOM      8  C   UNL     1       7.276   5.092  25.748  0.00  0.00    +0.325 C 
ATOM      9  N   UNL     1       7.614   4.793  24.439  0.00  0.00    -0.275 N 
ATOM     10  H   UNL     1       7.017   5.197  23.716  0.00  0.00    +0.155 HD
ATOM     11  O   UNL     1       7.901   4.870  26.781  0.00  0.00    -0.263 OA
BRANCH   8  12
ATOM     12  C   UNL     1       5.961   5.854  25.923  0.00  0.00    +0.393 C 
ATOM     13  O   UNL     1       5.219   6.117  24.997  0.00  0.00    -0.240 OA
BRANCH  12  14
ATOM     14  O   UNL     1       5.769   6.174  27.221  0.00  0.00    -0.474 OA
ATOM     15  H   UNL     1       4.908   5.792  27.523  0.00  0.00    +0.296 HD
ENDBRANCH  12  14
ENDBRANCH   8  12
ENDBRANCH   1   9
BRANCH   4  16
ATOM     16  N   UNL     1       9.846   0.667  22.864  0.00  0.00    -0.275 N 
ATOM     17  H   UNL     1       9.585   0.442  21.903  0.00  0.00    +0.155 HD
ATOM     18  C   UNL     1      10.101  -0.410  23.698  0.00  0.00    +0.325 C 
ATOM     19  O   UNL     1      10.288  -0.424  24.910  0.00  0.00    -0.263 OA
BRANCH  18  20
ATOM     20  C   UNL     1      10.129  -1.777  23.004  0.00  0.00    +0.393 C 
ATOM     21  O   UNL     1      10.171  -2.826  23.615  0.00  0.00    -0.240 OA
BRANCH  20  22
ATOM     22  O   UNL     1      10.087  -1.628  21.665  0.00  0.00    -0.474 OA
ATOM     23  H   UNL     1      10.535  -2.400  21.238  0.00  0.00    +0.296 HD
ENDBRANCH  20  22
ENDBRANCH  18  20
ENDBRANCH   4  16
BRANCH   6  24
ATOM     24  C   UNL     1      12.368   4.817  23.348  0.00  0.00    +0.099 C 
ATOM     25  N   UNL     1      13.370   5.395  23.247  0.00  0.00    -0.191 NA
ENDBRANCH   6  24
TORSDOF 7
ENDMDL
