MODEL 1
REMARK VINA RESULT:      -4.9      0.000      0.000
REMARK  Name = 
REMARK  3 active torsions:
REMARK  status: ('A' for Active; 'I' for Inactive)
REMARK    1  A    between atoms: C_5  and  O_7
REMARK    2  A    between atoms: O_7  and  N_8
REMARK    3  A    between atoms: C_15  and  O_17
REMARK                            x       y       z     vdW  Elec       q    Type
REMARK                         _______ _______ _______ _____ _____    ______ ____
ROOT
ATOM      1  C   UNL     1       7.456  -5.031  25.245  0.00  0.00    +0.182 C 
ATOM      2  C   UNL     1       8.281  -4.880  26.510  0.00  0.00    +0.171 C 
ATOM      3  C   UNL     1       9.693  -5.168  26.017  0.00  0.00    +0.194 C 
ATOM      4  O   UNL     1       9.744  -4.889  24.603  0.00  0.00    -0.367 OA
ATOM      5  C   UNL     1       8.414  -4.603  24.161  0.00  0.00    +0.199 C 
ATOM      6  C   UNL     1       8.146  -3.111  23.981  0.00  0.00    +0.314 C 
ATOM      7  C   UNL     1       6.721  -2.946  24.502  0.00  0.00    +0.215 C 
ATOM      8  O   UNL     1       6.338  -4.141  25.202  0.00  0.00    -0.367 OA
ENDROOT
BRANCH   2   9
ATOM      9  O   UNL     1       7.869  -5.791  27.519  0.00  0.00    -0.387 OA
ATOM     10  H   UNL     1       8.668  -6.160  27.931  0.00  0.00    +0.210 HD
ENDBRANCH   2   9
BRANCH   6  11
ATOM     11  O   UNL     1       9.056  -2.353  24.785  0.00  0.00    -0.208 OA
BRANCH  11  12
ATOM     12  N   UNL     1       9.917  -1.526  24.029  0.00  0.00    +0.285 N 
ATOM     13  O   UNL     1      10.232  -0.497  24.624  0.00  0.00    +0.093 OA
ATOM     14  O   UNL     1      10.203  -1.900  22.891  0.00  0.00    -0.534 OA
ENDBRANCH  11  12
ENDBRANCH   6  11
TORSDOF 3
ENDMDL
MODEL 2
REMARK VINA RESULT:      -4.8      2.462      3.606
REMARK  Name = 
REMARK  3 active torsions:
REMARK  status: ('A' for Active; 'I' for Inactive)
REMARK    1  A    between atoms: C_5  and  O_7
REMARK    2  A    between atoms: O_7  and  N_8
REMARK    3  A    between atoms: C_15  and  O_17
REMARK                            x       y       z     vdW  Elec       q    Type
REMARK                         _______ _______ _______ _____ _____    ______ ____
ROOT
ATOM      1  C   UNL     1       9.075  -3.372  24.919  0.00  0.00    +0.182 C 
ATOM      2  C   UNL     1       9.182  -4.886  24.897  0.00  0.00    +0.171 C 
ATOM      3  C   UNL     1       7.821  -5.318  25.425  0.00  0.00    +0.194 C 
ATOM      4  O   UNL     1       6.879  -4.256  25.175  0.00  0.00    -0.367 OA
ATOM      5  C   UNL     1       7.607  -3.131  24.671  0.00  0.00    +0.199 C 
ATOM      6  C   UNL     1       7.495  -2.969  23.157  0.00  0.00    +0.314 C 
ATOM      7  C   UNL     1       8.901  -2.539  22.747  0.00  0.00    +0.215 C 
ATOM      8  O   UNL     1       9.796  -2.750  23.851  0.00  0.00    -0.367 OA
ENDROOT
BRANCH   2   9
ATOM      9  O   UNL     1      10.247  -5.351  25.713  0.00  0.00    -0.387 OA
ATOM     10  H   UNL     1      10.993  -5.573  25.131  0.00  0.00    +0.210 HD
ENDBRANCH   2   9
BRANCH   6  11
ATOM     11  O   UNL     1       7.169  -4.226  22.556  0.00  0.00    -0.208 OA
BRANCH  11  12
ATOM     12  N   UNL     1       6.060  -4.159  21.683  0.00  0.00    +0.285 N 
ATOM     13  O   UNL     1       5.286  -3.246  21.967  0.00  0.00    +0.093 OA
ATOM     14  O   UNL     1       5.982  -5.017  20.803  0.00  0.00    -0.534 OA
ENDBRANCH  11  12
ENDBRANCH   6  11
TORSDOF 3
ENDMDL
MODEL 3
REMARK VINA RESULT:      -4.8      4.460      6.055
REMARK  Name = 
REMARK  3 active torsions:
REMARK  status: ('A' for Active; 'I' for Inactive)
REMARK    1  A    between atoms: C_5  and  O_7
REMARK    2  A    between atoms: O_7  and  N_8
REMARK    3  A    between atoms: C_15  and  O_17
REMARK                            x       y       z     vdW  Elec       q    Type
REMARK                         _______ _______ _______ _____ _____    ______ ____
ROOT
ATOM      1  C   UNL     1       9.339  -0.419  23.360  0.00  0.00    +0.182 C 
ATOM      2  C   UNL     1       9.905  -0.355  21.953  0.00  0.00    +0.171 C 
ATOM      3  C   UNL     1       8.998   0.668  21.282  0.00  0.00    +0.194 C 
ATOM      4  O   UNL     1       8.434   1.514  22.304  0.00  0.00    -0.367 OA
ATOM      5  C   UNL     1       8.807   0.977  23.576  0.00  0.00    +0.199 C 
ATOM      6  C   UNL     1       9.962   1.729  24.234  0.00  0.00    +0.314 C 
ATOM      7  C   UNL     1      10.790   0.613  24.865  0.00  0.00    +0.215 C 
ATOM      8  O   UNL     1      10.344  -0.651  24.351  0.00  0.00    -0.367 OA
ENDROOT
BRANCH   2   9
ATOM      9  O   UNL     1       9.857  -1.619  21.308  0.00  0.00    -0.387 OA
ATOM     10  H   UNL     1      10.352  -2.251  21.856  0.00  0.00    +0.210 HD
ENDBRANCH   2   9
BRANCH   6  11
ATOM     11  O   UNL     1      10.729   2.409  23.236  0.00  0.00    -0.208 OA
BRANCH  11  12
ATOM     12  N   UNL     1      10.932   3.778  23.522  0.00  0.00    +0.285 N 
ATOM     13  O   UNL     1       9.900   4.348  23.871  0.00  0.00    +0.093 OA
ATOM     14  O   UNL     1      12.065   4.229  23.350  0.00  0.00    -0.534 OA
ENDBRANCH  11  12
ENDBRANCH   6  11
TORSDOF 3
ENDMDL
MODEL 4
REMARK VINA RESULT:      -4.7      3.265      5.442
REMARK  Name = 
REMARK  3 active torsions:
REMARK  status: ('A' for Active; 'I' for Inactive)
REMARK    1  A    between atoms: C_5  and  O_7
REMARK    2  A    between atoms: O_7  and  N_8
REMARK    3  A    between atoms: C_15  and  O_17
REMARK                            x       y       z     vdW  Elec       q    Type
REMARK                         _______ _______ _______ _____ _____    ______ ____
ROOT
ATOM      1  C   UNL     1       8.363   1.170  23.076  0.00  0.00    +0.182 C 
ATOM      2  C   UNL     1       9.755   1.378  22.506  0.00  0.00    +0.171 C 
ATOM      3  C   UNL     1      10.527   1.899  23.711  0.00  0.00    +0.194 C 
ATOM      4  O   UNL     1       9.859   1.449  24.907  0.00  0.00    -0.367 OA
ATOM      5  C   UNL     1       8.635   0.819  24.518  0.00  0.00    +0.199 C 
ATOM      6  C   UNL     1       8.709  -0.706  24.534  0.00  0.00    +0.314 C 
ATOM      7  C   UNL     1       7.910  -1.107  23.298  0.00  0.00    +0.215 C 
ATOM      8  O   UNL     1       7.684   0.057  22.487  0.00  0.00    -0.367 OA
ENDROOT
BRANCH   2   9
ATOM      9  O   UNL     1       9.749   2.304  21.430  0.00  0.00    -0.387 OA
ATOM     10  H   UNL     1       8.925   2.176  20.931  0.00  0.00    +0.210 HD
ENDBRANCH   2   9
BRANCH   6  11
ATOM     11  O   UNL     1      10.070  -1.128  24.401  0.00  0.00    -0.208 OA
BRANCH  11  12
ATOM     12  N   UNL     1      10.234  -2.219  23.518  0.00  0.00    +0.285 N 
ATOM     13  O   UNL     1       9.999  -3.302  24.052  0.00  0.00    +0.093 OA
ATOM     14  O   UNL     1      10.622  -1.968  22.377  0.00  0.00    -0.534 OA
ENDBRANCH  11  12
ENDBRANCH   6  11
TORSDOF 3
ENDMDL
MODEL 5
REMARK VINA RESULT:      -4.7      2.141      4.273
REMARK  Name = 
REMARK  3 active torsions:
REMARK  status: ('A' for Active; 'I' for Inactive)
REMARK    1  A    between atoms: C_5  and  O_7
REMARK    2  A    between atoms: O_7  and  N_8
REMARK    3  A    between atoms: C_15  and  O_17
REMARK                            x       y       z     vdW  Elec       q    Type
REMARK                         _______ _______ _______ _____ _____    ______ ____
ROOT
ATOM      1  C   UNL     1       7.847  -1.650  22.661  0.00  0.00    +0.182 C 
ATOM      2  C   UNL     1       9.249  -1.800  22.101  0.00  0.00    +0.171 C 
ATOM      3  C   UNL     1      10.120  -1.494  23.313  0.00  0.00    +0.194 C 
ATOM      4  O   UNL     1       9.352  -1.763  24.502  0.00  0.00    -0.367 OA
ATOM      5  C   UNL     1       8.011  -2.061  24.103  0.00  0.00    +0.199 C 
ATOM      6  C   UNL     1       7.695  -3.555  24.114  0.00  0.00    +0.314 C 
ATOM      7  C   UNL     1       6.829  -3.738  22.871  0.00  0.00    +0.215 C 
ATOM      8  O   UNL     1       6.911  -2.552  22.063  0.00  0.00    -0.367 OA
ENDROOT
BRANCH   2   9
ATOM      9  O   UNL     1       9.487  -0.901  21.028  0.00  0.00    -0.387 OA
ATOM     10  H   UNL     1       8.683  -0.369  20.902  0.00  0.00    +0.210 HD
ENDBRANCH   2   9
BRANCH   6  11
ATOM     11  O   UNL     1       8.905  -4.308  23.987  0.00  0.00    -0.208 OA
BRANCH  11  12
ATOM     12  N   UNL     1       9.220  -5.062  25.140  0.00  0.00    +0.285 N 
ATOM     13  O   UNL     1      10.430  -5.220  25.290  0.00  0.00    +0.093 OA
ATOM     14  O   UNL     1       8.278  -5.492  25.807  0.00  0.00    -0.534 OA
ENDBRANCH  11  12
ENDBRANCH   6  11
TORSDOF 3
ENDMDL
MODEL 6
REMARK VINA RESULT:      -4.6      3.415      4.990
REMARK  Name = 
REMARK  3 active torsions:
REMARK  status: ('A' for Active; 'I' for Inactive)
REMARK    1  A    between atoms: C_5  and  O_7
REMARK    2  A    between atoms: O_7  and  N_8
REMARK    3  A    between atoms: C_15  and  O_17
REMARK                            x       y       z     vdW  Elec       q    Type
REMARK                         _______ _______ _______ _____ _____    ______ ____
ROOT
ATOM      1  C   UNL     1       6.176  -4.089  22.041  0.00  0.00    +0.182 C 
ATOM      2  C   UNL     1       6.064  -5.519  21.544  0.00  0.00    +0.171 C 
ATOM      3  C   UNL     1       7.366  -6.138  22.034  0.00  0.00    +0.194 C 
ATOM      4  O   UNL     1       7.833  -5.376  23.165  0.00  0.00    -0.367 OA
ATOM      5  C   UNL     1       6.988  -4.231  23.305  0.00  0.00    +0.199 C 
ATOM      6  C   UNL     1       5.949  -4.379  24.413  0.00  0.00    +0.314 C 
ATOM      7  C   UNL     1       4.704  -3.730  23.814  0.00  0.00    +0.215 C 
ATOM      8  O   UNL     1       4.911  -3.529  22.407  0.00  0.00    -0.367 OA
ENDROOT
BRANCH   2   9
ATOM      9  O   UNL     1       5.939  -5.577  20.131  0.00  0.00    -0.387 OA
ATOM     10  H   UNL     1       4.992  -5.567  19.915  0.00  0.00    +0.210 HD
ENDBRANCH   2   9
BRANCH   6  11
ATOM     11  O   UNL     1       5.707  -5.765  24.671  0.00  0.00    -0.208 OA
BRANCH  11  12
ATOM     12  N   UNL     1       6.048  -6.159  25.984  0.00  0.00    +0.285 N 
ATOM     13  O   UNL     1       5.180  -6.849  26.515  0.00  0.00    +0.093 OA
ATOM     14  O   UNL     1       7.115  -5.744  26.439  0.00  0.00    -0.534 OA
ENDBRANCH  11  12
ENDBRANCH   6  11
TORSDOF 3
ENDMDL
MODEL 7
REMARK VINA RESULT:      -4.6      3.082      4.999
REMARK  Name = 
REMARK  3 active torsions:
REMARK  status: ('A' for Active; 'I' for Inactive)
REMARK    1  A    between atoms: C_5  and  O_7
REMARK    2  A    between atoms: O_7  and  N_8
REMARK    3  A    between atoms: C_15  and  O_17
REMARK                            x       y       z     vdW  Elec       q    Type
REMARK                         _______ _______ _______ _____ _____    ______ ____
ROOT
ATOM      1  C   UNL     1       7.245  -4.702  25.175  0.00  0.00    +0.182 C 
ATOM      2  C   UNL     1       8.538  -5.490  25.281  0.00  0.00    +0.171 C 
ATOM      3  C   UNL     1       9.367  -4.631  26.227  0.00  0.00    +0.194 C 
ATOM      4  O   UNL     1       8.466  -3.838  27.026  0.00  0.00    -0.367 OA
ATOM      5  C   UNL     1       7.141  -4.034  26.523  0.00  0.00    +0.199 C 
ATOM      6  C   UNL     1       6.312  -4.999  27.367  0.00  0.00    +0.314 C 
ATOM      7  C   UNL     1       5.533  -5.795  26.323  0.00  0.00    +0.215 C 
ATOM      8  O   UNL     1       6.095  -5.541  25.025  0.00  0.00    -0.367 OA
ENDROOT
BRANCH   2   9
ATOM      9  O   UNL     1       9.162  -5.651  24.016  0.00  0.00    -0.387 OA
ATOM     10  H   UNL     1      10.113  -5.785  24.168  0.00  0.00    +0.210 HD
ENDBRANCH   2   9
BRANCH   6  11
ATOM     11  O   UNL     1       7.177  -5.867  28.105  0.00  0.00    -0.208 OA
BRANCH  11  12
ATOM     12  N   UNL     1       6.550  -6.469  29.218  0.00  0.00    +0.285 N 
ATOM     13  O   UNL     1       6.465  -7.692  29.112  0.00  0.00    +0.093 OA
ATOM     14  O   UNL     1       6.140  -5.723  30.107  0.00  0.00    -0.534 OA
ENDBRANCH  11  12
ENDBRANCH   6  11
TORSDOF 3
ENDMDL
MODEL 8
REMARK VINA RESULT:      -4.6      2.962      4.685
REMARK  Name = 
REMARK  3 active torsions:
REMARK  status: ('A' for Active; 'I' for Inactive)
REMARK    1  A    between atoms: C_5  and  O_7
REMARK    2  A    between atoms: O_7  and  N_8
REMARK    3  A    between atoms: C_15  and  O_17
REMARK                            x       y       z     vdW  Elec       q    Type
REMARK                         _______ _______ _______ _____ _____    ______ ____
ROOT
ATOM      1  C   UNL     1       8.160  -4.302  24.448  0.00  0.00    +0.182 C 
ATOM      2  C   UNL     1       9.110  -5.164  25.260  0.00  0.00    +0.171 C 
ATOM      3  C   UNL     1       8.899  -4.639  26.674  0.00  0.00    +0.194 C 
ATOM      4  O   UNL     1       7.591  -4.037  26.745  0.00  0.00    -0.367 OA
ATOM      5  C   UNL     1       7.045  -4.013  25.423  0.00  0.00    +0.199 C 
ATOM      6  C   UNL     1       6.022  -5.117  25.172  0.00  0.00    +0.314 C 
ATOM      7  C   UNL     1       6.326  -5.558  23.743  0.00  0.00    +0.215 C 
ATOM      8  O   UNL     1       7.587  -5.001  23.339  0.00  0.00    -0.367 OA
ENDROOT
BRANCH   2   9
ATOM      9  O   UNL     1      10.454  -5.018  24.827  0.00  0.00    -0.387 OA
ATOM     10  H   UNL     1      10.994  -4.791  25.604  0.00  0.00    +0.210 HD
ENDBRANCH   2   9
BRANCH   6  11
ATOM     11  O   UNL     1       6.242  -6.200  26.080  0.00  0.00    -0.208 OA
BRANCH  11  12
ATOM     12  N   UNL     1       5.097  -6.544  26.832  0.00  0.00    +0.285 N 
ATOM     13  O   UNL     1       5.371  -7.159  27.861  0.00  0.00    +0.093 OA
ATOM     14  O   UNL     1       4.001  -6.237  26.363  0.00  0.00    -0.534 OA
ENDBRANCH  11  12
ENDBRANCH   6  11
TORSDOF 3
ENDMDL
MODEL 9
REMARK VINA RESULT:      -4.6      3.085      5.384
REMARK  Name = 
REMARK  3 active torsions:
REMARK  status: ('A' for Active; 'I' for Inactive)
REMARK    1  A    between atoms: C_5  and  O_7
REMARK    2  A    between atoms: O_7  and  N_8
REMARK    3  A    between atoms: C_15  and  O_17
REMARK                            x       y       z     vdW  Elec       q    Type
REMARK                         _______ _______ _______ _____ _____    ______ ____
ROOT
ATOM      1  C   UNL     1      10.425   0.546  23.202  0.00  0.00    +0.182 C 
ATOM      2  C   UNL     1       9.357   0.851  22.167  0.00  0.00    +0.171 C 
ATOM      3  C   UNL     1       9.443  -0.356  21.243  0.00  0.00    +0.194 C 
ATOM      4  O   UNL     1      10.004  -1.457  21.986  0.00  0.00    -0.367 OA
ATOM      5  C   UNL     1      10.419  -0.961  23.262  0.00  0.00    +0.199 C 
ATOM      6  C   UNL     1       9.443  -1.296  24.387  0.00  0.00    +0.314 C 
ATOM      7  C   UNL     1       9.441  -0.029  25.237  0.00  0.00    +0.215 C 
ATOM      8  O   UNL     1      10.086   1.027  24.506  0.00  0.00    -0.367 OA
ENDROOT
BRANCH   2   9
ATOM      9  O   UNL     1       9.618   2.069  21.485  0.00  0.00    -0.387 OA
ATOM     10  H   UNL     1       9.797   1.856  20.554  0.00  0.00    +0.210 HD
ENDBRANCH   2   9
BRANCH   6  11
ATOM     11  O   UNL     1       8.139  -1.529  23.845  0.00  0.00    -0.208 OA
BRANCH  11  12
ATOM     12  N   UNL     1       7.771  -2.893  23.838  0.00  0.00    +0.285 N 
ATOM     13  O   UNL     1       7.958  -3.442  24.922  0.00  0.00    +0.093 OA
ATOM     14  O   UNL     1       7.364  -3.362  22.774  0.00  0.00    -0.534 OA
ENDBRANCH  11  12
ENDBRANCH   6  11
TORSDOF 3
ENDMDL
