MODEL 1
REMARK VINA RESULT:      -5.8      0.000      0.000
REMARK  Name = 
REMARK  10 active torsions:
REMARK  status: ('A' for Active; 'I' for Inactive)
REMARK    1  A    between atoms: N_1  and  CA_2
REMARK    2  A    between atoms: CA_2  and  CB_4
REMARK    3  A    between atoms: CA_2  and  C_18
REMARK    4  A    between atoms: CB_4  and  SG_5
REMARK    5  A    between atoms: SG_5  and  C_6
REMARK    6  A    between atoms: C_10  and  CA_12
REMARK    7  A    between atoms: CA_12  and  N_14
REMARK    8  A    between atoms: CA_12  and  C_15
REMARK    9  A    between atoms: C_15  and  O_16
REMARK   10  A    between atoms: C_18  and  O_19
REMARK                            x       y       z     vdW  Elec       q    Type
REMARK                         _______ _______ _______ _____ _____    ______ ____
ROOT
ATOM      1  C   UNL     1       8.837  -2.135  22.468  0.00  0.00    +0.176 C 
ATOM      2  C   UNL     1       8.699  -0.686  22.235  0.00  0.00    +0.051 C 
ATOM      3  C   UNL     1       9.820  -0.077  22.614  0.00  0.00    +0.151 C 
ATOM      4  O   UNL     1      10.786  -0.953  23.090  0.00  0.00    -0.408 OA
ATOM      5  N   UNL     1      10.231  -2.306  22.898  0.00  0.00    -0.139 NA
ATOM      6  H   UNL     1      10.791  -2.611  22.104  0.00  0.00    +0.169 HD
ENDROOT
BRANCH   1   7
ATOM      7  SG  UNL     1       7.717  -2.694  23.785  0.00  0.00    -0.133 S 
BRANCH   7   8
ATOM      8  CB  UNL     1       8.243  -4.437  23.923  0.00  0.00    +0.101 C 
BRANCH   8   9
ATOM      9  CA  UNL     1       8.803  -4.743  25.319  0.00  0.00    +0.171 C 
BRANCH   9  10
ATOM     10  N   UNL     1       9.993  -5.657  25.299  0.00  0.00    -0.318 NA
ATOM     11  H1  UNL     1      10.149  -5.954  24.329  0.00  0.00    +0.119 HD
ATOM     12  H2  UNL     1      10.810  -5.056  25.473  0.00  0.00    +0.119 HD
ENDBRANCH   9  10
BRANCH   9  13
ATOM     13  C   UNL     1       7.693  -5.406  26.147  0.00  0.00    +0.323 C 
ATOM     14  OXT UNL     1       6.551  -5.600  25.765  0.00  0.00    -0.249 OA
BRANCH  13  15
ATOM     15  O   UNL     1       8.144  -5.764  27.377  0.00  0.00    -0.480 OA
ATOM     16  H   UNL     1       8.917  -5.172  27.563  0.00  0.00    +0.295 HD
ENDBRANCH  13  15
ENDBRANCH   9  13
ENDBRANCH   8   9
ENDBRANCH   7   8
ENDBRANCH   1   7
BRANCH   3  17
ATOM     17  CA  UNL     1      10.163   1.382  22.598  0.00  0.00    +0.229 C 
BRANCH  17  18
ATOM     18  N   UNL     1       9.385   2.149  21.579  0.00  0.00    -0.312 NA
ATOM     19  H1  UNL     1       9.560   3.146  21.746  0.00  0.00    +0.119 HD
ATOM     20  H2  UNL     1       9.824   1.975  20.671  0.00  0.00    +0.119 HD
ENDBRANCH  17  18
BRANCH  17  21
ATOM     21  C   UNL     1       9.883   2.005  23.983  0.00  0.00    +0.329 C 
ATOM     22  OXT UNL     1       9.466   3.136  24.179  0.00  0.00    -0.249 OA
BRANCH  21  23
ATOM     23  O   UNL     1      10.134   1.123  24.990  0.00  0.00    -0.479 OA
ATOM     24  H   UNL     1      10.799   1.543  25.585  0.00  0.00    +0.295 HD
ENDBRANCH  21  23
ENDBRANCH  17  21
ENDBRANCH   3  17
TORSDOF 10
ENDMDL
MODEL 2
REMARK VINA RESULT:      -5.7      1.439      1.579
REMARK  Name = 
REMARK  10 active torsions:
REMARK  status: ('A' for Active; 'I' for Inactive)
REMARK    1  A    between atoms: N_1  and  CA_2
REMARK    2  A    between atoms: CA_2  and  CB_4
REMARK    3  A    between atoms: CA_2  and  C_18
REMARK    4  A    between atoms: CB_4  and  SG_5
REMARK    5  A    between atoms: SG_5  and  C_6
REMARK    6  A    between atoms: C_10  and  CA_12
REMARK    7  A    between atoms: CA_12  and  N_14
REMARK    8  A    between atoms: CA_12  and  C_15
REMARK    9  A    between atoms: C_15  and  O_16
REMARK   10  A    between atoms: C_18  and  O_19
REMARK                            x       y       z     vdW  Elec       q    Type
REMARK                         _______ _______ _______ _____ _____    ______ ____
ROOT
ATOM      1  C   UNL     1       8.833  -2.026  22.440  0.00  0.00    +0.176 C 
ATOM      2  C   UNL     1       8.004  -0.824  22.644  0.00  0.00    +0.051 C 
ATOM      3  C   UNL     1       8.576   0.207  22.025  0.00  0.00    +0.151 C 
ATOM      4  O   UNL     1       9.748  -0.133  21.364  0.00  0.00    -0.408 OA
ATOM      5  N   UNL     1       9.883  -1.595  21.508  0.00  0.00    -0.139 NA
ATOM      6  H   UNL     1       9.633  -1.885  20.565  0.00  0.00    +0.169 HD
ENDROOT
BRANCH   1   7
ATOM      7  SG  UNL     1       9.586  -2.572  24.002  0.00  0.00    -0.133 S 
BRANCH   7   8
ATOM      8  CB  UNL     1       8.607  -4.081  24.309  0.00  0.00    +0.101 C 
BRANCH   8   9
ATOM      9  CA  UNL     1       9.005  -4.747  25.633  0.00  0.00    +0.171 C 
BRANCH   9  10
ATOM     10  N   UNL     1      10.065  -5.799  25.478  0.00  0.00    -0.318 NA
ATOM     11  H1  UNL     1      10.980  -5.336  25.517  0.00  0.00    +0.119 HD
ATOM     12  H2  UNL     1      10.058  -6.334  26.357  0.00  0.00    +0.119 HD
ENDBRANCH   9  10
BRANCH   9  13
ATOM     13  C   UNL     1       7.755  -5.400  26.239  0.00  0.00    +0.323 C 
ATOM     14  OXT UNL     1       6.679  -5.514  25.676  0.00  0.00    -0.249 OA
BRANCH  13  15
ATOM     15  O   UNL     1       7.995  -5.851  27.498  0.00  0.00    -0.480 OA
ATOM     16  H   UNL     1       7.430  -6.659  27.606  0.00  0.00    +0.295 HD
ENDBRANCH  13  15
ENDBRANCH   9  13
ENDBRANCH   8   9
ENDBRANCH   7   8
ENDBRANCH   1   7
BRANCH   3  17
ATOM     17  CA  UNL     1       8.137   1.637  21.955  0.00  0.00    +0.229 C 
BRANCH  17  18
ATOM     18  N   UNL     1       6.888   1.899  22.731  0.00  0.00    -0.312 NA
ATOM     19  H1  UNL     1       6.716   1.078  23.323  0.00  0.00    +0.119 HD
ATOM     20  H2  UNL     1       7.100   2.641  23.403  0.00  0.00    +0.119 HD
ENDBRANCH  17  18
BRANCH  17  21
ATOM     21  C   UNL     1       9.247   2.559  22.509  0.00  0.00    +0.329 C 
ATOM     22  OXT UNL     1       9.166   3.232  23.524  0.00  0.00    -0.249 OA
BRANCH  21  23
ATOM     23  O   UNL     1      10.365   2.516  21.734  0.00  0.00    -0.479 OA
ATOM     24  H   UNL     1      10.580   1.565  21.585  0.00  0.00    +0.295 HD
ENDBRANCH  21  23
ENDBRANCH  17  21
ENDBRANCH   3  17
TORSDOF 10
ENDMDL
MODEL 3
REMARK VINA RESULT:      -5.7      2.511      2.908
REMARK  Name = 
REMARK  10 active torsions:
REMARK  status: ('A' for Active; 'I' for Inactive)
REMARK    1  A    between atoms: N_1  and  CA_2
REMARK    2  A    between atoms: CA_2  and  CB_4
REMARK    3  A    between atoms: CA_2  and  C_18
REMARK    4  A    between atoms: CB_4  and  SG_5
REMARK    5  A    between atoms: SG_5  and  C_6
REMARK    6  A    between atoms: C_10  and  CA_12
REMARK    7  A    between atoms: CA_12  and  N_14
REMARK    8  A    between atoms: CA_12  and  C_15
REMARK    9  A    between atoms: C_15  and  O_16
REMARK   10  A    between atoms: C_18  and  O_19
REMARK                            x       y       z     vdW  Elec       q    Type
REMARK                         _______ _______ _______ _____ _____    ______ ____
ROOT
ATOM      1  C   UNL     1       6.860  -1.027  24.893  0.00  0.00    +0.176 C 
ATOM      2  C   UNL     1       8.305  -0.937  24.615  0.00  0.00    +0.051 C 
ATOM      3  C   UNL     1       8.481  -0.555  23.352  0.00  0.00    +0.151 C 
ATOM      4  O   UNL     1       7.289  -0.334  22.675  0.00  0.00    -0.408 OA
ATOM      5  N   UNL     1       6.220  -0.512  23.676  0.00  0.00    -0.139 NA
ATOM      6  H   UNL     1       5.956   0.461  23.822  0.00  0.00    +0.169 HD
ENDROOT
BRANCH   1   7
ATOM      7  SG  UNL     1       6.354  -2.750  25.169  0.00  0.00    -0.133 S 
BRANCH   7   8
ATOM      8  CB  UNL     1       7.731  -3.313  26.228  0.00  0.00    +0.101 C 
BRANCH   8   9
ATOM      9  CA  UNL     1       8.125  -4.762  25.910  0.00  0.00    +0.171 C 
BRANCH   9  10
ATOM     10  N   UNL     1       8.178  -5.647  27.121  0.00  0.00    -0.318 NA
ATOM     11  H1  UNL     1       7.489  -6.397  26.996  0.00  0.00    +0.119 HD
ATOM     12  H2  UNL     1       9.068  -6.159  27.055  0.00  0.00    +0.119 HD
ENDBRANCH   9  10
BRANCH   9  13
ATOM     13  C   UNL     1       9.513  -4.750  25.255  0.00  0.00    +0.323 C 
ATOM     14  OXT UNL     1       9.883  -3.955  24.407  0.00  0.00    -0.249 OA
BRANCH  13  15
ATOM     15  O   UNL     1      10.298  -5.744  25.745  0.00  0.00    -0.480 OA
ATOM     16  H   UNL     1       9.805  -6.587  25.569  0.00  0.00    +0.295 HD
ENDBRANCH  13  15
ENDBRANCH   9  13
ENDBRANCH   8   9
ENDBRANCH   7   8
ENDBRANCH   1   7
BRANCH   3  17
ATOM     17  CA  UNL     1       9.753  -0.342  22.591  0.00  0.00    +0.229 C 
BRANCH  17  18
ATOM     18  N   UNL     1       9.983  -1.381  21.542  0.00  0.00    -0.312 NA
ATOM     19  H1  UNL     1      10.110  -2.279  22.022  0.00  0.00    +0.119 HD
ATOM     20  H2  UNL     1       9.100  -1.500  21.038  0.00  0.00    +0.119 HD
ENDBRANCH  17  18
BRANCH  17  21
ATOM     21  C   UNL     1       9.732   1.039  21.900  0.00  0.00    +0.329 C 
ATOM     22  OXT UNL     1      10.393   2.009  22.237  0.00  0.00    -0.249 OA
BRANCH  21  23
ATOM     23  O   UNL     1       8.892   1.051  20.829  0.00  0.00    -0.479 OA
ATOM     24  H   UNL     1       8.905   1.965  20.458  0.00  0.00    +0.295 HD
ENDBRANCH  21  23
ENDBRANCH  17  21
ENDBRANCH   3  17
TORSDOF 10
ENDMDL
MODEL 4
REMARK VINA RESULT:      -5.6      1.961      6.657
REMARK  Name = 
REMARK  10 active torsions:
REMARK  status: ('A' for Active; 'I' for Inactive)
REMARK    1  A    between atoms: N_1  and  CA_2
REMARK    2  A    between atoms: CA_2  and  CB_4
REMARK    3  A    between atoms: CA_2  and  C_18
REMARK    4  A    between atoms: CB_4  and  SG_5
REMARK    5  A    between atoms: SG_5  and  C_6
REMARK    6  A    between atoms: C_10  and  CA_12
REMARK    7  A    between atoms: CA_12  and  N_14
REMARK    8  A    between atoms: CA_12  and  C_15
REMARK    9  A    between atoms: C_15  and  O_16
REMARK   10  A    between atoms: C_18  and  O_19
REMARK                            x       y       z     vdW  Elec       q    Type
REMARK                         _______ _______ _______ _____ _____    ______ ____
ROOT
ATOM      1  C   UNL     1       9.057  -1.281  25.097  0.00  0.00    +0.176 C 
ATOM      2  C   UNL     1       8.673  -2.582  25.676  0.00  0.00    +0.051 C 
ATOM      3  C   UNL     1       9.080  -3.555  24.864  0.00  0.00    +0.151 C 
ATOM      4  O   UNL     1       9.749  -3.088  23.742  0.00  0.00    -0.408 OA
ATOM      5  N   UNL     1       9.860  -1.628  23.918  0.00  0.00    -0.139 NA
ATOM      6  H   UNL     1      10.849  -1.557  24.154  0.00  0.00    +0.169 HD
ENDROOT
BRANCH   1   7
ATOM      7  SG  UNL     1       7.591  -0.337  24.584  0.00  0.00    -0.133 S 
BRANCH   7   8
ATOM      8  CB  UNL     1       8.374   1.262  24.184  0.00  0.00    +0.101 C 
BRANCH   8   9
ATOM      9  CA  UNL     1       8.028   1.715  22.759  0.00  0.00    +0.171 C 
BRANCH   9  10
ATOM     10  N   UNL     1       6.699   1.209  22.278  0.00  0.00    -0.318 NA
ATOM     11  H1  UNL     1       6.725   0.184  22.295  0.00  0.00    +0.119 HD
ATOM     12  H2  UNL     1       6.030   1.420  23.031  0.00  0.00    +0.119 HD
ENDBRANCH   9  10
BRANCH   9  13
ATOM     13  C   UNL     1       9.119   1.198  21.811  0.00  0.00    +0.323 C 
ATOM     14  OXT UNL     1       9.184   0.064  21.367  0.00  0.00    -0.249 OA
BRANCH  13  15
ATOM     15  O   UNL     1      10.016   2.174  21.514  0.00  0.00    -0.480 OA
ATOM     16  H   UNL     1       9.496   2.888  21.061  0.00  0.00    +0.295 HD
ENDBRANCH  13  15
ENDBRANCH   9  13
ENDBRANCH   8   9
ENDBRANCH   7   8
ENDBRANCH   1   7
BRANCH   3  17
ATOM     17  CA  UNL     1       8.911  -5.037  24.998  0.00  0.00    +0.229 C 
BRANCH  17  18
ATOM     18  N   UNL     1      10.147  -5.721  25.483  0.00  0.00    -0.312 NA
ATOM     19  H1  UNL     1      10.335  -6.505  24.849  0.00  0.00    +0.119 HD
ATOM     20  H2  UNL     1      10.930  -5.082  25.316  0.00  0.00    +0.119 HD
ENDBRANCH  17  18
BRANCH  17  21
ATOM     21  C   UNL     1       7.769  -5.352  25.989  0.00  0.00    +0.329 C 
ATOM     22  OXT UNL     1       6.576  -5.318  25.728  0.00  0.00    -0.249 OA
BRANCH  21  23
ATOM     23  O   UNL     1       8.250  -5.706  27.212  0.00  0.00    -0.479 OA
ATOM     24  H   UNL     1       8.002  -4.989  27.842  0.00  0.00    +0.295 HD
ENDBRANCH  21  23
ENDBRANCH  17  21
ENDBRANCH   3  17
TORSDOF 10
ENDMDL
MODEL 5
REMARK VINA RESULT:      -5.6      1.464      6.649
REMARK  Name = 
REMARK  10 active torsions:
REMARK  status: ('A' for Active; 'I' for Inactive)
REMARK    1  A    between atoms: N_1  and  CA_2
REMARK    2  A    between atoms: CA_2  and  CB_4
REMARK    3  A    between atoms: CA_2  and  C_18
REMARK    4  A    between atoms: CB_4  and  SG_5
REMARK    5  A    between atoms: SG_5  and  C_6
REMARK    6  A    between atoms: C_10  and  CA_12
REMARK    7  A    between atoms: CA_12  and  N_14
REMARK    8  A    between atoms: CA_12  and  C_15
REMARK    9  A    between atoms: C_15  and  O_16
REMARK   10  A    between atoms: C_18  and  O_19
REMARK                            x       y       z     vdW  Elec       q    Type
REMARK                         _______ _______ _______ _____ _____    ______ ____
ROOT
ATOM      1  C   UNL     1       8.556  -1.749  23.351  0.00  0.00    +0.176 C 
ATOM      2  C   UNL     1       8.361  -3.208  23.273  0.00  0.00    +0.051 C 
ATOM      3  C   UNL     1       8.655  -3.748  24.454  0.00  0.00    +0.151 C 
ATOM      4  O   UNL     1       9.033  -2.811  25.406  0.00  0.00    -0.408 OA
ATOM      5  N   UNL     1       8.863  -1.494  24.764  0.00  0.00    -0.139 NA
ATOM      6  H   UNL     1       8.020  -1.178  25.239  0.00  0.00    +0.169 HD
ENDROOT
BRANCH   1   7
ATOM      7  SG  UNL     1       9.953  -1.221  22.315  0.00  0.00    -0.133 S 
BRANCH   7   8
ATOM      8  CB  UNL     1      10.475   0.269  23.232  0.00  0.00    +0.101 C 
BRANCH   8   9
ATOM      9  CA  UNL     1       9.602   1.480  22.878  0.00  0.00    +0.171 C 
BRANCH   9  10
ATOM     10  N   UNL     1      10.183   2.338  21.792  0.00  0.00    -0.318 NA
ATOM     11  H1  UNL     1      11.044   2.765  22.150  0.00  0.00    +0.119 HD
ATOM     12  H2  UNL     1      10.545   1.685  21.084  0.00  0.00    +0.119 HD
ENDBRANCH   9  10
BRANCH   9  13
ATOM     13  C   UNL     1       9.434   2.338  24.139  0.00  0.00    +0.323 C 
ATOM     14  OXT UNL     1       9.546   3.552  24.184  0.00  0.00    -0.249 OA
BRANCH  13  15
ATOM     15  O   UNL     1       9.132   1.572  25.220  0.00  0.00    -0.480 OA
ATOM     16  H   UNL     1       9.279   2.154  26.010  0.00  0.00    +0.295 HD
ENDBRANCH  13  15
ENDBRANCH   9  13
ENDBRANCH   8   9
ENDBRANCH   7   8
ENDBRANCH   1   7
BRANCH   3  17
ATOM     17  CA  UNL     1       8.636  -5.186  24.873  0.00  0.00    +0.229 C 
BRANCH  17  18
ATOM     18  N   UNL     1       9.994  -5.712  25.204  0.00  0.00    -0.312 NA
ATOM     19  H1  UNL     1      10.307  -6.279  24.408  0.00  0.00    +0.119 HD
ATOM     20  H2  UNL     1      10.636  -4.915  25.199  0.00  0.00    +0.119 HD
ENDBRANCH  17  18
BRANCH  17  21
ATOM     21  C   UNL     1       7.738  -5.362  26.118  0.00  0.00    +0.329 C 
ATOM     22  OXT UNL     1       6.563  -5.694  26.101  0.00  0.00    -0.249 OA
BRANCH  21  23
ATOM     23  O   UNL     1       8.425  -5.125  27.269  0.00  0.00    -0.479 OA
ATOM     24  H   UNL     1       8.251  -4.189  27.525  0.00  0.00    +0.295 HD
ENDBRANCH  21  23
ENDBRANCH  17  21
ENDBRANCH   3  17
TORSDOF 10
ENDMDL
MODEL 6
REMARK VINA RESULT:      -5.5      2.070      2.660
REMARK  Name = 
REMARK  10 active torsions:
REMARK  status: ('A' for Active; 'I' for Inactive)
REMARK    1  A    between atoms: N_1  and  CA_2
REMARK    2  A    between atoms: CA_2  and  CB_4
REMARK    3  A    between atoms: CA_2  and  C_18
REMARK    4  A    between atoms: CB_4  and  SG_5
REMARK    5  A    between atoms: SG_5  and  C_6
REMARK    6  A    between atoms: C_10  and  CA_12
REMARK    7  A    between atoms: CA_12  and  N_14
REMARK    8  A    between atoms: CA_12  and  C_15
REMARK    9  A    between atoms: C_15  and  O_16
REMARK   10  A    between atoms: C_18  and  O_19
REMARK                            x       y       z     vdW  Elec       q    Type
REMARK                         _______ _______ _______ _____ _____    ______ ____
ROOT
ATOM      1  C   UNL     1       7.423  -4.109  22.986  0.00  0.00    +0.176 C 
ATOM      2  C   UNL     1       8.048  -2.863  22.504  0.00  0.00    +0.051 C 
ATOM      3  C   UNL     1       9.203  -2.683  23.140  0.00  0.00    +0.151 C 
ATOM      4  O   UNL     1       9.499  -3.700  24.038  0.00  0.00    -0.408 OA
ATOM      5  N   UNL     1       8.428  -4.702  23.877  0.00  0.00    -0.139 NA
ATOM      6  H   UNL     1       8.941  -5.422  23.372  0.00  0.00    +0.169 HD
ENDROOT
BRANCH   1   7
ATOM      7  SG  UNL     1       5.905  -3.759  23.920  0.00  0.00    -0.133 S 
BRANCH   7   8
ATOM      8  CB  UNL     1       6.069  -4.994  25.255  0.00  0.00    +0.101 C 
BRANCH   8   9
ATOM      9  CA  UNL     1       6.571  -4.350  26.555  0.00  0.00    +0.171 C 
BRANCH   9  10
ATOM     10  N   UNL     1       7.306  -3.060  26.338  0.00  0.00    -0.318 NA
ATOM     11  H1  UNL     1       8.243  -3.156  26.746  0.00  0.00    +0.119 HD
ATOM     12  H2  UNL     1       7.513  -3.022  25.331  0.00  0.00    +0.119 HD
ENDBRANCH   9  10
BRANCH   9  13
ATOM     13  C   UNL     1       7.517  -5.340  27.248  0.00  0.00    +0.323 C 
ATOM     14  OXT UNL     1       7.206  -6.088  28.160  0.00  0.00    -0.249 OA
BRANCH  13  15
ATOM     15  O   UNL     1       8.764  -5.288  26.713  0.00  0.00    -0.480 OA
ATOM     16  H   UNL     1       9.005  -4.326  26.688  0.00  0.00    +0.295 HD
ENDBRANCH  13  15
ENDBRANCH   9  13
ENDBRANCH   8   9
ENDBRANCH   7   8
ENDBRANCH   1   7
BRANCH   3  17
ATOM     17  CA  UNL     1      10.190  -1.563  23.019  0.00  0.00    +0.229 C 
BRANCH  17  18
ATOM     18  N   UNL     1      10.006  -0.759  21.774  0.00  0.00    -0.312 NA
ATOM     19  H1  UNL     1      10.673  -1.112  21.079  0.00  0.00    +0.119 HD
ATOM     20  H2  UNL     1       9.095  -1.012  21.384  0.00  0.00    +0.119 HD
ENDBRANCH  17  18
BRANCH  17  21
ATOM     21  C   UNL     1      10.059  -0.611  24.228  0.00  0.00    +0.329 C 
ATOM     22  OXT UNL     1      10.767   0.361  24.444  0.00  0.00    -0.249 OA
BRANCH  21  23
ATOM     23  O   UNL     1       9.022  -0.966  25.036  0.00  0.00    -0.479 OA
ATOM     24  H   UNL     1       8.197  -0.624  24.618  0.00  0.00    +0.295 HD
ENDBRANCH  21  23
ENDBRANCH  17  21
ENDBRANCH   3  17
TORSDOF 10
ENDMDL
MODEL 7
REMARK VINA RESULT:      -5.5      3.075      6.440
REMARK  Name = 
REMARK  10 active torsions:
REMARK  status: ('A' for Active; 'I' for Inactive)
REMARK    1  A    between atoms: N_1  and  CA_2
REMARK    2  A    between atoms: CA_2  and  CB_4
REMARK    3  A    between atoms: CA_2  and  C_18
REMARK    4  A    between atoms: CB_4  and  SG_5
REMARK    5  A    between atoms: SG_5  and  C_6
REMARK    6  A    between atoms: C_10  and  CA_12
REMARK    7  A    between atoms: CA_12  and  N_14
REMARK    8  A    between atoms: CA_12  and  C_15
REMARK    9  A    between atoms: C_15  and  O_16
REMARK   10  A    between atoms: C_18  and  O_19
REMARK                            x       y       z     vdW  Elec       q    Type
REMARK                         _______ _______ _______ _____ _____    ______ ____
ROOT
ATOM      1  C   UNL     1       7.877  -4.852  25.355  0.00  0.00    +0.176 C 
ATOM      2  C   UNL     1       6.495  -4.996  24.862  0.00  0.00    +0.051 C 
ATOM      3  C   UNL     1       6.525  -5.316  23.570  0.00  0.00    +0.151 C 
ATOM      4  O   UNL     1       7.813  -5.441  23.067  0.00  0.00    -0.408 OA
ATOM      5  N   UNL     1       8.714  -5.267  24.222  0.00  0.00    -0.139 NA
ATOM      6  H   UNL     1       9.008  -6.233  24.358  0.00  0.00    +0.169 HD
ENDROOT
BRANCH   1   7
ATOM      7  SG  UNL     1       8.240  -3.125  25.786  0.00  0.00    -0.133 S 
BRANCH   7   8
ATOM      8  CB  UNL     1       9.481  -2.738  24.503  0.00  0.00    +0.101 C 
BRANCH   8   9
ATOM      9  CA  UNL     1       8.906  -1.802  23.432  0.00  0.00    +0.171 C 
BRANCH   9  10
ATOM     10  N   UNL     1       8.154  -2.521  22.350  0.00  0.00    -0.318 NA
ATOM     11  H1  UNL     1       7.800  -3.401  22.741  0.00  0.00    +0.119 HD
ATOM     12  H2  UNL     1       7.288  -1.984  22.209  0.00  0.00    +0.119 HD
ENDBRANCH   9  10
BRANCH   9  13
ATOM     13  C   UNL     1      10.070  -1.034  22.789  0.00  0.00    +0.323 C 
ATOM     14  OXT UNL     1      10.640  -0.077  23.287  0.00  0.00    -0.249 OA
BRANCH  13  15
ATOM     15  O   UNL     1      10.400  -1.560  21.582  0.00  0.00    -0.480 OA
ATOM     16  H   UNL     1      10.133  -0.879  20.911  0.00  0.00    +0.295 HD
ENDBRANCH  13  15
ENDBRANCH   9  13
ENDBRANCH   8   9
ENDBRANCH   7   8
ENDBRANCH   1   7
BRANCH   3  17
ATOM     17  CA  UNL     1       5.390  -5.546  22.620  0.00  0.00    +0.229 C 
BRANCH  17  18
ATOM     18  N   UNL     1       4.145  -4.823  23.018  0.00  0.00    -0.312 NA
ATOM     19  H1  UNL     1       4.046  -4.917  24.035  0.00  0.00    +0.119 HD
ATOM     20  H2  UNL     1       4.322  -3.823  22.884  0.00  0.00    +0.119 HD
ENDBRANCH  17  18
BRANCH  17  21
ATOM     21  C   UNL     1       5.785  -5.077  21.202  0.00  0.00    +0.329 C 
ATOM     22  OXT UNL     1       5.999  -5.810  20.249  0.00  0.00    -0.249 OA
BRANCH  21  23
ATOM     23  O   UNL     1       5.843  -3.719  21.121  0.00  0.00    -0.479 OA
ATOM     24  H   UNL     1       5.029  -3.367  21.554  0.00  0.00    +0.295 HD
ENDBRANCH  21  23
ENDBRANCH  17  21
ENDBRANCH   3  17
TORSDOF 10
ENDMDL
MODEL 8
REMARK VINA RESULT:      -5.5      2.714      3.300
REMARK  Name = 
REMARK  10 active torsions:
REMARK  status: ('A' for Active; 'I' for Inactive)
REMARK    1  A    between atoms: N_1  and  CA_2
REMARK    2  A    between atoms: CA_2  and  CB_4
REMARK    3  A    between atoms: CA_2  and  C_18
REMARK    4  A    between atoms: CB_4  and  SG_5
REMARK    5  A    between atoms: SG_5  and  C_6
REMARK    6  A    between atoms: C_10  and  CA_12
REMARK    7  A    between atoms: CA_12  and  N_14
REMARK    8  A    between atoms: CA_12  and  C_15
REMARK    9  A    between atoms: C_15  and  O_16
REMARK   10  A    between atoms: C_18  and  O_19
REMARK                            x       y       z     vdW  Elec       q    Type
REMARK                         _______ _______ _______ _____ _____    ______ ____
ROOT
ATOM      1  C   UNL     1       8.475  -2.177  22.476  0.00  0.00    +0.176 C 
ATOM      2  C   UNL     1       8.005  -0.930  23.107  0.00  0.00    +0.051 C 
ATOM      3  C   UNL     1       8.982  -0.028  23.065  0.00  0.00    +0.151 C 
ATOM      4  O   UNL     1      10.131  -0.492  22.440  0.00  0.00    -0.408 OA
ATOM      5  N   UNL     1       9.798  -1.839  21.938  0.00  0.00    -0.139 NA
ATOM      6  H   UNL     1       9.714  -1.636  20.943  0.00  0.00    +0.169 HD
ENDROOT
BRANCH   1   7
ATOM      7  SG  UNL     1       8.634  -3.509  23.702  0.00  0.00    -0.133 S 
BRANCH   7   8
ATOM      8  CB  UNL     1       7.092  -4.428  23.366  0.00  0.00    +0.101 C 
BRANCH   8   9
ATOM      9  CA  UNL     1       6.568  -4.144  21.951  0.00  0.00    +0.171 C 
BRANCH   9  10
ATOM     10  N   UNL     1       5.319  -3.313  21.932  0.00  0.00    -0.318 NA
ATOM     11  H1  UNL     1       5.499  -2.457  22.468  0.00  0.00    +0.119 HD
ATOM     12  H2  UNL     1       5.240  -2.951  20.972  0.00  0.00    +0.119 HD
ENDBRANCH   9  10
BRANCH   9  13
ATOM     13  C   UNL     1       6.271  -5.487  21.270  0.00  0.00    +0.323 C 
ATOM     14  OXT UNL     1       6.035  -5.636  20.083  0.00  0.00    -0.249 OA
BRANCH  13  15
ATOM     15  O   UNL     1       6.309  -6.511  22.162  0.00  0.00    -0.480 OA
ATOM     16  H   UNL     1       6.255  -6.089  23.058  0.00  0.00    +0.295 HD
ENDBRANCH  13  15
ENDBRANCH   9  13
ENDBRANCH   8   9
ENDBRANCH   7   8
ENDBRANCH   1   7
BRANCH   3  17
ATOM     17  CA  UNL     1       9.005   1.375  23.591  0.00  0.00    +0.229 C 
BRANCH  17  18
ATOM     18  N   UNL     1       9.230   1.438  25.066  0.00  0.00    -0.312 NA
ATOM     19  H1  UNL     1       9.808   0.630  25.324  0.00  0.00    +0.119 HD
ATOM     20  H2  UNL     1       9.842   2.239  25.244  0.00  0.00    +0.119 HD
ENDBRANCH  17  18
BRANCH  17  21
ATOM     21  C   UNL     1      10.128   2.180  22.900  0.00  0.00    +0.329 C 
ATOM     22  OXT UNL     1      11.037   2.760  23.473  0.00  0.00    -0.249 OA
BRANCH  21  23
ATOM     23  O   UNL     1      10.005   2.150  21.545  0.00  0.00    -0.479 OA
ATOM     24  H   UNL     1       9.086   2.435  21.329  0.00  0.00    +0.295 HD
ENDBRANCH  21  23
ENDBRANCH  17  21
ENDBRANCH   3  17
TORSDOF 10
ENDMDL
MODEL 9
REMARK VINA RESULT:      -5.4      2.706      6.838
REMARK  Name = 
REMARK  10 active torsions:
REMARK  status: ('A' for Active; 'I' for Inactive)
REMARK    1  A    between atoms: N_1  and  CA_2
REMARK    2  A    between atoms: CA_2  and  CB_4
REMARK    3  A    between atoms: CA_2  and  C_18
REMARK    4  A    between atoms: CB_4  and  SG_5
REMARK    5  A    between atoms: SG_5  and  C_6
REMARK    6  A    between atoms: C_10  and  CA_12
REMARK    7  A    between atoms: CA_12  and  N_14
REMARK    8  A    between atoms: CA_12  and  C_15
REMARK    9  A    between atoms: C_15  and  O_16
REMARK   10  A    between atoms: C_18  and  O_19
REMARK                            x       y       z     vdW  Elec       q    Type
REMARK                         _______ _______ _______ _____ _____    ______ ____
ROOT
ATOM      1  C   UNL     1       8.390  -3.626  24.480  0.00  0.00    +0.176 C 
ATOM      2  C   UNL     1       7.134  -3.396  23.742  0.00  0.00    +0.051 C 
ATOM      3  C   UNL     1       6.867  -4.465  22.995  0.00  0.00    +0.151 C 
ATOM      4  O   UNL     1       7.808  -5.477  23.131  0.00  0.00    -0.408 OA
ATOM      5  N   UNL     1       8.743  -5.019  24.176  0.00  0.00    -0.139 NA
ATOM      6  H   UNL     1       8.447  -5.615  24.946  0.00  0.00    +0.169 HD
ENDROOT
BRANCH   1   7
ATOM      7  SG  UNL     1       9.704  -2.518  23.893  0.00  0.00    -0.133 S 
BRANCH   7   8
ATOM      8  CB  UNL     1       8.718  -1.021  23.545  0.00  0.00    +0.101 C 
BRANCH   8   9
ATOM      9  CA  UNL     1       9.075  -0.420  22.179  0.00  0.00    +0.171 C 
BRANCH   9  10
ATOM     10  N   UNL     1       9.945  -1.311  21.342  0.00  0.00    -0.318 NA
ATOM     11  H1  UNL     1      10.907  -0.958  21.397  0.00  0.00    +0.119 HD
ATOM     12  H2  UNL     1      10.013  -2.199  21.858  0.00  0.00    +0.119 HD
ENDBRANCH   9  10
BRANCH   9  13
ATOM     13  C   UNL     1       9.816   0.904  22.415  0.00  0.00    +0.323 C 
ATOM     14  OXT UNL     1      10.500   1.162  23.391  0.00  0.00    -0.249 OA
BRANCH  13  15
ATOM     15  O   UNL     1       9.622   1.767  21.384  0.00  0.00    -0.480 OA
ATOM     16  H   UNL     1       9.017   1.300  20.753  0.00  0.00    +0.295 HD
ENDBRANCH  13  15
ENDBRANCH   9  13
ENDBRANCH   8   9
ENDBRANCH   7   8
ENDBRANCH   1   7
BRANCH   3  17
ATOM     17  CA  UNL     1       5.725  -4.709  22.057  0.00  0.00    +0.229 C 
BRANCH  17  18
ATOM     18  N   UNL     1       6.132  -5.460  20.831  0.00  0.00    -0.312 NA
ATOM     19  H1  UNL     1       5.484  -6.249  20.726  0.00  0.00    +0.119 HD
ATOM     20  H2  UNL     1       5.918  -4.863  20.028  0.00  0.00    +0.119 HD
ENDBRANCH  17  18
BRANCH  17  21
ATOM     21  C   UNL     1       4.619  -5.517  22.770  0.00  0.00    +0.329 C 
ATOM     22  OXT UNL     1       3.454  -5.169  22.888  0.00  0.00    -0.249 OA
BRANCH  21  23
ATOM     23  O   UNL     1       5.090  -6.704  23.241  0.00  0.00    -0.479 OA
ATOM     24  H   UNL     1       4.656  -6.864  24.112  0.00  0.00    +0.295 HD
ENDBRANCH  21  23
ENDBRANCH  17  21
ENDBRANCH   3  17
TORSDOF 10
ENDMDL
