MODEL 1
REMARK VINA RESULT:      -7.4      0.000      0.000
REMARK  Name = 
REMARK  12 active torsions:
REMARK  status: ('A' for Active; 'I' for Inactive)
REMARK    1  A    between atoms: C_1  and  C_2
REMARK    2  A    between atoms: C_2  and  C_3
REMARK    3  A    between atoms: C_2  and  C_4
REMARK    4  A    between atoms: C_5  and  O_6
REMARK    5  A    between atoms: C_9  and  C_10
REMARK    6  A    between atoms: C_10  and  C_11
REMARK    7  A    between atoms: C_12  and  C_13
REMARK    8  A    between atoms: C_15  and  O_16
REMARK    9  A    between atoms: O_16  and  C_17
REMARK   10  A    between atoms: C_17  and  C_18
REMARK   11  A    between atoms: C_18  and  O_19
REMARK   12  A    between atoms: C_22  and  C_23
REMARK                            x       y       z     vdW  Elec       q    Type
REMARK                         _______ _______ _______ _____ _____    ______ ____
ROOT
ATOM      1  C   UNL     1       8.363   0.534  23.556  0.00  0.00    -0.037 A 
ATOM      2  C   UNL     1       8.314   1.375  24.694  0.00  0.00    -0.043 A 
ATOM      3  C   UNL     1       7.426   1.103  25.880  0.00  0.00    +0.044 C 
ATOM      4  C   UNL     1       9.057   2.572  24.724  0.00  0.00    +0.049 A 
ATOM      5  C   UNL     1       9.865   2.954  23.660  0.00  0.00    +0.122 A 
ATOM      6  C   UNL     1      10.018   2.072  22.595  0.00  0.00    +0.049 A 
ATOM      7  C   UNL     1       9.283   0.864  22.525  0.00  0.00    -0.043 A 
ATOM      8  C   UNL     1       9.532   0.002  21.312  0.00  0.00    +0.044 C 
ENDROOT
BRANCH   1   9
ATOM      9  C   UNL     1       7.406  -0.658  23.440  0.00  0.00    +0.070 C 
BRANCH   9  12
ATOM     10  C   UNL     1       7.720  -4.496  23.331  0.00  0.00    -0.003 A 
ATOM     11  C   UNL     1       7.373  -3.174  22.994  0.00  0.00    +0.011 A 
ATOM     12  C   UNL     1       7.946  -2.063  23.626  0.00  0.00    -0.043 A 
ATOM     13  C   UNL     1       8.995  -2.286  24.530  0.00  0.00    +0.007 A 
ATOM     14  C   UNL     1       9.430  -3.583  24.808  0.00  0.00    +0.046 A 
ATOM     15  C   UNL     1       8.789  -4.675  24.224  0.00  0.00    +0.120 A 
BRANCH  10  17
ATOM     16  C   UNL     1       5.521  -5.692  23.546  0.00  0.00    +0.012 C 
ATOM     17  C   UNL     1       6.879  -5.664  22.825  0.00  0.00    +0.016 C 
ATOM     18  C   UNL     1       6.616  -5.665  21.311  0.00  0.00    +0.012 C 
ENDBRANCH  10  17
BRANCH  15  19
ATOM     19  O   UNL     1       9.259  -5.902  24.599  0.00  0.00    -0.506 OA
ATOM     20  H   UNL     1       8.741  -6.232  25.347  0.00  0.00    +0.292 HD
ENDBRANCH  15  19
ENDBRANCH   9  12
ENDBRANCH   1   9
BRANCH   5  21
ATOM     21  O   UNL     1      10.523   4.162  23.575  0.00  0.00    -0.481 OA
BRANCH  21  22
ATOM     22  C   UNL     1      11.893   4.055  23.157  0.00  0.00    +0.349 C 
BRANCH  22  23
ATOM     23  C   UNL     1      12.712   5.275  23.547  0.00  0.00    +0.343 C 
ATOM     24  O   UNL     1      12.258   6.260  24.113  0.00  0.00    -0.247 OA
BRANCH  23  25
ATOM     25  O   UNL     1      14.032   5.160  23.223  0.00  0.00    -0.478 OA
ATOM     26  H   UNL     1      14.497   4.638  23.913  0.00  0.00    +0.295 HD
ENDBRANCH  23  25
ENDBRANCH  22  23
ENDBRANCH  21  22
ENDBRANCH   5  21
TORSDOF 8
ENDMDL
MODEL 2
REMARK VINA RESULT:      -6.9      2.075      8.421
REMARK  Name = 
REMARK  12 active torsions:
REMARK  status: ('A' for Active; 'I' for Inactive)
REMARK    1  A    between atoms: C_1  and  C_2
REMARK    2  A    between atoms: C_2  and  C_3
REMARK    3  A    between atoms: C_2  and  C_4
REMARK    4  A    between atoms: C_5  and  O_6
REMARK    5  A    between atoms: C_9  and  C_10
REMARK    6  A    between atoms: C_10  and  C_11
REMARK    7  A    between atoms: C_12  and  C_13
REMARK    8  A    between atoms: C_15  and  O_16
REMARK    9  A    between atoms: O_16  and  C_17
REMARK   10  A    between atoms: C_17  and  C_18
REMARK   11  A    between atoms: C_18  and  O_19
REMARK   12  A    between atoms: C_22  and  C_23
REMARK                            x       y       z     vdW  Elec       q    Type
REMARK                         _______ _______ _______ _____ _____    ______ ____
ROOT
ATOM      1  C   UNL     1       9.563  -0.415  24.295  0.00  0.00    -0.037 A 
ATOM      2  C   UNL     1       8.935  -0.949  25.447  0.00  0.00    -0.043 A 
ATOM      3  C   UNL     1       9.108  -0.363  26.824  0.00  0.00    +0.044 C 
ATOM      4  C   UNL     1       8.169  -2.128  25.354  0.00  0.00    +0.049 A 
ATOM      5  C   UNL     1       7.992  -2.788  24.144  0.00  0.00    +0.122 A 
ATOM      6  C   UNL     1       8.497  -2.200  22.989  0.00  0.00    +0.049 A 
ATOM      7  C   UNL     1       9.278  -1.020  23.042  0.00  0.00    -0.043 A 
ATOM      8  C   UNL     1       9.776  -0.491  21.720  0.00  0.00    +0.044 C 
ENDROOT
BRANCH   1   9
ATOM      9  C   UNL     1      10.556   0.745  24.431  0.00  0.00    +0.070 C 
BRANCH   9  12
ATOM     10  C   UNL     1      10.589   4.516  23.637  0.00  0.00    -0.003 A 
ATOM     11  C   UNL     1      10.962   3.159  23.695  0.00  0.00    +0.011 A 
ATOM     12  C   UNL     1      10.088   2.159  24.140  0.00  0.00    -0.043 A 
ATOM     13  C   UNL     1       8.758   2.516  24.408  0.00  0.00    +0.007 A 
ATOM     14  C   UNL     1       8.334   3.837  24.262  0.00  0.00    +0.046 A 
ATOM     15  C   UNL     1       9.244   4.826  23.893  0.00  0.00    +0.120 A 
BRANCH  10  17
ATOM     16  C   UNL     1      11.920   6.342  24.735  0.00  0.00    +0.012 C 
ATOM     17  C   UNL     1      11.647   5.594  23.420  0.00  0.00    +0.016 C 
ATOM     18  C   UNL     1      12.988   5.084  22.872  0.00  0.00    +0.012 C 
ENDBRANCH  10  17
BRANCH  15  19
ATOM     19  O   UNL     1       8.739   6.095  23.825  0.00  0.00    -0.506 OA
ATOM     20  H   UNL     1       8.962   6.575  24.635  0.00  0.00    +0.292 HD
ENDBRANCH  15  19
ENDBRANCH   9  12
ENDBRANCH   1   9
BRANCH   5  21
ATOM     21  O   UNL     1       7.356  -4.002  24.004  0.00  0.00    -0.481 OA
BRANCH  21  22
ATOM     22  C   UNL     1       8.248  -5.127  23.936  0.00  0.00    +0.349 C 
BRANCH  22  23
ATOM     23  C   UNL     1       8.782  -5.523  25.303  0.00  0.00    +0.343 C 
ATOM     24  O   UNL     1       8.082  -5.732  26.285  0.00  0.00    -0.247 OA
BRANCH  23  25
ATOM     25  O   UNL     1      10.140  -5.651  25.331  0.00  0.00    -0.478 OA
ATOM     26  H   UNL     1      10.515  -5.041  26.004  0.00  0.00    +0.295 HD
ENDBRANCH  23  25
ENDBRANCH  22  23
ENDBRANCH  21  22
ENDBRANCH   5  21
TORSDOF 8
ENDMDL
MODEL 3
REMARK VINA RESULT:      -6.9      2.658      8.372
REMARK  Name = 
REMARK  12 active torsions:
REMARK  status: ('A' for Active; 'I' for Inactive)
REMARK    1  A    between atoms: C_1  and  C_2
REMARK    2  A    between atoms: C_2  and  C_3
REMARK    3  A    between atoms: C_2  and  C_4
REMARK    4  A    between atoms: C_5  and  O_6
REMARK    5  A    between atoms: C_9  and  C_10
REMARK    6  A    between atoms: C_10  and  C_11
REMARK    7  A    between atoms: C_12  and  C_13
REMARK    8  A    between atoms: C_15  and  O_16
REMARK    9  A    between atoms: O_16  and  C_17
REMARK   10  A    between atoms: C_17  and  C_18
REMARK   11  A    between atoms: C_18  and  O_19
REMARK   12  A    between atoms: C_22  and  C_23
REMARK                            x       y       z     vdW  Elec       q    Type
REMARK                         _______ _______ _______ _____ _____    ______ ____
ROOT
ATOM      1  C   UNL     1       8.391   0.203  24.531  0.00  0.00    -0.037 A 
ATOM      2  C   UNL     1       7.295  -0.686  24.419  0.00  0.00    -0.043 A 
ATOM      3  C   UNL     1       5.870  -0.271  24.678  0.00  0.00    +0.044 C 
ATOM      4  C   UNL     1       7.513  -2.048  24.130  0.00  0.00    +0.049 A 
ATOM      5  C   UNL     1       8.792  -2.554  23.932  0.00  0.00    +0.122 A 
ATOM      6  C   UNL     1       9.861  -1.664  23.913  0.00  0.00    +0.049 A 
ATOM      7  C   UNL     1       9.683  -0.290  24.206  0.00  0.00    -0.043 A 
ATOM      8  C   UNL     1      10.924   0.566  24.163  0.00  0.00    +0.044 C 
ENDROOT
BRANCH   1   9
ATOM      9  C   UNL     1       8.171   1.632  25.041  0.00  0.00    +0.070 C 
BRANCH   9  12
ATOM     10  C   UNL     1       8.773   5.039  23.345  0.00  0.00    -0.003 A 
ATOM     11  C   UNL     1       8.965   3.880  24.122  0.00  0.00    +0.011 A 
ATOM     12  C   UNL     1       8.111   2.774  24.044  0.00  0.00    -0.043 A 
ATOM     13  C   UNL     1       7.111   2.780  23.060  0.00  0.00    +0.007 A 
ATOM     14  C   UNL     1       6.960   3.875  22.208  0.00  0.00    +0.046 A 
ATOM     15  C   UNL     1       7.775   4.996  22.359  0.00  0.00    +0.120 A 
BRANCH  10  17
ATOM     16  C   UNL     1       8.839   7.107  24.771  0.00  0.00    +0.012 C 
ATOM     17  C   UNL     1       9.549   6.314  23.662  0.00  0.00    +0.016 C 
ATOM     18  C   UNL     1      11.008   6.094  24.091  0.00  0.00    +0.012 C 
ENDBRANCH  10  17
BRANCH  15  19
ATOM     19  O   UNL     1       7.514   6.032  21.506  0.00  0.00    -0.506 OA
ATOM     20  H   UNL     1       6.701   6.479  21.781  0.00  0.00    +0.292 HD
ENDBRANCH  15  19
ENDBRANCH   9  12
ENDBRANCH   1   9
BRANCH   5  21
ATOM     21  O   UNL     1       9.084  -3.890  23.763  0.00  0.00    -0.481 OA
BRANCH  21  22
ATOM     22  C   UNL     1       8.348  -4.766  24.634  0.00  0.00    +0.349 C 
BRANCH  22  23
ATOM     23  C   UNL     1       9.035  -4.954  25.977  0.00  0.00    +0.343 C 
ATOM     24  O   UNL     1       8.543  -4.647  27.054  0.00  0.00    -0.247 OA
BRANCH  23  25
ATOM     25  O   UNL     1      10.267  -5.531  25.872  0.00  0.00    -0.478 OA
ATOM     26  H   UNL     1      10.961  -4.837  25.918  0.00  0.00    +0.295 HD
ENDBRANCH  23  25
ENDBRANCH  22  23
ENDBRANCH  21  22
ENDBRANCH   5  21
TORSDOF 8
ENDMDL
MODEL 4
REMARK VINA RESULT:      -6.8      2.062      8.627
REMARK  Name = 
REMARK  12 active torsions:
REMARK  status: ('A' for Active; 'I' for Inactive)
REMARK    1  A    between atoms: C_1  and  C_2
REMARK    2  A    between atoms: C_2  and  C_3
REMARK    3  A    between atoms: C_2  and  C_4
REMARK    4  A    between atoms: C_5  and  O_6
REMARK    5  A    between atoms: C_9  and  C_10
REMARK    6  A    between atoms: C_10  and  C_11
REMARK    7  A    between atoms: C_12  and  C_13
REMARK    8  A    between atoms: C_15  and  O_16
REMARK    9  A    between atoms: O_16  and  C_17
REMARK   10  A    between atoms: C_17  and  C_18
REMARK   11  A    between atoms: C_18  and  O_19
REMARK   12  A    between atoms: C_22  and  C_23
REMARK                            x       y       z     vdW  Elec       q    Type
REMARK                         _______ _______ _______ _____ _____    ______ ____
ROOT
ATOM      1  C   UNL     1       9.431  -0.346  24.027  0.00  0.00    -0.037 A 
ATOM      2  C   UNL     1       8.830  -0.998  25.131  0.00  0.00    -0.043 A 
ATOM      3  C   UNL     1       9.061  -0.578  26.559  0.00  0.00    +0.044 C 
ATOM      4  C   UNL     1       8.034  -2.143  24.930  0.00  0.00    +0.049 A 
ATOM      5  C   UNL     1       7.801  -2.655  23.660  0.00  0.00    +0.122 A 
ATOM      6  C   UNL     1       8.282  -1.947  22.563  0.00  0.00    +0.049 A 
ATOM      7  C   UNL     1       9.091  -0.796  22.723  0.00  0.00    -0.043 A 
ATOM      8  C   UNL     1       9.558  -0.128  21.454  0.00  0.00    +0.044 C 
ENDROOT
BRANCH   1   9
ATOM      9  C   UNL     1      10.455   0.772  24.260  0.00  0.00    +0.070 C 
BRANCH   9  12
ATOM     10  C   UNL     1      10.580   4.579  23.682  0.00  0.00    -0.003 A 
ATOM     11  C   UNL     1      10.897   3.208  23.628  0.00  0.00    +0.011 A 
ATOM     12  C   UNL     1      10.024   2.217  24.095  0.00  0.00    -0.043 A 
ATOM     13  C   UNL     1       8.741   2.607  24.506  0.00  0.00    +0.007 A 
ATOM     14  C   UNL     1       8.364   3.950  24.475  0.00  0.00    +0.046 A 
ATOM     15  C   UNL     1       9.279   4.925  24.080  0.00  0.00    +0.120 A 
BRANCH  10  17
ATOM     16  C   UNL     1      11.992   6.373  24.732  0.00  0.00    +0.012 C 
ATOM     17  C   UNL     1      11.659   5.628  23.428  0.00  0.00    +0.016 C 
ATOM     18  C   UNL     1      12.970   5.079  22.843  0.00  0.00    +0.012 C 
ENDBRANCH  10  17
BRANCH  15  19
ATOM     19  O   UNL     1       8.825   6.213  24.132  0.00  0.00    -0.506 OA
ATOM     20  H   UNL     1       9.576   6.816  24.232  0.00  0.00    +0.292 HD
ENDBRANCH  15  19
ENDBRANCH   9  12
ENDBRANCH   1   9
BRANCH   5  21
ATOM     21  O   UNL     1       7.133  -3.832  23.404  0.00  0.00    -0.481 OA
BRANCH  21  22
ATOM     22  C   UNL     1       6.594  -3.923  22.075  0.00  0.00    +0.349 C 
BRANCH  22  23
ATOM     23  C   UNL     1       6.699  -5.329  21.505  0.00  0.00    +0.343 C 
ATOM     24  O   UNL     1       7.366  -6.228  22.001  0.00  0.00    -0.247 OA
BRANCH  23  25
ATOM     25  O   UNL     1       5.949  -5.509  20.381  0.00  0.00    -0.478 OA
ATOM     26  H   UNL     1       5.577  -4.647  20.091  0.00  0.00    +0.295 HD
ENDBRANCH  23  25
ENDBRANCH  22  23
ENDBRANCH  21  22
ENDBRANCH   5  21
TORSDOF 8
ENDMDL
MODEL 5
REMARK VINA RESULT:      -6.6      2.917      8.497
REMARK  Name = 
REMARK  12 active torsions:
REMARK  status: ('A' for Active; 'I' for Inactive)
REMARK    1  A    between atoms: C_1  and  C_2
REMARK    2  A    between atoms: C_2  and  C_3
REMARK    3  A    between atoms: C_2  and  C_4
REMARK    4  A    between atoms: C_5  and  O_6
REMARK    5  A    between atoms: C_9  and  C_10
REMARK    6  A    between atoms: C_10  and  C_11
REMARK    7  A    between atoms: C_12  and  C_13
REMARK    8  A    between atoms: C_15  and  O_16
REMARK    9  A    between atoms: O_16  and  C_17
REMARK   10  A    between atoms: C_17  and  C_18
REMARK   11  A    between atoms: C_18  and  O_19
REMARK   12  A    between atoms: C_22  and  C_23
REMARK                            x       y       z     vdW  Elec       q    Type
REMARK                         _______ _______ _______ _____ _____    ______ ____
ROOT
ATOM      1  C   UNL     1       9.403  -0.718  24.719  0.00  0.00    -0.037 A 
ATOM      2  C   UNL     1       8.506  -1.017  25.773  0.00  0.00    -0.043 A 
ATOM      3  C   UNL     1       8.025   0.014  26.761  0.00  0.00    +0.044 C 
ATOM      4  C   UNL     1       8.084  -2.344  25.989  0.00  0.00    +0.049 A 
ATOM      5  C   UNL     1       8.512  -3.386  25.177  0.00  0.00    +0.122 A 
ATOM      6  C   UNL     1       9.288  -3.082  24.063  0.00  0.00    +0.049 A 
ATOM      7  C   UNL     1       9.740  -1.762  23.817  0.00  0.00    -0.043 A 
ATOM      8  C   UNL     1      10.585  -1.567  22.583  0.00  0.00    +0.044 C 
ENDROOT
BRANCH   1   9
ATOM      9  C   UNL     1      10.018   0.682  24.608  0.00  0.00    +0.070 C 
BRANCH   9  12
ATOM     10  C   UNL     1       8.514   4.075  23.573  0.00  0.00    -0.003 A 
ATOM     11  C   UNL     1       9.356   3.108  24.156  0.00  0.00    +0.011 A 
ATOM     12  C   UNL     1       9.289   1.751  23.817  0.00  0.00    -0.043 A 
ATOM     13  C   UNL     1       8.443   1.375  22.763  0.00  0.00    +0.007 A 
ATOM     14  C   UNL     1       7.671   2.328  22.097  0.00  0.00    +0.046 A 
ATOM     15  C   UNL     1       7.698   3.660  22.508  0.00  0.00    +0.120 A 
BRANCH  10  17
ATOM     16  C   UNL     1       8.659   5.425  25.687  0.00  0.00    +0.012 C 
ATOM     17  C   UNL     1       8.425   5.477  24.168  0.00  0.00    +0.016 C 
ATOM     18  C   UNL     1       9.404   6.498  23.568  0.00  0.00    +0.012 C 
ENDBRANCH  10  17
BRANCH  15  19
ATOM     19  O   UNL     1       6.869   4.504  21.823  0.00  0.00    -0.506 OA
ATOM     20  H   UNL     1       7.109   4.501  20.885  0.00  0.00    +0.292 HD
ENDBRANCH  15  19
ENDBRANCH   9  12
ENDBRANCH   1   9
BRANCH   5  21
ATOM     21  O   UNL     1       8.232  -4.716  25.402  0.00  0.00    -0.481 OA
BRANCH  21  22
ATOM     22  C   UNL     1       6.845  -4.987  25.665  0.00  0.00    +0.349 C 
BRANCH  22  23
ATOM     23  C   UNL     1       6.655  -5.933  26.840  0.00  0.00    +0.343 C 
ATOM     24  O   UNL     1       5.689  -6.669  26.985  0.00  0.00    -0.247 OA
BRANCH  23  25
ATOM     25  O   UNL     1       7.693  -5.904  27.724  0.00  0.00    -0.478 OA
ATOM     26  H   UNL     1       8.031  -6.815  27.866  0.00  0.00    +0.295 HD
ENDBRANCH  23  25
ENDBRANCH  22  23
ENDBRANCH  21  22
ENDBRANCH   5  21
TORSDOF 8
ENDMDL
MODEL 6
REMARK VINA RESULT:      -6.6      1.214      2.246
REMARK  Name = 
REMARK  12 active torsions:
REMARK  status: ('A' for Active; 'I' for Inactive)
REMARK    1  A    between atoms: C_1  and  C_2
REMARK    2  A    between atoms: C_2  and  C_3
REMARK    3  A    between atoms: C_2  and  C_4
REMARK    4  A    between atoms: C_5  and  O_6
REMARK    5  A    between atoms: C_9  and  C_10
REMARK    6  A    between atoms: C_10  and  C_11
REMARK    7  A    between atoms: C_12  and  C_13
REMARK    8  A    between atoms: C_15  and  O_16
REMARK    9  A    between atoms: O_16  and  C_17
REMARK   10  A    between atoms: C_17  and  C_18
REMARK   11  A    between atoms: C_18  and  O_19
REMARK   12  A    between atoms: C_22  and  C_23
REMARK                            x       y       z     vdW  Elec       q    Type
REMARK                         _______ _______ _______ _____ _____    ______ ____
ROOT
ATOM      1  C   UNL     1       7.989   1.109  23.310  0.00  0.00    -0.037 A 
ATOM      2  C   UNL     1       9.125   1.190  22.468  0.00  0.00    -0.043 A 
ATOM      3  C   UNL     1       9.518   0.094  21.511  0.00  0.00    +0.044 C 
ATOM      4  C   UNL     1       9.996   2.294  22.556  0.00  0.00    +0.049 A 
ATOM      5  C   UNL     1       9.765   3.335  23.446  0.00  0.00    +0.122 A 
ATOM      6  C   UNL     1       8.585   3.326  24.184  0.00  0.00    +0.049 A 
ATOM      7  C   UNL     1       7.689   2.231  24.129  0.00  0.00    -0.043 A 
ATOM      8  C   UNL     1       6.452   2.339  24.986  0.00  0.00    +0.044 C 
ENDROOT
BRANCH   1   9
ATOM      9  C   UNL     1       7.159  -0.178  23.359  0.00  0.00    +0.070 C 
BRANCH   9  12
ATOM     10  C   UNL     1       7.725  -3.741  24.711  0.00  0.00    -0.003 A 
ATOM     11  C   UNL     1       7.502  -2.666  23.829  0.00  0.00    +0.011 A 
ATOM     12  C   UNL     1       7.627  -1.330  24.228  0.00  0.00    -0.043 A 
ATOM     13  C   UNL     1       8.120  -1.068  25.515  0.00  0.00    +0.007 A 
ATOM     14  C   UNL     1       8.445  -2.116  26.378  0.00  0.00    +0.046 A 
ATOM     15  C   UNL     1       8.237  -3.436  25.983  0.00  0.00    +0.120 A 
BRANCH  10  17
ATOM     16  C   UNL     1       5.881  -5.446  24.815  0.00  0.00    +0.012 C 
ATOM     17  C   UNL     1       7.308  -5.156  24.320  0.00  0.00    +0.016 C 
ATOM     18  C   UNL     1       7.360  -5.452  22.813  0.00  0.00    +0.012 C 
ENDBRANCH  10  17
BRANCH  15  19
ATOM     19  O   UNL     1       8.542  -4.385  26.918  0.00  0.00    -0.506 OA
ATOM     20  H   UNL     1       8.079  -4.185  27.744  0.00  0.00    +0.292 HD
ENDBRANCH  15  19
ENDBRANCH   9  12
ENDBRANCH   1   9
BRANCH   5  21
ATOM     21  O   UNL     1      10.633   4.381  23.665  0.00  0.00    -0.481 OA
BRANCH  21  22
ATOM     22  C   UNL     1      11.994   4.101  23.295  0.00  0.00    +0.349 C 
BRANCH  22  23
ATOM     23  C   UNL     1      12.829   5.365  23.169  0.00  0.00    +0.343 C 
ATOM     24  O   UNL     1      13.350   5.749  22.130  0.00  0.00    -0.247 OA
BRANCH  23  25
ATOM     25  O   UNL     1      12.927   6.062  24.338  0.00  0.00    -0.478 OA
ATOM     26  H   UNL     1      12.105   5.943  24.863  0.00  0.00    +0.295 HD
ENDBRANCH  23  25
ENDBRANCH  22  23
ENDBRANCH  21  22
ENDBRANCH   5  21
TORSDOF 8
ENDMDL
MODEL 7
REMARK VINA RESULT:      -6.5      2.328      8.564
REMARK  Name = 
REMARK  12 active torsions:
REMARK  status: ('A' for Active; 'I' for Inactive)
REMARK    1  A    between atoms: C_1  and  C_2
REMARK    2  A    between atoms: C_2  and  C_3
REMARK    3  A    between atoms: C_2  and  C_4
REMARK    4  A    between atoms: C_5  and  O_6
REMARK    5  A    between atoms: C_9  and  C_10
REMARK    6  A    between atoms: C_10  and  C_11
REMARK    7  A    between atoms: C_12  and  C_13
REMARK    8  A    between atoms: C_15  and  O_16
REMARK    9  A    between atoms: O_16  and  C_17
REMARK   10  A    between atoms: C_17  and  C_18
REMARK   11  A    between atoms: C_18  and  O_19
REMARK   12  A    between atoms: C_22  and  C_23
REMARK                            x       y       z     vdW  Elec       q    Type
REMARK                         _______ _______ _______ _____ _____    ______ ____
ROOT
ATOM      1  C   UNL     1       9.515  -0.804  24.620  0.00  0.00    -0.037 A 
ATOM      2  C   UNL     1       9.556  -1.529  23.405  0.00  0.00    -0.043 A 
ATOM      3  C   UNL     1      10.372  -1.094  22.215  0.00  0.00    +0.044 C 
ATOM      4  C   UNL     1       8.749  -2.671  23.233  0.00  0.00    +0.049 A 
ATOM      5  C   UNL     1       7.911  -3.129  24.242  0.00  0.00    +0.122 A 
ATOM      6  C   UNL     1       7.962  -2.500  25.482  0.00  0.00    +0.049 A 
ATOM      7  C   UNL     1       8.754  -1.344  25.691  0.00  0.00    -0.043 A 
ATOM      8  C   UNL     1       8.711  -0.750  27.077  0.00  0.00    +0.044 C 
ENDROOT
BRANCH   1   9
ATOM      9  C   UNL     1      10.234   0.545  24.734  0.00  0.00    +0.070 C 
BRANCH   9  12
ATOM     10  C   UNL     1       9.629   4.194  23.654  0.00  0.00    -0.003 A 
ATOM     11  C   UNL     1      10.275   2.982  23.966  0.00  0.00    +0.011 A 
ATOM     12  C   UNL     1       9.573   1.787  24.167  0.00  0.00    -0.043 A 
ATOM     13  C   UNL     1       8.193   1.782  23.916  0.00  0.00    +0.007 A 
ATOM     14  C   UNL     1       7.541   2.946  23.508  0.00  0.00    +0.046 A 
ATOM     15  C   UNL     1       8.251   4.140  23.391  0.00  0.00    +0.120 A 
BRANCH  10  17
ATOM     16  C   UNL     1      10.088   6.236  25.044  0.00  0.00    +0.012 C 
ATOM     17  C   UNL     1      10.394   5.512  23.722  0.00  0.00    +0.016 C 
ATOM     18  C   UNL     1      11.919   5.383  23.588  0.00  0.00    +0.012 C 
ENDBRANCH  10  17
BRANCH  15  19
ATOM     19  O   UNL     1       7.510   5.232  23.032  0.00  0.00    -0.506 OA
ATOM     20  H   UNL     1       7.268   5.733  23.824  0.00  0.00    +0.292 HD
ENDBRANCH  15  19
ENDBRANCH   9  12
ENDBRANCH   1   9
BRANCH   5  21
ATOM     21  O   UNL     1       7.014  -4.165  24.101  0.00  0.00    -0.481 OA
BRANCH  21  22
ATOM     22  C   UNL     1       7.119  -4.865  22.850  0.00  0.00    +0.349 C 
BRANCH  22  23
ATOM     23  C   UNL     1       5.887  -4.676  21.979  0.00  0.00    +0.343 C 
ATOM     24  O   UNL     1       4.906  -4.019  22.301  0.00  0.00    -0.247 OA
BRANCH  23  25
ATOM     25  O   UNL     1       5.987  -5.297  20.768  0.00  0.00    -0.478 OA
ATOM     26  H   UNL     1       6.925  -5.306  20.478  0.00  0.00    +0.295 HD
ENDBRANCH  23  25
ENDBRANCH  22  23
ENDBRANCH  21  22
ENDBRANCH   5  21
TORSDOF 8
ENDMDL
MODEL 8
REMARK VINA RESULT:      -6.5      2.163      8.024
REMARK  Name = 
REMARK  12 active torsions:
REMARK  status: ('A' for Active; 'I' for Inactive)
REMARK    1  A    between atoms: C_1  and  C_2
REMARK    2  A    between atoms: C_2  and  C_3
REMARK    3  A    between atoms: C_2  and  C_4
REMARK    4  A    between atoms: C_5  and  O_6
REMARK    5  A    between atoms: C_9  and  C_10
REMARK    6  A    between atoms: C_10  and  C_11
REMARK    7  A    between atoms: C_12  and  C_13
REMARK    8  A    between atoms: C_15  and  O_16
REMARK    9  A    between atoms: O_16  and  C_17
REMARK   10  A    between atoms: C_17  and  C_18
REMARK   11  A    between atoms: C_18  and  O_19
REMARK   12  A    between atoms: C_22  and  C_23
REMARK                            x       y       z     vdW  Elec       q    Type
REMARK                         _______ _______ _______ _____ _____    ______ ____
ROOT
ATOM      1  C   UNL     1       9.337  -1.006  24.244  0.00  0.00    -0.037 A 
ATOM      2  C   UNL     1       8.574  -1.593  25.283  0.00  0.00    -0.043 A 
ATOM      3  C   UNL     1       8.695  -1.178  26.727  0.00  0.00    +0.044 C 
ATOM      4  C   UNL     1       7.709  -2.670  25.007  0.00  0.00    +0.049 A 
ATOM      5  C   UNL     1       7.563  -3.175  23.721  0.00  0.00    +0.122 A 
ATOM      6  C   UNL     1       8.210  -2.523  22.676  0.00  0.00    +0.049 A 
ATOM      7  C   UNL     1       9.093  -1.442  22.914  0.00  0.00    -0.043 A 
ATOM      8  C   UNL     1       9.740  -0.830  21.697  0.00  0.00    +0.044 C 
ENDROOT
BRANCH   1   9
ATOM      9  C   UNL     1      10.423   0.024  24.576  0.00  0.00    +0.070 C 
BRANCH   9  12
ATOM     10  C   UNL     1       8.552   3.376  24.240  0.00  0.00    -0.003 A 
ATOM     11  C   UNL     1       8.898   2.073  24.649  0.00  0.00    +0.011 A 
ATOM     12  C   UNL     1      10.139   1.497  24.351  0.00  0.00    -0.043 A 
ATOM     13  C   UNL     1      11.111   2.303  23.739  0.00  0.00    +0.007 A 
ATOM     14  C   UNL     1      10.830   3.630  23.413  0.00  0.00    +0.046 A 
ATOM     15  C   UNL     1       9.561   4.155  23.650  0.00  0.00    +0.120 A 
BRANCH  10  17
ATOM     16  C   UNL     1       6.468   3.906  22.939  0.00  0.00    +0.012 C 
ATOM     17  C   UNL     1       7.107   3.854  24.338  0.00  0.00    +0.016 C 
ATOM     18  C   UNL     1       6.203   3.004  25.244  0.00  0.00    +0.012 C 
ENDBRANCH  10  17
BRANCH  15  19
ATOM     19  O   UNL     1       9.374   5.449  23.251  0.00  0.00    -0.506 OA
ATOM     20  H   UNL     1       9.955   5.642  22.501  0.00  0.00    +0.292 HD
ENDBRANCH  15  19
ENDBRANCH   9  12
ENDBRANCH   1   9
BRANCH   5  21
ATOM     21  O   UNL     1       6.828  -4.296  23.402  0.00  0.00    -0.481 OA
BRANCH  21  22
ATOM     22  C   UNL     1       6.152  -4.213  22.136  0.00  0.00    +0.349 C 
BRANCH  22  23
ATOM     23  C   UNL     1       6.368  -5.454  21.286  0.00  0.00    +0.343 C 
ATOM     24  O   UNL     1       5.967  -5.583  20.136  0.00  0.00    -0.247 OA
BRANCH  23  25
ATOM     25  O   UNL     1       7.085  -6.423  21.924  0.00  0.00    -0.478 OA
ATOM     26  H   UNL     1       7.850  -6.016  22.387  0.00  0.00    +0.295 HD
ENDBRANCH  23  25
ENDBRANCH  22  23
ENDBRANCH  21  22
ENDBRANCH   5  21
TORSDOF 8
ENDMDL
MODEL 9
REMARK VINA RESULT:      -6.4      1.875      2.296
REMARK  Name = 
REMARK  12 active torsions:
REMARK  status: ('A' for Active; 'I' for Inactive)
REMARK    1  A    between atoms: C_1  and  C_2
REMARK    2  A    between atoms: C_2  and  C_3
REMARK    3  A    between atoms: C_2  and  C_4
REMARK    4  A    between atoms: C_5  and  O_6
REMARK    5  A    between atoms: C_9  and  C_10
REMARK    6  A    between atoms: C_10  and  C_11
REMARK    7  A    between atoms: C_12  and  C_13
REMARK    8  A    between atoms: C_15  and  O_16
REMARK    9  A    between atoms: O_16  and  C_17
REMARK   10  A    between atoms: C_17  and  C_18
REMARK   11  A    between atoms: C_18  and  O_19
REMARK   12  A    between atoms: C_22  and  C_23
REMARK                            x       y       z     vdW  Elec       q    Type
REMARK                         _______ _______ _______ _____ _____    ______ ____
ROOT
ATOM      1  C   UNL     1       8.370  -0.700  23.882  0.00  0.00    -0.037 A 
ATOM      2  C   UNL     1       7.775   0.275  24.720  0.00  0.00    -0.043 A 
ATOM      3  C   UNL     1       6.459   0.063  25.422  0.00  0.00    +0.044 C 
ATOM      4  C   UNL     1       8.372   1.543  24.867  0.00  0.00    +0.049 A 
ATOM      5  C   UNL     1       9.557   1.870  24.218  0.00  0.00    +0.122 A 
ATOM      6  C   UNL     1      10.213   0.877  23.498  0.00  0.00    +0.049 A 
ATOM      7  C   UNL     1       9.641  -0.406  23.321  0.00  0.00    -0.043 A 
ATOM      8  C   UNL     1      10.448  -1.388  22.508  0.00  0.00    +0.044 C 
ENDROOT
BRANCH   1   9
ATOM      9  C   UNL     1       7.620  -1.998  23.563  0.00  0.00    +0.070 C 
BRANCH   9  12
ATOM     10  C   UNL     1       6.478  -4.787  25.964  0.00  0.00    -0.003 A 
ATOM     11  C   UNL     1       6.512  -3.884  24.884  0.00  0.00    +0.011 A 
ATOM     12  C   UNL     1       7.652  -3.137  24.565  0.00  0.00    -0.043 A 
ATOM     13  C   UNL     1       8.835  -3.403  25.271  0.00  0.00    +0.007 A 
ATOM     14  C   UNL     1       8.857  -4.365  26.282  0.00  0.00    +0.046 A 
ATOM     15  C   UNL     1       7.688  -5.039  26.631  0.00  0.00    +0.120 A 
BRANCH  10  17
ATOM     16  C   UNL     1       3.999  -4.399  26.103  0.00  0.00    +0.012 C 
ATOM     17  C   UNL     1       5.149  -5.362  26.445  0.00  0.00    +0.016 C 
ATOM     18  C   UNL     1       4.799  -6.746  25.876  0.00  0.00    +0.012 C 
ENDBRANCH  10  17
BRANCH  15  19
ATOM     19  O   UNL     1       7.806  -5.926  27.665  0.00  0.00    -0.506 OA
ATOM     20  H   UNL     1       7.752  -6.829  27.323  0.00  0.00    +0.292 HD
ENDBRANCH  15  19
ENDBRANCH   9  12
ENDBRANCH   1   9
BRANCH   5  21
ATOM     21  O   UNL     1      10.130   3.123  24.226  0.00  0.00    -0.481 OA
BRANCH  21  22
ATOM     22  C   UNL     1      11.179   3.293  23.259  0.00  0.00    +0.349 C 
BRANCH  22  23
ATOM     23  C   UNL     1      11.828   4.665  23.349  0.00  0.00    +0.343 C 
ATOM     24  O   UNL     1      12.990   4.860  23.682  0.00  0.00    -0.247 OA
BRANCH  23  25
ATOM     25  O   UNL     1      10.989   5.680  22.994  0.00  0.00    -0.478 OA
ATOM     26  H   UNL     1      10.215   5.695  23.599  0.00  0.00    +0.295 HD
ENDBRANCH  23  25
ENDBRANCH  22  23
ENDBRANCH  21  22
ENDBRANCH   5  21
TORSDOF 8
ENDMDL
