MODEL 1
REMARK VINA RESULT:      -5.3      0.000      0.000
REMARK  Name = 
REMARK  11 active torsions:
REMARK  status: ('A' for Active; 'I' for Inactive)
REMARK    1  A    between atoms: O_1  and  C_2
REMARK    2  A    between atoms: C_2  and  C_3
REMARK    3  A    between atoms: C_3  and  O_5
REMARK    4  A    between atoms: C_3  and  C_6
REMARK    5  A    between atoms: C_6  and  O_8
REMARK    6  A    between atoms: C_6  and  C_9
REMARK    7  A    between atoms: C_9  and  O_11
REMARK    8  A    between atoms: C_9  and  C_12
REMARK    9  A    between atoms: C_12  and  N_13
REMARK   10  A    between atoms: N_13  and  C_14
REMARK   11  A    between atoms: C_15  and  N_16
REMARK                            x       y       z     vdW  Elec       q    Type
REMARK                         _______ _______ _______ _____ _____    ______ ____
ROOT
ATOM      1  N   UNL     1       6.755  -2.176  25.044  0.00  0.00    -0.326 N 
ATOM      2  H   UNL     1       5.739  -2.273  25.158  0.00  0.00    +0.148 HD
ENDROOT
BRANCH   1   3
ATOM      3  C   UNL     1       7.373  -3.345  25.502  0.00  0.00    +0.135 A 
ATOM      4  N   UNL     1       6.827  -3.869  26.645  0.00  0.00    -0.294 N 
ATOM      5  H   UNL     1       6.060  -3.356  27.064  0.00  0.00    +0.172 HD
ATOM      6  C   UNL     1       7.233  -5.008  27.272  0.00  0.00    +0.328 A 
ATOM      7  O   UNL     1       6.695  -5.425  28.290  0.00  0.00    -0.247 OA
ATOM      8  N   UNL     1       8.272  -5.658  26.686  0.00  0.00    -0.273 N 
ATOM      9  H   UNL     1       8.578  -6.521  27.111  0.00  0.00    +0.173 HD
ATOM     10  C   UNL     1       8.899  -5.269  25.528  0.00  0.00    +0.285 A 
ATOM     11  O   UNL     1       9.786  -5.968  25.044  0.00  0.00    -0.265 OA
ATOM     12  C   UNL     1       8.422  -3.981  24.913  0.00  0.00    +0.209 A 
BRANCH  12  13
ATOM     13  N   UNL     1       9.028  -3.634  23.770  0.00  0.00    -0.022 NA
ATOM     14  O   UNL     1      10.145  -3.115  23.878  0.00  0.00    -0.143 OA
ENDBRANCH  12  13
ENDBRANCH   1   3
BRANCH   1  15
ATOM     15  C   UNL     1       7.143  -0.902  25.686  0.00  0.00    +0.137 C 
BRANCH  15  16
ATOM     16  C   UNL     1       7.218   0.269  24.691  0.00  0.00    +0.162 C 
BRANCH  16  17
ATOM     17  O   UNL     1       6.157   0.147  23.716  0.00  0.00    -0.388 OA
ATOM     18  H   UNL     1       6.522   0.469  22.873  0.00  0.00    +0.210 HD
ENDBRANCH  16  17
BRANCH  16  19
ATOM     19  C   UNL     1       8.545   0.243  23.898  0.00  0.00    +0.175 C 
BRANCH  19  20
ATOM     20  O   UNL     1       9.489  -0.594  24.590  0.00  0.00    -0.387 OA
ATOM     21  H   UNL     1      10.328  -0.521  24.099  0.00  0.00    +0.210 HD
ENDBRANCH  19  20
BRANCH  19  22
ATOM     22  C   UNL     1       8.384  -0.219  22.440  0.00  0.00    +0.171 C 
BRANCH  22  23
ATOM     23  O   UNL     1       7.811  -1.530  22.382  0.00  0.00    -0.387 OA
ATOM     24  H   UNL     1       8.470  -2.114  22.809  0.00  0.00    +0.210 HD
ENDBRANCH  22  23
BRANCH  22  25
ATOM     25  C   UNL     1       9.706  -0.196  21.671  0.00  0.00    +0.189 C 
BRANCH  25  26
ATOM     26  O   UNL     1      10.218  -1.533  21.649  0.00  0.00    -0.392 OA
ATOM     27  H   UNL     1      10.923  -1.552  20.978  0.00  0.00    +0.210 HD
ENDBRANCH  25  26
ENDBRANCH  22  25
ENDBRANCH  19  22
ENDBRANCH  16  19
ENDBRANCH  15  16
ENDBRANCH   1  15
TORSDOF 11
ENDMDL
MODEL 2
REMARK VINA RESULT:      -5.0      2.022      2.543
REMARK  Name = 
REMARK  11 active torsions:
REMARK  status: ('A' for Active; 'I' for Inactive)
REMARK    1  A    between atoms: O_1  and  C_2
REMARK    2  A    between atoms: C_2  and  C_3
REMARK    3  A    between atoms: C_3  and  O_5
REMARK    4  A    between atoms: C_3  and  C_6
REMARK    5  A    between atoms: C_6  and  O_8
REMARK    6  A    between atoms: C_6  and  C_9
REMARK    7  A    between atoms: C_9  and  O_11
REMARK    8  A    between atoms: C_9  and  C_12
REMARK    9  A    between atoms: C_12  and  N_13
REMARK   10  A    between atoms: N_13  and  C_14
REMARK   11  A    between atoms: C_15  and  N_16
REMARK                            x       y       z     vdW  Elec       q    Type
REMARK                         _______ _______ _______ _____ _____    ______ ____
ROOT
ATOM      1  N   UNL     1       7.916  -4.303  23.014  0.00  0.00    -0.326 N 
ATOM      2  H   UNL     1       7.915  -5.022  22.281  0.00  0.00    +0.148 HD
ENDROOT
BRANCH   1   3
ATOM      3  C   UNL     1       7.358  -4.845  24.178  0.00  0.00    +0.135 A 
ATOM      4  N   UNL     1       6.112  -5.394  24.011  0.00  0.00    -0.294 N 
ATOM      5  H   UNL     1       5.703  -5.330  23.085  0.00  0.00    +0.172 HD
ATOM      6  C   UNL     1       5.374  -6.002  24.980  0.00  0.00    +0.328 A 
ATOM      7  O   UNL     1       4.267  -6.478  24.761  0.00  0.00    -0.247 OA
ATOM      8  N   UNL     1       5.952  -6.053  26.208  0.00  0.00    -0.273 N 
ATOM      9  H   UNL     1       5.442  -6.524  26.942  0.00  0.00    +0.173 HD
ATOM     10  C   UNL     1       7.201  -5.574  26.518  0.00  0.00    +0.285 A 
ATOM     11  O   UNL     1       7.660  -5.734  27.647  0.00  0.00    -0.265 OA
ATOM     12  C   UNL     1       7.942  -4.881  25.406  0.00  0.00    +0.209 A 
BRANCH  12  13
ATOM     13  N   UNL     1       9.168  -4.445  25.721  0.00  0.00    -0.022 NA
ATOM     14  O   UNL     1      10.090  -4.822  24.987  0.00  0.00    -0.143 OA
ENDBRANCH  12  13
ENDBRANCH   1   3
BRANCH   1  15
ATOM     15  C   UNL     1       7.269  -3.103  22.443  0.00  0.00    +0.137 C 
BRANCH  15  16
ATOM     16  C   UNL     1       7.336  -1.885  23.382  0.00  0.00    +0.162 C 
BRANCH  16  17
ATOM     17  O   UNL     1       6.396  -0.880  22.941  0.00  0.00    -0.388 OA
ATOM     18  H   UNL     1       6.331  -0.972  21.974  0.00  0.00    +0.210 HD
ENDBRANCH  16  17
BRANCH  16  19
ATOM     19  C   UNL     1       8.733  -1.225  23.341  0.00  0.00    +0.175 C 
BRANCH  19  20
ATOM     20  O   UNL     1       9.699  -2.136  23.897  0.00  0.00    -0.387 OA
ATOM     21  H   UNL     1      10.476  -1.597  24.134  0.00  0.00    +0.210 HD
ENDBRANCH  19  20
BRANCH  19  22
ATOM     22  C   UNL     1       9.163  -0.777  21.934  0.00  0.00    +0.171 C 
BRANCH  22  23
ATOM     23  O   UNL     1      10.157  -1.660  21.401  0.00  0.00    -0.387 OA
ATOM     24  H   UNL     1       9.838  -2.560  21.614  0.00  0.00    +0.210 HD
ENDBRANCH  22  23
BRANCH  22  25
ATOM     25  C   UNL     1       9.682   0.661  21.913  0.00  0.00    +0.189 C 
BRANCH  25  26
ATOM     26  O   UNL     1      10.366   0.894  23.150  0.00  0.00    -0.392 OA
ATOM     27  H   UNL     1      11.014   1.601  22.983  0.00  0.00    +0.210 HD
ENDBRANCH  25  26
ENDBRANCH  22  25
ENDBRANCH  19  22
ENDBRANCH  16  19
ENDBRANCH  15  16
ENDBRANCH   1  15
TORSDOF 11
ENDMDL
MODEL 3
REMARK VINA RESULT:      -4.9      2.748      6.070
REMARK  Name = 
REMARK  11 active torsions:
REMARK  status: ('A' for Active; 'I' for Inactive)
REMARK    1  A    between atoms: O_1  and  C_2
REMARK    2  A    between atoms: C_2  and  C_3
REMARK    3  A    between atoms: C_3  and  O_5
REMARK    4  A    between atoms: C_3  and  C_6
REMARK    5  A    between atoms: C_6  and  O_8
REMARK    6  A    between atoms: C_6  and  C_9
REMARK    7  A    between atoms: C_9  and  O_11
REMARK    8  A    between atoms: C_9  and  C_12
REMARK    9  A    between atoms: C_12  and  N_13
REMARK   10  A    between atoms: N_13  and  C_14
REMARK   11  A    between atoms: C_15  and  N_16
REMARK                            x       y       z     vdW  Elec       q    Type
REMARK                         _______ _______ _______ _____ _____    ______ ____
ROOT
ATOM      1  N   UNL     1       7.806  -0.854  23.445  0.00  0.00    -0.326 N 
ATOM      2  H   UNL     1       6.787  -0.804  23.564  0.00  0.00    +0.148 HD
ENDROOT
BRANCH   1   3
ATOM      3  C   UNL     1       8.286   0.425  23.141  0.00  0.00    +0.135 A 
ATOM      4  N   UNL     1       7.356   1.268  22.588  0.00  0.00    -0.294 N 
ATOM      5  H   UNL     1       6.432   0.885  22.423  0.00  0.00    +0.172 HD
ATOM      6  C   UNL     1       7.570   2.563  22.228  0.00  0.00    +0.328 A 
ATOM      7  O   UNL     1       6.690   3.264  21.743  0.00  0.00    -0.247 OA
ATOM      8  N   UNL     1       8.825   3.032  22.453  0.00  0.00    -0.273 N 
ATOM      9  H   UNL     1       9.007   3.998  22.224  0.00  0.00    +0.173 HD
ATOM     10  C   UNL     1       9.848   2.317  23.025  0.00  0.00    +0.285 A 
ATOM     11  O   UNL     1      10.929   2.859  23.248  0.00  0.00    -0.265 OA
ATOM     12  C   UNL     1       9.549   0.881  23.361  0.00  0.00    +0.209 A 
BRANCH  12  13
ATOM     13  N   UNL     1      10.551   0.209  23.942  0.00  0.00    -0.022 NA
ATOM     14  O   UNL     1      10.324  -0.249  25.068  0.00  0.00    -0.143 OA
ENDBRANCH  12  13
ENDBRANCH   1   3
BRANCH   1  15
ATOM     15  C   UNL     1       8.076  -1.933  22.472  0.00  0.00    +0.137 C 
BRANCH  15  16
ATOM     16  C   UNL     1       7.816  -3.335  23.049  0.00  0.00    +0.162 C 
BRANCH  16  17
ATOM     17  O   UNL     1       6.599  -3.321  23.830  0.00  0.00    -0.388 OA
ATOM     18  H   UNL     1       6.829  -3.694  24.700  0.00  0.00    +0.210 HD
ENDBRANCH  16  17
BRANCH  16  19
ATOM     19  C   UNL     1       8.948  -3.761  24.011  0.00  0.00    +0.175 C 
BRANCH  19  20
ATOM     20  O   UNL     1      10.084  -2.900  23.810  0.00  0.00    -0.387 OA
ATOM     21  H   UNL     1      10.865  -3.482  23.788  0.00  0.00    +0.210 HD
ENDBRANCH  19  20
BRANCH  19  22
ATOM     22  C   UNL     1       8.531  -3.765  25.491  0.00  0.00    +0.171 C 
BRANCH  22  23
ATOM     23  O   UNL     1       8.600  -2.445  26.043  0.00  0.00    -0.387 OA
ATOM     24  H   UNL     1       9.258  -1.974  25.492  0.00  0.00    +0.210 HD
ENDBRANCH  22  23
BRANCH  22  25
ATOM     25  C   UNL     1       9.375  -4.723  26.333  0.00  0.00    +0.189 C 
BRANCH  25  26
ATOM     26  O   UNL     1      10.260  -5.417  25.445  0.00  0.00    -0.392 OA
ATOM     27  H   UNL     1      10.934  -5.847  26.000  0.00  0.00    +0.210 HD
ENDBRANCH  25  26
ENDBRANCH  22  25
ENDBRANCH  19  22
ENDBRANCH  16  19
ENDBRANCH  15  16
ENDBRANCH   1  15
TORSDOF 11
ENDMDL
MODEL 4
REMARK VINA RESULT:      -4.9      4.021      5.024
REMARK  Name = 
REMARK  11 active torsions:
REMARK  status: ('A' for Active; 'I' for Inactive)
REMARK    1  A    between atoms: O_1  and  C_2
REMARK    2  A    between atoms: C_2  and  C_3
REMARK    3  A    between atoms: C_3  and  O_5
REMARK    4  A    between atoms: C_3  and  C_6
REMARK    5  A    between atoms: C_6  and  O_8
REMARK    6  A    between atoms: C_6  and  C_9
REMARK    7  A    between atoms: C_9  and  O_11
REMARK    8  A    between atoms: C_9  and  C_12
REMARK    9  A    between atoms: C_12  and  N_13
REMARK   10  A    between atoms: N_13  and  C_14
REMARK   11  A    between atoms: C_15  and  N_16
REMARK                            x       y       z     vdW  Elec       q    Type
REMARK                         _______ _______ _______ _____ _____    ______ ____
ROOT
ATOM      1  N   UNL     1       9.667   1.607  24.859  0.00  0.00    -0.326 N 
ATOM      2  H   UNL     1      10.441   1.837  24.225  0.00  0.00    +0.148 HD
ENDROOT
BRANCH   1   3
ATOM      3  C   UNL     1       9.194   0.328  24.548  0.00  0.00    +0.135 A 
ATOM      4  N   UNL     1       9.082  -0.517  25.623  0.00  0.00    -0.294 N 
ATOM      5  H   UNL     1       9.376  -0.155  26.523  0.00  0.00    +0.172 HD
ATOM      6  C   UNL     1       8.626  -1.799  25.584  0.00  0.00    +0.328 A 
ATOM      7  O   UNL     1       8.546  -2.499  26.586  0.00  0.00    -0.247 OA
ATOM      8  N   UNL     1       8.256  -2.250  24.357  0.00  0.00    -0.273 N 
ATOM      9  H   UNL     1       7.886  -3.188  24.300  0.00  0.00    +0.173 HD
ATOM     10  C   UNL     1       8.285  -1.513  23.199  0.00  0.00    +0.285 A 
ATOM     11  O   UNL     1       7.862  -1.995  22.151  0.00  0.00    -0.265 OA
ATOM     12  C   UNL     1       8.837  -0.117  23.313  0.00  0.00    +0.209 A 
BRANCH  12  13
ATOM     13  N   UNL     1       8.831   0.594  22.178  0.00  0.00    -0.022 NA
ATOM     14  O   UNL     1       9.935   0.813  21.663  0.00  0.00    -0.143 OA
ENDBRANCH  12  13
ENDBRANCH   1   3
BRANCH   1  15
ATOM     15  C   UNL     1       8.703   2.726  24.787  0.00  0.00    +0.137 C 
BRANCH  15  16
ATOM     16  C   UNL     1       9.147   3.834  23.816  0.00  0.00    +0.162 C 
BRANCH  16  17
ATOM     17  O   UNL     1       8.631   3.557  22.495  0.00  0.00    -0.388 OA
ATOM     18  H   UNL     1       9.291   3.900  21.866  0.00  0.00    +0.210 HD
ENDBRANCH  16  17
BRANCH  16  19
ATOM     19  C   UNL     1      10.687   3.875  23.684  0.00  0.00    +0.175 C 
BRANCH  19  20
ATOM     20  O   UNL     1      11.081   3.096  22.539  0.00  0.00    -0.387 OA
ATOM     21  H   UNL     1      11.546   2.315  22.890  0.00  0.00    +0.210 HD
ENDBRANCH  19  20
BRANCH  19  22
ATOM     22  C   UNL     1      11.260   5.299  23.588  0.00  0.00    +0.171 C 
BRANCH  22  23
ATOM     23  O   UNL     1      10.270   6.215  23.108  0.00  0.00    -0.387 OA
ATOM     24  H   UNL     1      10.749   6.807  22.493  0.00  0.00    +0.210 HD
ENDBRANCH  22  23
BRANCH  22  25
ATOM     25  C   UNL     1      12.504   5.369  22.701  0.00  0.00    +0.189 C 
BRANCH  25  26
ATOM     26  O   UNL     1      13.613   4.887  23.470  0.00  0.00    -0.392 OA
ATOM     27  H   UNL     1      14.400   4.957  22.901  0.00  0.00    +0.210 HD
ENDBRANCH  25  26
ENDBRANCH  22  25
ENDBRANCH  19  22
ENDBRANCH  16  19
ENDBRANCH  15  16
ENDBRANCH   1  15
TORSDOF 11
ENDMDL
MODEL 5
REMARK VINA RESULT:      -4.9      2.816      3.925
REMARK  Name = 
REMARK  11 active torsions:
REMARK  status: ('A' for Active; 'I' for Inactive)
REMARK    1  A    between atoms: O_1  and  C_2
REMARK    2  A    between atoms: C_2  and  C_3
REMARK    3  A    between atoms: C_3  and  O_5
REMARK    4  A    between atoms: C_3  and  C_6
REMARK    5  A    between atoms: C_6  and  O_8
REMARK    6  A    between atoms: C_6  and  C_9
REMARK    7  A    between atoms: C_9  and  O_11
REMARK    8  A    between atoms: C_9  and  C_12
REMARK    9  A    between atoms: C_12  and  N_13
REMARK   10  A    between atoms: N_13  and  C_14
REMARK   11  A    between atoms: C_15  and  N_16
REMARK                            x       y       z     vdW  Elec       q    Type
REMARK                         _______ _______ _______ _____ _____    ______ ____
ROOT
ATOM      1  N   UNL     1       7.690  -3.855  24.649  0.00  0.00    -0.326 N 
ATOM      2  H   UNL     1       8.154  -4.336  25.428  0.00  0.00    +0.148 HD
ENDROOT
BRANCH   1   3
ATOM      3  C   UNL     1       6.771  -4.732  24.061  0.00  0.00    +0.135 A 
ATOM      4  N   UNL     1       6.730  -4.682  22.691  0.00  0.00    -0.294 N 
ATOM      5  H   UNL     1       7.334  -4.005  22.239  0.00  0.00    +0.172 HD
ATOM      6  C   UNL     1       5.941  -5.449  21.890  0.00  0.00    +0.328 A 
ATOM      7  O   UNL     1       5.958  -5.357  20.668  0.00  0.00    -0.247 OA
ATOM      8  N   UNL     1       5.136  -6.332  22.536  0.00  0.00    -0.273 N 
ATOM      9  H   UNL     1       4.559  -6.935  21.968  0.00  0.00    +0.173 HD
ATOM     10  C   UNL     1       5.089  -6.514  23.896  0.00  0.00    +0.285 A 
ATOM     11  O   UNL     1       4.374  -7.391  24.376  0.00  0.00    -0.265 OA
ATOM     12  C   UNL     1       5.961  -5.605  24.719  0.00  0.00    +0.209 A 
BRANCH  12  13
ATOM     13  N   UNL     1       5.922  -5.817  26.041  0.00  0.00    -0.022 NA
ATOM     14  O   UNL     1       7.011  -5.987  26.602  0.00  0.00    -0.143 OA
ENDBRANCH  12  13
ENDBRANCH   1   3
BRANCH   1  15
ATOM     15  C   UNL     1       8.755  -3.304  23.785  0.00  0.00    +0.137 C 
BRANCH  15  16
ATOM     16  C   UNL     1       8.539  -1.819  23.444  0.00  0.00    +0.162 C 
BRANCH  16  17
ATOM     17  O   UNL     1       7.690  -1.707  22.280  0.00  0.00    -0.388 OA
ATOM     18  H   UNL     1       6.785  -1.570  22.613  0.00  0.00    +0.210 HD
ENDBRANCH  16  17
BRANCH  16  19
ATOM     19  C   UNL     1       9.874  -1.130  23.080  0.00  0.00    +0.175 C 
BRANCH  19  20
ATOM     20  O   UNL     1      10.242  -1.499  21.738  0.00  0.00    -0.387 OA
ATOM     21  H   UNL     1       9.733  -0.915  21.147  0.00  0.00    +0.210 HD
ENDBRANCH  19  20
BRANCH  19  22
ATOM     22  C   UNL     1       9.840   0.399  23.228  0.00  0.00    +0.171 C 
BRANCH  22  23
ATOM     23  O   UNL     1       8.605   0.827  23.813  0.00  0.00    -0.387 OA
ATOM     24  H   UNL     1       8.560   1.788  23.637  0.00  0.00    +0.210 HD
ENDBRANCH  22  23
BRANCH  22  25
ATOM     25  C   UNL     1      10.059   1.120  21.896  0.00  0.00    +0.189 C 
BRANCH  25  26
ATOM     26  O   UNL     1       8.914   0.866  21.073  0.00  0.00    -0.392 OA
ATOM     27  H   UNL     1       9.135   1.186  20.180  0.00  0.00    +0.210 HD
ENDBRANCH  25  26
ENDBRANCH  22  25
ENDBRANCH  19  22
ENDBRANCH  16  19
ENDBRANCH  15  16
ENDBRANCH   1  15
TORSDOF 11
ENDMDL
MODEL 6
REMARK VINA RESULT:      -4.9      2.700      4.466
REMARK  Name = 
REMARK  11 active torsions:
REMARK  status: ('A' for Active; 'I' for Inactive)
REMARK    1  A    between atoms: O_1  and  C_2
REMARK    2  A    between atoms: C_2  and  C_3
REMARK    3  A    between atoms: C_3  and  O_5
REMARK    4  A    between atoms: C_3  and  C_6
REMARK    5  A    between atoms: C_6  and  O_8
REMARK    6  A    between atoms: C_6  and  C_9
REMARK    7  A    between atoms: C_9  and  O_11
REMARK    8  A    between atoms: C_9  and  C_12
REMARK    9  A    between atoms: C_12  and  N_13
REMARK   10  A    between atoms: N_13  and  C_14
REMARK   11  A    between atoms: C_15  and  N_16
REMARK                            x       y       z     vdW  Elec       q    Type
REMARK                         _______ _______ _______ _____ _____    ______ ____
ROOT
ATOM      1  N   UNL     1      10.135  -0.522  22.387  0.00  0.00    -0.326 N 
ATOM      2  H   UNL     1      10.787  -1.152  21.904  0.00  0.00    +0.148 HD
ENDROOT
BRANCH   1   3
ATOM      3  C   UNL     1       9.685  -1.147  23.555  0.00  0.00    +0.135 A 
ATOM      4  N   UNL     1       9.664  -2.517  23.497  0.00  0.00    -0.294 N 
ATOM      5  H   UNL     1       9.940  -2.943  22.619  0.00  0.00    +0.172 HD
ATOM      6  C   UNL     1       9.291  -3.351  24.506  0.00  0.00    +0.328 A 
ATOM      7  O   UNL     1       9.301  -4.571  24.389  0.00  0.00    -0.247 OA
ATOM      8  N   UNL     1       8.914  -2.740  25.659  0.00  0.00    -0.273 N 
ATOM      9  H   UNL     1       8.659  -3.332  26.436  0.00  0.00    +0.173 HD
ATOM     10  C   UNL     1       8.912  -1.383  25.874  0.00  0.00    +0.285 A 
ATOM     11  O   UNL     1       8.618  -0.935  26.980  0.00  0.00    -0.265 OA
ATOM     12  C   UNL     1       9.299  -0.524  24.701  0.00  0.00    +0.209 A 
BRANCH  12  13
ATOM     13  N   UNL     1       9.317   0.794  24.939  0.00  0.00    -0.022 NA
ATOM     14  O   UNL     1      10.360   1.390  24.644  0.00  0.00    -0.143 OA
ENDBRANCH  12  13
ENDBRANCH   1   3
BRANCH   1  15
ATOM     15  C   UNL     1       9.117  -0.112  21.397  0.00  0.00    +0.137 C 
BRANCH  15  16
ATOM     16  C   UNL     1       9.068   1.412  21.188  0.00  0.00    +0.162 C 
BRANCH  16  17
ATOM     17  O   UNL     1      10.173   2.033  21.883  0.00  0.00    -0.388 OA
ATOM     18  H   UNL     1      10.805   1.320  22.084  0.00  0.00    +0.210 HD
ENDBRANCH  16  17
BRANCH  16  19
ATOM     19  C   UNL     1       7.779   2.016  21.791  0.00  0.00    +0.175 C 
BRANCH  19  20
ATOM     20  O   UNL     1       7.162   1.043  22.652  0.00  0.00    -0.387 OA
ATOM     21  H   UNL     1       7.635   1.093  23.502  0.00  0.00    +0.210 HD
ENDBRANCH  19  20
BRANCH  19  22
ATOM     22  C   UNL     1       8.010   3.335  22.547  0.00  0.00    +0.171 C 
BRANCH  22  23
ATOM     23  O   UNL     1       8.070   3.106  23.960  0.00  0.00    -0.387 OA
ATOM     24  H   UNL     1       7.445   2.372  24.125  0.00  0.00    +0.210 HD
ENDBRANCH  22  23
BRANCH  22  25
ATOM     25  C   UNL     1       6.939   4.382  22.237  0.00  0.00    +0.189 C 
BRANCH  25  26
ATOM     26  O   UNL     1       5.725   3.684  21.935  0.00  0.00    -0.392 OA
ATOM     27  H   UNL     1       5.953   2.740  21.871  0.00  0.00    +0.210 HD
ENDBRANCH  25  26
ENDBRANCH  22  25
ENDBRANCH  19  22
ENDBRANCH  16  19
ENDBRANCH  15  16
ENDBRANCH   1  15
TORSDOF 11
ENDMDL
MODEL 7
REMARK VINA RESULT:      -4.9      3.278      4.448
REMARK  Name = 
REMARK  11 active torsions:
REMARK  status: ('A' for Active; 'I' for Inactive)
REMARK    1  A    between atoms: O_1  and  C_2
REMARK    2  A    between atoms: C_2  and  C_3
REMARK    3  A    between atoms: C_3  and  O_5
REMARK    4  A    between atoms: C_3  and  C_6
REMARK    5  A    between atoms: C_6  and  O_8
REMARK    6  A    between atoms: C_6  and  C_9
REMARK    7  A    between atoms: C_9  and  O_11
REMARK    8  A    between atoms: C_9  and  C_12
REMARK    9  A    between atoms: C_12  and  N_13
REMARK   10  A    between atoms: N_13  and  C_14
REMARK   11  A    between atoms: C_15  and  N_16
REMARK                            x       y       z     vdW  Elec       q    Type
REMARK                         _______ _______ _______ _____ _____    ______ ____
ROOT
ATOM      1  N   UNL     1       7.333   0.795  23.336  0.00  0.00    -0.326 N 
ATOM      2  H   UNL     1       7.988   1.242  23.990  0.00  0.00    +0.148 HD
ENDROOT
BRANCH   1   3
ATOM      3  C   UNL     1       7.535  -0.589  23.372  0.00  0.00    +0.135 A 
ATOM      4  N   UNL     1       6.475  -1.332  22.921  0.00  0.00    -0.294 N 
ATOM      5  H   UNL     1       5.645  -0.823  22.638  0.00  0.00    +0.172 HD
ATOM      6  C   UNL     1       6.434  -2.690  22.834  0.00  0.00    +0.328 A 
ATOM      7  O   UNL     1       5.454  -3.293  22.415  0.00  0.00    -0.247 OA
ATOM      8  N   UNL     1       7.561  -3.335  23.236  0.00  0.00    -0.273 N 
ATOM      9  H   UNL     1       7.572  -4.341  23.156  0.00  0.00    +0.173 HD
ATOM     10  C   UNL     1       8.707  -2.725  23.682  0.00  0.00    +0.285 A 
ATOM     11  O   UNL     1       9.697  -3.400  23.956  0.00  0.00    -0.265 OA
ATOM     12  C   UNL     1       8.664  -1.224  23.787  0.00  0.00    +0.209 A 
BRANCH  12  13
ATOM     13  N   UNL     1       9.801  -0.647  24.198  0.00  0.00    -0.022 NA
ATOM     14  O   UNL     1      10.491  -0.111  23.322  0.00  0.00    -0.143 OA
ENDBRANCH  12  13
ENDBRANCH   1   3
BRANCH   1  15
ATOM     15  C   UNL     1       7.492   1.475  22.033  0.00  0.00    +0.137 C 
BRANCH  15  16
ATOM     16  C   UNL     1       8.489   2.646  22.089  0.00  0.00    +0.162 C 
BRANCH  16  17
ATOM     17  O   UNL     1       9.793   2.195  21.658  0.00  0.00    -0.388 OA
ATOM     18  H   UNL     1       9.849   2.393  20.706  0.00  0.00    +0.210 HD
ENDBRANCH  16  17
BRANCH  16  19
ATOM     19  C   UNL     1       8.662   3.162  23.536  0.00  0.00    +0.175 C 
BRANCH  19  20
ATOM     20  O   UNL     1       9.792   2.504  24.138  0.00  0.00    -0.387 OA
ATOM     21  H   UNL     1      10.320   3.204  24.562  0.00  0.00    +0.210 HD
ENDBRANCH  19  20
BRANCH  19  22
ATOM     22  C   UNL     1       8.815   4.689  23.633  0.00  0.00    +0.171 C 
BRANCH  22  23
ATOM     23  O   UNL     1       8.415   5.319  22.410  0.00  0.00    -0.387 OA
ATOM     24  H   UNL     1       8.794   4.762  21.701  0.00  0.00    +0.210 HD
ENDBRANCH  22  23
BRANCH  22  25
ATOM     25  C   UNL     1      10.241   5.111  23.990  0.00  0.00    +0.189 C 
BRANCH  25  26
ATOM     26  O   UNL     1      11.101   4.678  22.930  0.00  0.00    -0.392 OA
ATOM     27  H   UNL     1      12.004   4.951  23.172  0.00  0.00    +0.210 HD
ENDBRANCH  25  26
ENDBRANCH  22  25
ENDBRANCH  19  22
ENDBRANCH  16  19
ENDBRANCH  15  16
ENDBRANCH   1  15
TORSDOF 11
ENDMDL
MODEL 8
REMARK VINA RESULT:      -4.8      2.019      2.690
REMARK  Name = 
REMARK  11 active torsions:
REMARK  status: ('A' for Active; 'I' for Inactive)
REMARK    1  A    between atoms: O_1  and  C_2
REMARK    2  A    between atoms: C_2  and  C_3
REMARK    3  A    between atoms: C_3  and  O_5
REMARK    4  A    between atoms: C_3  and  C_6
REMARK    5  A    between atoms: C_6  and  O_8
REMARK    6  A    between atoms: C_6  and  C_9
REMARK    7  A    between atoms: C_9  and  O_11
REMARK    8  A    between atoms: C_9  and  C_12
REMARK    9  A    between atoms: C_12  and  N_13
REMARK   10  A    between atoms: N_13  and  C_14
REMARK   11  A    between atoms: C_15  and  N_16
REMARK                            x       y       z     vdW  Elec       q    Type
REMARK                         _______ _______ _______ _____ _____    ______ ____
ROOT
ATOM      1  N   UNL     1       9.592  -3.013  24.270  0.00  0.00    -0.326 N 
ATOM      2  H   UNL     1       9.767  -3.022  23.258  0.00  0.00    +0.148 HD
ENDROOT
BRANCH   1   3
ATOM      3  C   UNL     1       8.544  -3.896  24.553  0.00  0.00    +0.135 A 
ATOM      4  N   UNL     1       8.537  -4.382  25.836  0.00  0.00    -0.294 N 
ATOM      5  H   UNL     1       9.296  -4.088  26.441  0.00  0.00    +0.172 HD
ATOM      6  C   UNL     1       7.613  -5.232  26.360  0.00  0.00    +0.328 A 
ATOM      7  O   UNL     1       7.664  -5.624  27.520  0.00  0.00    -0.247 OA
ATOM      8  N   UNL     1       6.622  -5.613  25.512  0.00  0.00    -0.273 N 
ATOM      9  H   UNL     1       5.905  -6.221  25.880  0.00  0.00    +0.173 HD
ATOM     10  C   UNL     1       6.482  -5.187  24.214  0.00  0.00    +0.285 A 
ATOM     11  O   UNL     1       5.508  -5.538  23.553  0.00  0.00    -0.265 OA
ATOM     12  C   UNL     1       7.563  -4.279  23.693  0.00  0.00    +0.209 A 
BRANCH  12  13
ATOM     13  N   UNL     1       7.393  -3.854  22.434  0.00  0.00    -0.022 NA
ATOM     14  O   UNL     1       6.969  -2.699  22.297  0.00  0.00    -0.143 OA
ENDBRANCH  12  13
ENDBRANCH   1   3
BRANCH   1  15
ATOM     15  C   UNL     1       9.419  -1.600  24.666  0.00  0.00    +0.137 C 
BRANCH  15  16
ATOM     16  C   UNL     1      10.341  -0.645  23.887  0.00  0.00    +0.162 C 
BRANCH  16  17
ATOM     17  O   UNL     1      10.584   0.544  24.672  0.00  0.00    -0.388 OA
ATOM     18  H   UNL     1      10.282   1.295  24.130  0.00  0.00    +0.210 HD
ENDBRANCH  16  17
BRANCH  16  19
ATOM     19  C   UNL     1       9.674  -0.174  22.575  0.00  0.00    +0.175 C 
BRANCH  19  20
ATOM     20  O   UNL     1       9.253  -1.326  21.822  0.00  0.00    -0.387 OA
ATOM     21  H   UNL     1       8.443  -1.061  21.350  0.00  0.00    +0.210 HD
ENDBRANCH  19  20
BRANCH  19  22
ATOM     22  C   UNL     1       8.495   0.788  22.792  0.00  0.00    +0.171 C 
BRANCH  22  23
ATOM     23  O   UNL     1       7.247   0.124  22.558  0.00  0.00    -0.387 OA
ATOM     24  H   UNL     1       7.020  -0.296  23.412  0.00  0.00    +0.210 HD
ENDBRANCH  22  23
BRANCH  22  25
ATOM     25  C   UNL     1       8.590   2.037  21.913  0.00  0.00    +0.189 C 
BRANCH  25  26
ATOM     26  O   UNL     1       9.954   2.170  21.495  0.00  0.00    -0.392 OA
ATOM     27  H   UNL     1      10.499   2.124  22.301  0.00  0.00    +0.210 HD
ENDBRANCH  25  26
ENDBRANCH  22  25
ENDBRANCH  19  22
ENDBRANCH  16  19
ENDBRANCH  15  16
ENDBRANCH   1  15
TORSDOF 11
ENDMDL
MODEL 9
REMARK VINA RESULT:      -4.7      2.423      2.787
REMARK  Name = 
REMARK  11 active torsions:
REMARK  status: ('A' for Active; 'I' for Inactive)
REMARK    1  A    between atoms: O_1  and  C_2
REMARK    2  A    between atoms: C_2  and  C_3
REMARK    3  A    between atoms: C_3  and  O_5
REMARK    4  A    between atoms: C_3  and  C_6
REMARK    5  A    between atoms: C_6  and  O_8
REMARK    6  A    between atoms: C_6  and  C_9
REMARK    7  A    between atoms: C_9  and  O_11
REMARK    8  A    between atoms: C_9  and  C_12
REMARK    9  A    between atoms: C_12  and  N_13
REMARK   10  A    between atoms: N_13  and  C_14
REMARK   11  A    between atoms: C_15  and  N_16
REMARK                            x       y       z     vdW  Elec       q    Type
REMARK                         _______ _______ _______ _____ _____    ______ ____
ROOT
ATOM      1  N   UNL     1       7.567  -1.446  22.687  0.00  0.00    -0.326 N 
ATOM      2  H   UNL     1       6.919  -1.644  21.915  0.00  0.00    +0.148 HD
ENDROOT
BRANCH   1   3
ATOM      3  C   UNL     1       7.820  -2.636  23.378  0.00  0.00    +0.135 A 
ATOM      4  N   UNL     1       6.725  -3.446  23.540  0.00  0.00    -0.294 N 
ATOM      5  H   UNL     1       5.842  -3.102  23.180  0.00  0.00    +0.172 HD
ATOM      6  C   UNL     1       6.718  -4.661  24.154  0.00  0.00    +0.328 A 
ATOM      7  O   UNL     1       5.702  -5.338  24.260  0.00  0.00    -0.247 OA
ATOM      8  N   UNL     1       7.918  -5.079  24.636  0.00  0.00    -0.273 N 
ATOM      9  H   UNL     1       7.951  -5.989  25.071  0.00  0.00    +0.173 HD
ATOM     10  C   UNL     1       9.101  -4.391  24.523  0.00  0.00    +0.285 A 
ATOM     11  O   UNL     1      10.145  -4.892  24.933  0.00  0.00    -0.265 OA
ATOM     12  C   UNL     1       9.024  -3.039  23.866  0.00  0.00    +0.209 A 
BRANCH  12  13
ATOM     13  N   UNL     1      10.193  -2.397  23.741  0.00  0.00    -0.022 NA
ATOM     14  O   UNL     1      10.570  -2.166  22.586  0.00  0.00    -0.143 OA
ENDBRANCH  12  13
ENDBRANCH   1   3
BRANCH   1  15
ATOM     15  C   UNL     1       6.994  -0.320  23.454  0.00  0.00    +0.137 C 
BRANCH  15  16
ATOM     16  C   UNL     1       7.639   1.032  23.102  0.00  0.00    +0.162 C 
BRANCH  16  17
ATOM     17  O   UNL     1       8.076   1.017  21.723  0.00  0.00    -0.388 OA
ATOM     18  H   UNL     1       8.364   1.924  21.518  0.00  0.00    +0.210 HD
ENDBRANCH  16  17
BRANCH  16  19
ATOM     19  C   UNL     1       8.902   1.286  23.957  0.00  0.00    +0.175 C 
BRANCH  19  20
ATOM     20  O   UNL     1       9.952   0.406  23.517  0.00  0.00    -0.387 OA
ATOM     21  H   UNL     1      10.568   0.322  24.268  0.00  0.00    +0.210 HD
ENDBRANCH  19  20
BRANCH  19  22
ATOM     22  C   UNL     1       9.380   2.747  23.932  0.00  0.00    +0.171 C 
BRANCH  22  23
ATOM     23  O   UNL     1       8.415   3.588  23.288  0.00  0.00    -0.387 OA
ATOM     24  H   UNL     1       8.885   4.428  23.116  0.00  0.00    +0.210 HD
ENDBRANCH  22  23
BRANCH  22  25
ATOM     25  C   UNL     1      10.741   2.906  23.252  0.00  0.00    +0.189 C 
BRANCH  25  26
ATOM     26  O   UNL     1      10.568   2.607  21.862  0.00  0.00    -0.392 OA
ATOM     27  H   UNL     1       9.900   1.901  21.808  0.00  0.00    +0.210 HD
ENDBRANCH  25  26
ENDBRANCH  22  25
ENDBRANCH  19  22
ENDBRANCH  16  19
ENDBRANCH  15  16
ENDBRANCH   1  15
TORSDOF 11
ENDMDL
