MODEL 1
REMARK VINA RESULT:      -7.1      0.000      0.000
REMARK  Name = 
REMARK  16 active torsions:
REMARK  status: ('A' for Active; 'I' for Inactive)
REMARK    1  A    between atoms: N_6  and  C_9
REMARK    2  A    between atoms: C_12  and  C_14
REMARK    3  A    between atoms: C_14  and  O_15
REMARK    4  A    between atoms: O_15  and  P_16
REMARK    5  A    between atoms: P_16  and  O_17
REMARK    6  A    between atoms: P_16  and  O_19
REMARK    7  A    between atoms: O_19  and  P_20
REMARK    8  A    between atoms: P_20  and  O_21
REMARK    9  A    between atoms: P_20  and  O_23
REMARK   10  A    between atoms: O_23  and  C_24
REMARK   11  A    between atoms: C_24  and  C_25
REMARK   12  A    between atoms: C_34  and  S_35
REMARK   13  A    between atoms: C_36  and  S_37
REMARK   14  A    between atoms: C_38  and  O_39
REMARK   15  A    between atoms: C_44  and  O_46
REMARK   16  A    between atoms: C_47  and  O_49
REMARK                            x       y       z     vdW  Elec       q    Type
REMARK                         _______ _______ _______ _____ _____    ______ ____
ROOT
ATOM      1  P   UNL     1       7.568   2.559  25.484  0.00  0.00    +0.483 P 
ATOM      2  O   UNL     1       7.920   3.736  26.405  0.00  0.00    -0.227 OA
ENDROOT
BRANCH   1   3
ATOM      3  O   UNL     1       8.316   1.247  26.095  0.00  0.00    -0.302 OA
ATOM      4  H   UNL     1       7.730   0.474  26.198  0.00  0.00    +0.222 HD
ENDBRANCH   1   3
BRANCH   1   5
ATOM      5  O   UNL     1       8.937   2.921  24.491  0.00  0.00    -0.186 OA
BRANCH   5   6
ATOM      6  P   UNL     1       8.648   2.355  22.882  0.00  0.00    +0.483 P 
ATOM      7  O   UNL     1       9.938   1.530  22.918  0.00  0.00    -0.227 OA
BRANCH   6   8
ATOM      8  O   UNL     1       8.360   1.790  21.273  0.00  0.00    -0.302 OA
ATOM      9  H   UNL     1       7.557   2.223  20.934  0.00  0.00    +0.222 HD
ENDBRANCH   6   8
BRANCH   6  10
ATOM     10  O   UNL     1       7.390   1.407  23.423  0.00  0.00    -0.284 OA
BRANCH  10  11
ATOM     11  C   UNL     1       7.040   0.305  22.588  0.00  0.00    +0.206 C 
BRANCH  11  15
ATOM     12  C   UNL     1       9.377  -1.993  24.260  0.00  0.00    +0.255 C 
ATOM     13  C   UNL     1       9.724  -2.269  22.782  0.00  0.00    +0.195 C 
ATOM     14  C   UNL     1       8.537  -1.718  21.990  0.00  0.00    +0.178 C 
ATOM     15  C   UNL     1       7.647  -1.040  23.030  0.00  0.00    +0.178 C 
ATOM     16  O   UNL     1       8.410  -0.917  24.236  0.00  0.00    -0.346 OA
BRANCH  12  23
ATOM     17  N   UNL     1       7.505  -6.023  27.575  0.00  0.00    -0.343 N 
ATOM     18  H   UNL     1       7.088  -6.850  27.166  0.00  0.00    +0.144 HD
ATOM     19  H   UNL     1       6.985  -5.647  28.363  0.00  0.00    +0.144 HD
ATOM     20  C   UNL     1       7.968  -5.050  26.733  0.00  0.00    +0.123 A 
ATOM     21  C   UNL     1       8.396  -5.411  25.372  0.00  0.00    +0.061 A 
ATOM     22  C   UNL     1       8.795  -4.404  24.596  0.00  0.00    +0.096 A 
ATOM     23  N   UNL     1       8.855  -3.108  25.066  0.00  0.00    -0.270 N 
ATOM     24  C   UNL     1       8.463  -2.812  26.384  0.00  0.00    +0.352 A 
ATOM     25  O   UNL     1       8.542  -1.672  26.836  0.00  0.00    -0.244 OA
ATOM     26  N   UNL     1       7.991  -3.835  27.179  0.00  0.00    -0.178 NA
ENDBRANCH  12  23
BRANCH  14  27
ATOM     27  O   UNL     1       7.816  -2.792  21.370  0.00  0.00    -0.386 OA
ATOM     28  H   UNL     1       8.018  -2.763  20.418  0.00  0.00    +0.210 HD
ENDBRANCH  14  27
BRANCH  13  29
ATOM     29  O   UNL     1      10.925  -1.575  22.395  0.00  0.00    -0.385 OA
ATOM     30  H   UNL     1      11.675  -1.981  22.875  0.00  0.00    +0.210 HD
ENDBRANCH  13  29
ENDBRANCH  11  15
ENDBRANCH  10  11
ENDBRANCH   6  10
ENDBRANCH   5   6
ENDBRANCH   1   5
BRANCH   1  31
ATOM     31  O   UNL     1       6.198   2.197  26.477  0.00  0.00    -0.282 OA
BRANCH  31  32
ATOM     32  C   UNL     1       6.231   0.844  26.957  0.00  0.00    +0.222 C 
BRANCH  32  33
ATOM     33  C   UNL     1       4.895   0.113  26.743  0.00  0.00    +0.238 C 
ATOM     34  C   UNL     1       4.436  -0.705  27.948  0.00  0.00    +0.040 C 
ATOM     35  C   UNL     1       4.312  -2.045  27.880  0.00  0.00    +0.048 C 
ATOM     36  C   UNL     1       4.621  -2.695  26.599  0.00  0.00    +0.140 A 
ATOM     37  C   UNL     1       4.964  -1.928  25.496  0.00  0.00    +0.245 A 
ATOM     38  N   UNL     1       5.239  -2.474  24.287  0.00  0.00    -0.189 NA
ATOM     39  C   UNL     1       5.172  -3.803  24.158  0.00  0.00    +0.190 A 
ATOM     40  N   UNL     1       5.457  -4.334  22.973  0.00  0.00    -0.193 NA
ATOM     41  C   UNL     1       5.383  -5.657  22.847  0.00  0.00    +0.218 A 
ATOM     42  N   UNL     1       5.719  -6.203  21.630  0.00  0.00    -0.327 N 
ATOM     43  H   UNL     1       5.630  -5.529  20.883  0.00  0.00    +0.145 HD
ATOM     44  H   UNL     1       5.292  -7.109  21.505  0.00  0.00    +0.145 HD
ATOM     45  N   UNL     1       4.991  -6.486  23.807  0.00  0.00    -0.178 NA
ATOM     46  C   UNL     1       4.717  -5.913  24.986  0.00  0.00    +0.245 A 
ATOM     47  C   UNL     1       4.794  -4.568  25.262  0.00  0.00    +0.170 A 
ATOM     48  N   UNL     1       4.519  -4.045  26.498  0.00  0.00    -0.232 NA
ATOM     49  O   UNL     1       4.985  -0.571  25.485  0.00  0.00    -0.464 OA
BRANCH  46  50
ATOM     50  O   UNL     1       4.319  -6.784  25.972  0.00  0.00    -0.491 OA
ATOM     51  H   UNL     1       3.375  -6.961  25.801  0.00  0.00    +0.294 HD
ENDBRANCH  46  50
BRANCH  35  52
ATOM     52  S   UNL     1       3.795  -3.060  29.197  0.00  0.00    -0.140 S 
ATOM     53  H   UNL     1       2.775  -3.666  28.567  0.00  0.00    +0.107 HD
ENDBRANCH  35  52
BRANCH  34  54
ATOM     54  S   UNL     1       4.008   0.220  29.384  0.00  0.00    -0.142 S 
ATOM     55  H   UNL     1       2.678   0.028  29.349  0.00  0.00    +0.107 HD
ENDBRANCH  34  54
ENDBRANCH  32  33
ENDBRANCH  31  32
ENDBRANCH   1  31
TORSDOF 16
ENDMDL
MODEL 2
REMARK VINA RESULT:      -6.9      2.868      5.780
REMARK  Name = 
REMARK  16 active torsions:
REMARK  status: ('A' for Active; 'I' for Inactive)
REMARK    1  A    between atoms: N_6  and  C_9
REMARK    2  A    between atoms: C_12  and  C_14
REMARK    3  A    between atoms: C_14  and  O_15
REMARK    4  A    between atoms: O_15  and  P_16
REMARK    5  A    between atoms: P_16  and  O_17
REMARK    6  A    between atoms: P_16  and  O_19
REMARK    7  A    between atoms: O_19  and  P_20
REMARK    8  A    between atoms: P_20  and  O_21
REMARK    9  A    between atoms: P_20  and  O_23
REMARK   10  A    between atoms: O_23  and  C_24
REMARK   11  A    between atoms: C_24  and  C_25
REMARK   12  A    between atoms: C_34  and  S_35
REMARK   13  A    between atoms: C_36  and  S_37
REMARK   14  A    between atoms: C_38  and  O_39
REMARK   15  A    between atoms: C_44  and  O_46
REMARK   16  A    between atoms: C_47  and  O_49
REMARK                            x       y       z     vdW  Elec       q    Type
REMARK                         _______ _______ _______ _____ _____    ______ ____
ROOT
ATOM      1  P   UNL     1       5.530   1.349  24.960  0.00  0.00    +0.483 P 
ATOM      2  O   UNL     1       4.695   2.235  24.025  0.00  0.00    -0.227 OA
ENDROOT
BRANCH   1   3
ATOM      3  O   UNL     1       5.640  -0.112  24.246  0.00  0.00    -0.302 OA
ATOM      4  H   UNL     1       5.579  -0.077  23.272  0.00  0.00    +0.222 HD
ENDBRANCH   1   3
BRANCH   1   5
ATOM      5  O   UNL     1       4.094   0.870  25.797  0.00  0.00    -0.186 OA
BRANCH   5   6
ATOM      6  P   UNL     1       4.406   0.823  27.498  0.00  0.00    +0.483 P 
ATOM      7  O   UNL     1       2.996   0.286  27.763  0.00  0.00    -0.227 OA
BRANCH   6   8
ATOM      8  O   UNL     1       4.717   0.776  29.199  0.00  0.00    -0.302 OA
ATOM      9  H   UNL     1       4.006   1.259  29.654  0.00  0.00    +0.222 HD
ENDBRANCH   6   8
BRANCH   6  10
ATOM     10  O   UNL     1       5.440  -0.466  27.290  0.00  0.00    -0.284 OA
BRANCH  10  11
ATOM     11  C   UNL     1       5.028  -1.694  27.886  0.00  0.00    +0.206 C 
BRANCH  11  15
ATOM     12  C   UNL     1       3.717  -3.076  24.737  0.00  0.00    +0.255 C 
ATOM     13  C   UNL     1       2.570  -3.441  25.702  0.00  0.00    +0.195 C 
ATOM     14  C   UNL     1       3.178  -3.322  27.101  0.00  0.00    +0.178 C 
ATOM     15  C   UNL     1       4.584  -2.769  26.875  0.00  0.00    +0.178 C 
ATOM     16  O   UNL     1       4.651  -2.299  25.523  0.00  0.00    -0.346 OA
BRANCH  12  23
ATOM     17  N   UNL     1       6.425  -7.020  21.936  0.00  0.00    -0.343 N 
ATOM     18  H   UNL     1       6.629  -7.901  22.389  0.00  0.00    +0.144 HD
ATOM     19  H   UNL     1       7.208  -6.636  21.413  0.00  0.00    +0.144 HD
ATOM     20  C   UNL     1       5.747  -6.070  22.647  0.00  0.00    +0.123 A 
ATOM     21  C   UNL     1       4.850  -6.482  23.739  0.00  0.00    +0.061 A 
ATOM     22  C   UNL     1       4.256  -5.499  24.414  0.00  0.00    +0.096 A 
ATOM     23  N   UNL     1       4.431  -4.174  24.068  0.00  0.00    -0.270 N 
ATOM     24  C   UNL     1       5.277  -3.826  22.999  0.00  0.00    +0.352 A 
ATOM     25  O   UNL     1       5.421  -2.657  22.650  0.00  0.00    -0.244 OA
ATOM     26  N   UNL     1       5.945  -4.830  22.330  0.00  0.00    -0.178 NA
ENDBRANCH  12  23
BRANCH  14  27
ATOM     27  O   UNL     1       3.265  -4.617  27.713  0.00  0.00    -0.386 OA
ATOM     28  H   UNL     1       2.506  -4.701  28.317  0.00  0.00    +0.210 HD
ENDBRANCH  14  27
BRANCH  13  29
ATOM     29  O   UNL     1       1.473  -2.517  25.573  0.00  0.00    -0.385 OA
ATOM     30  H   UNL     1       1.529  -2.104  24.688  0.00  0.00    +0.210 HD
ENDBRANCH  13  29
ENDBRANCH  11  15
ENDBRANCH  10  11
ENDBRANCH   6  10
ENDBRANCH   5   6
ENDBRANCH   1   5
BRANCH   1  31
ATOM     31  O   UNL     1       6.967   1.827  24.124  0.00  0.00    -0.282 OA
BRANCH  31  32
ATOM     32  C   UNL     1       8.018   2.185  25.033  0.00  0.00    +0.222 C 
BRANCH  32  33
ATOM     33  C   UNL     1       9.216   1.224  24.955  0.00  0.00    +0.238 C 
ATOM     34  C   UNL     1       9.548   0.759  23.539  0.00  0.00    +0.040 C 
ATOM     35  C   UNL     1       9.452  -0.537  23.186  0.00  0.00    +0.048 C 
ATOM     36  C   UNL     1       9.030  -1.497  24.217  0.00  0.00    +0.140 A 
ATOM     37  C   UNL     1       8.806  -1.066  25.516  0.00  0.00    +0.245 A 
ATOM     38  N   UNL     1       8.434  -1.910  26.507  0.00  0.00    -0.189 NA
ATOM     39  C   UNL     1       8.284  -3.207  26.218  0.00  0.00    +0.190 A 
ATOM     40  N   UNL     1       7.906  -4.029  27.193  0.00  0.00    -0.193 NA
ATOM     41  C   UNL     1       7.763  -5.319  26.901  0.00  0.00    +0.218 A 
ATOM     42  N   UNL     1       7.331  -6.156  27.904  0.00  0.00    -0.327 N 
ATOM     43  H   UNL     1       7.522  -5.770  28.819  0.00  0.00    +0.145 HD
ATOM     44  H   UNL     1       7.605  -7.112  27.726  0.00  0.00    +0.145 HD
ATOM     45  N   UNL     1       8.024  -5.860  25.718  0.00  0.00    -0.178 NA
ATOM     46  C   UNL     1       8.399  -4.999  24.763  0.00  0.00    +0.245 A 
ATOM     47  C   UNL     1       8.543  -3.640  24.917  0.00  0.00    +0.170 A 
ATOM     48  N   UNL     1       8.911  -2.809  23.893  0.00  0.00    -0.232 NA
ATOM     49  O   UNL     1       9.005   0.206  25.945  0.00  0.00    -0.464 OA
BRANCH  46  50
ATOM     50  O   UNL     1       8.659  -5.572  23.540  0.00  0.00    -0.491 OA
ATOM     51  H   UNL     1       7.990  -6.273  23.431  0.00  0.00    +0.294 HD
ENDBRANCH  46  50
BRANCH  35  52
ATOM     52  S   UNL     1       9.810  -1.161  21.600  0.00  0.00    -0.140 S 
ATOM     53  H   UNL     1      11.037  -0.630  21.472  0.00  0.00    +0.107 HD
ENDBRANCH  35  52
BRANCH  34  54
ATOM     54  S   UNL     1      10.133   2.005  22.441  0.00  0.00    -0.142 S 
ATOM     55  H   UNL     1      10.060   3.053  23.281  0.00  0.00    +0.107 HD
ENDBRANCH  34  54
ENDBRANCH  32  33
ENDBRANCH  31  32
ENDBRANCH   1  31
TORSDOF 16
ENDMDL
MODEL 3
REMARK VINA RESULT:      -6.7      2.874      5.138
REMARK  Name = 
REMARK  16 active torsions:
REMARK  status: ('A' for Active; 'I' for Inactive)
REMARK    1  A    between atoms: N_6  and  C_9
REMARK    2  A    between atoms: C_12  and  C_14
REMARK    3  A    between atoms: C_14  and  O_15
REMARK    4  A    between atoms: O_15  and  P_16
REMARK    5  A    between atoms: P_16  and  O_17
REMARK    6  A    between atoms: P_16  and  O_19
REMARK    7  A    between atoms: O_19  and  P_20
REMARK    8  A    between atoms: P_20  and  O_21
REMARK    9  A    between atoms: P_20  and  O_23
REMARK   10  A    between atoms: O_23  and  C_24
REMARK   11  A    between atoms: C_24  and  C_25
REMARK   12  A    between atoms: C_34  and  S_35
REMARK   13  A    between atoms: C_36  and  S_37
REMARK   14  A    between atoms: C_38  and  O_39
REMARK   15  A    between atoms: C_44  and  O_46
REMARK   16  A    between atoms: C_47  and  O_49
REMARK                            x       y       z     vdW  Elec       q    Type
REMARK                         _______ _______ _______ _____ _____    ______ ____
ROOT
ATOM      1  P   UNL     1       9.135   1.112  22.154  0.00  0.00    +0.483 P 
ATOM      2  O   UNL     1       9.037   0.078  21.024  0.00  0.00    -0.227 OA
ENDROOT
BRANCH   1   3
ATOM      3  O   UNL     1      10.145   2.279  21.633  0.00  0.00    -0.302 OA
ATOM      4  H   UNL     1       9.692   3.105  21.379  0.00  0.00    +0.222 HD
ENDBRANCH   1   3
BRANCH   1   5
ATOM      5  O   UNL     1      10.451   0.233  22.851  0.00  0.00    -0.186 OA
BRANCH   5   6
ATOM      6  P   UNL     1      10.236   0.134  24.564  0.00  0.00    +0.483 P 
ATOM      7  O   UNL     1       9.553   1.505  24.579  0.00  0.00    -0.227 OA
BRANCH   6   8
ATOM      8  O   UNL     1      10.021   0.036  26.278  0.00  0.00    -0.302 OA
ATOM      9  H   UNL     1       9.386   0.722  26.547  0.00  0.00    +0.222 HD
ENDBRANCH   6   8
BRANCH   6  10
ATOM     10  O   UNL     1       9.073  -1.042  24.367  0.00  0.00    -0.284 OA
BRANCH  10  11
ATOM     11  C   UNL     1       8.515  -1.570  25.569  0.00  0.00    +0.206 C 
BRANCH  11  15
ATOM     12  C   UNL     1       8.011  -5.113  26.425  0.00  0.00    +0.255 C 
ATOM     13  C   UNL     1       8.837  -5.254  25.130  0.00  0.00    +0.195 C 
ATOM     14  C   UNL     1       8.732  -3.890  24.445  0.00  0.00    +0.178 C 
ATOM     15  C   UNL     1       7.975  -3.007  25.436  0.00  0.00    +0.178 C 
ATOM     16  O   UNL     1       7.951  -3.693  26.694  0.00  0.00    -0.346 OA
BRANCH  12  23
ATOM     17  N   UNL     1       2.968  -7.390  26.771  0.00  0.00    -0.343 N 
ATOM     18  H   UNL     1       2.285  -7.199  26.050  0.00  0.00    +0.144 HD
ATOM     19  H   UNL     1       2.595  -7.331  27.715  0.00  0.00    +0.144 HD
ATOM     20  C   UNL     1       4.207  -6.824  26.655  0.00  0.00    +0.123 A 
ATOM     21  C   UNL     1       4.724  -6.478  25.321  0.00  0.00    +0.061 A 
ATOM     22  C   UNL     1       5.920  -5.891  25.290  0.00  0.00    +0.096 A 
ATOM     23  N   UNL     1       6.651  -5.676  26.440  0.00  0.00    -0.270 N 
ATOM     24  C   UNL     1       6.130  -6.048  27.692  0.00  0.00    +0.352 A 
ATOM     25  O   UNL     1       6.777  -5.899  28.726  0.00  0.00    -0.244 OA
ATOM     26  N   UNL     1       4.868  -6.601  27.746  0.00  0.00    -0.178 NA
ENDBRANCH  12  23
BRANCH  14  27
ATOM     27  O   UNL     1       7.975  -4.004  23.231  0.00  0.00    -0.386 OA
ATOM     28  H   UNL     1       7.814  -4.952  23.081  0.00  0.00    +0.210 HD
ENDBRANCH  14  27
BRANCH  13  29
ATOM     29  O   UNL     1      10.218  -5.539  25.426  0.00  0.00    -0.385 OA
ATOM     30  H   UNL     1      10.771  -5.037  24.794  0.00  0.00    +0.210 HD
ENDBRANCH  13  29
ENDBRANCH  11  15
ENDBRANCH  10  11
ENDBRANCH   6  10
ENDBRANCH   5   6
ENDBRANCH   1   5
BRANCH   1  31
ATOM     31  O   UNL     1       7.817   1.991  21.458  0.00  0.00    -0.282 OA
BRANCH  31  32
ATOM     32  C   UNL     1       7.793   3.356  21.903  0.00  0.00    +0.222 C 
BRANCH  32  33
ATOM     33  C   UNL     1       6.607   3.648  22.837  0.00  0.00    +0.238 C 
ATOM     34  C   UNL     1       6.975   4.474  24.067  0.00  0.00    +0.040 C 
ATOM     35  C   UNL     1       6.854   3.971  25.311  0.00  0.00    +0.048 C 
ATOM     36  C   UNL     1       6.339   2.602  25.447  0.00  0.00    +0.140 A 
ATOM     37  C   UNL     1       5.940   1.895  24.323  0.00  0.00    +0.245 A 
ATOM     38  N   UNL     1       5.441   0.638  24.393  0.00  0.00    -0.189 NA
ATOM     39  C   UNL     1       5.327   0.064  25.595  0.00  0.00    +0.190 A 
ATOM     40  N   UNL     1       4.849  -1.176  25.656  0.00  0.00    -0.193 NA
ATOM     41  C   UNL     1       4.733  -1.742  26.855  0.00  0.00    +0.218 A 
ATOM     42  N   UNL     1       4.278  -3.039  26.907  0.00  0.00    -0.327 N 
ATOM     43  H   UNL     1       3.748  -3.281  26.081  0.00  0.00    +0.145 HD
ATOM     44  H   UNL     1       3.873  -3.248  27.808  0.00  0.00    +0.145 HD
ATOM     45  N   UNL     1       5.008  -1.139  28.005  0.00  0.00    -0.178 NA
ATOM     46  C   UNL     1       5.489   0.106  27.900  0.00  0.00    +0.245 A 
ATOM     47  C   UNL     1       5.699   0.791  26.726  0.00  0.00    +0.170 A 
ATOM     48  N   UNL     1       6.215   2.059  26.685  0.00  0.00    -0.232 NA
ATOM     49  O   UNL     1       5.932   2.403  23.064  0.00  0.00    -0.464 OA
BRANCH  46  50
ATOM     50  O   UNL     1       5.776   0.716  29.099  0.00  0.00    -0.491 OA
ATOM     51  H   UNL     1       4.957   1.174  29.363  0.00  0.00    +0.294 HD
ENDBRANCH  46  50
BRANCH  35  52
ATOM     52  S   UNL     1       7.246   4.835  26.771  0.00  0.00    -0.140 S 
ATOM     53  H   UNL     1       7.660   5.977  26.198  0.00  0.00    +0.107 HD
ENDBRANCH  35  52
BRANCH  34  54
ATOM     54  S   UNL     1       7.485   6.130  23.754  0.00  0.00    -0.142 S 
ATOM     55  H   UNL     1       8.213   6.322  24.868  0.00  0.00    +0.107 HD
ENDBRANCH  34  54
ENDBRANCH  32  33
ENDBRANCH  31  32
ENDBRANCH   1  31
TORSDOF 16
ENDMDL
MODEL 4
REMARK VINA RESULT:      -6.7      3.446      6.399
REMARK  Name = 
REMARK  16 active torsions:
REMARK  status: ('A' for Active; 'I' for Inactive)
REMARK    1  A    between atoms: N_6  and  C_9
REMARK    2  A    between atoms: C_12  and  C_14
REMARK    3  A    between atoms: C_14  and  O_15
REMARK    4  A    between atoms: O_15  and  P_16
REMARK    5  A    between atoms: P_16  and  O_17
REMARK    6  A    between atoms: P_16  and  O_19
REMARK    7  A    between atoms: O_19  and  P_20
REMARK    8  A    between atoms: P_20  and  O_21
REMARK    9  A    between atoms: P_20  and  O_23
REMARK   10  A    between atoms: O_23  and  C_24
REMARK   11  A    between atoms: C_24  and  C_25
REMARK   12  A    between atoms: C_34  and  S_35
REMARK   13  A    between atoms: C_36  and  S_37
REMARK   14  A    between atoms: C_38  and  O_39
REMARK   15  A    between atoms: C_44  and  O_46
REMARK   16  A    between atoms: C_47  and  O_49
REMARK                            x       y       z     vdW  Elec       q    Type
REMARK                         _______ _______ _______ _____ _____    ______ ____
ROOT
ATOM      1  P   UNL     1       3.109  -3.558  25.573  0.00  0.00    +0.483 P 
ATOM      2  O   UNL     1       1.770  -2.811  25.503  0.00  0.00    -0.227 OA
ENDROOT
BRANCH   1   3
ATOM      3  O   UNL     1       4.206  -2.626  24.809  0.00  0.00    -0.302 OA
ATOM      4  H   UNL     1       3.808  -1.936  24.245  0.00  0.00    +0.222 HD
ENDBRANCH   1   3
BRANCH   1   5
ATOM      5  O   UNL     1       2.731  -4.382  24.100  0.00  0.00    -0.186 OA
BRANCH   5   6
ATOM      6  P   UNL     1       3.472  -5.945  24.107  0.00  0.00    +0.483 P 
ATOM      7  O   UNL     1       3.810  -5.815  22.619  0.00  0.00    -0.227 OA
BRANCH   6   8
ATOM      8  O   UNL     1       4.213  -7.508  24.113  0.00  0.00    -0.302 OA
ATOM      9  H   UNL     1       4.255  -7.824  25.031  0.00  0.00    +0.222 HD
ENDBRANCH   6   8
BRANCH   6  10
ATOM     10  O   UNL     1       4.748  -5.355  25.000  0.00  0.00    -0.284 OA
BRANCH  10  11
ATOM     11  C   UNL     1       6.048  -5.613  24.471  0.00  0.00    +0.206 C 
BRANCH  11  15
ATOM     12  C   UNL     1       9.322  -3.940  24.608  0.00  0.00    +0.255 C 
ATOM     13  C   UNL     1       9.385  -4.783  25.899  0.00  0.00    +0.195 C 
ATOM     14  C   UNL     1       7.933  -5.174  26.185  0.00  0.00    +0.178 C 
ATOM     15  C   UNL     1       7.141  -4.658  24.986  0.00  0.00    +0.178 C 
ATOM     16  O   UNL     1       8.082  -4.313  23.962  0.00  0.00    -0.346 OA
BRANCH  12  23
ATOM     17  N   UNL     1       9.855   1.571  24.897  0.00  0.00    -0.343 N 
ATOM     18  H   UNL     1       9.189   2.107  25.438  0.00  0.00    +0.144 HD
ATOM     19  H   UNL     1      10.065   1.974  23.988  0.00  0.00    +0.144 HD
ATOM     20  C   UNL     1       9.705   0.213  24.852  0.00  0.00    +0.123 A 
ATOM     21  C   UNL     1       9.035  -0.481  25.963  0.00  0.00    +0.061 A 
ATOM     22  C   UNL     1       8.888  -1.799  25.830  0.00  0.00    +0.096 A 
ATOM     23  N   UNL     1       9.390  -2.476  24.737  0.00  0.00    -0.270 N 
ATOM     24  C   UNL     1      10.049  -1.777  23.710  0.00  0.00    +0.352 A 
ATOM     25  O   UNL     1      10.535  -2.361  22.745  0.00  0.00    -0.244 OA
ATOM     26  N   UNL     1      10.154  -0.405  23.806  0.00  0.00    -0.178 NA
ENDBRANCH  12  23
BRANCH  14  27
ATOM     27  O   UNL     1       7.473  -4.523  27.379  0.00  0.00    -0.386 OA
ATOM     28  H   UNL     1       7.420  -3.570  27.185  0.00  0.00    +0.210 HD
ENDBRANCH  14  27
BRANCH  13  29
ATOM     29  O   UNL     1      10.174  -5.972  25.702  0.00  0.00    -0.385 OA
ATOM     30  H   UNL     1      10.578  -5.920  24.812  0.00  0.00    +0.210 HD
ENDBRANCH  13  29
ENDBRANCH  11  15
ENDBRANCH  10  11
ENDBRANCH   6  10
ENDBRANCH   5   6
ENDBRANCH   1   5
BRANCH   1  31
ATOM     31  O   UNL     1       3.488  -2.735  27.047  0.00  0.00    -0.282 OA
BRANCH  31  32
ATOM     32  C   UNL     1       2.853  -1.449  27.117  0.00  0.00    +0.222 C 
BRANCH  32  33
ATOM     33  C   UNL     1       3.846  -0.320  27.441  0.00  0.00    +0.238 C 
ATOM     34  C   UNL     1       3.197   1.052  27.598  0.00  0.00    +0.040 C 
ATOM     35  C   UNL     1       3.487   2.065  26.759  0.00  0.00    +0.048 C 
ATOM     36  C   UNL     1       4.465   1.810  25.692  0.00  0.00    +0.140 A 
ATOM     37  C   UNL     1       5.099   0.580  25.612  0.00  0.00    +0.245 A 
ATOM     38  N   UNL     1       6.022   0.298  24.661  0.00  0.00    -0.189 NA
ATOM     39  C   UNL     1       6.331   1.247  23.772  0.00  0.00    +0.190 A 
ATOM     40  N   UNL     1       7.227   0.959  22.832  0.00  0.00    -0.193 NA
ATOM     41  C   UNL     1       7.536   1.909  21.952  0.00  0.00    +0.218 A 
ATOM     42  N   UNL     1       8.432   1.591  20.958  0.00  0.00    -0.327 N 
ATOM     43  H   UNL     1       9.018   0.810  21.221  0.00  0.00    +0.145 HD
ATOM     44  H   UNL     1       8.881   2.419  20.592  0.00  0.00    +0.145 HD
ATOM     45  N   UNL     1       7.054   3.145  21.975  0.00  0.00    -0.178 NA
ATOM     46  C   UNL     1       6.153   3.394  22.933  0.00  0.00    +0.245 A 
ATOM     47  C   UNL     1       5.714   2.494  23.876  0.00  0.00    +0.170 A 
ATOM     48  N   UNL     1       4.772   2.804  24.821  0.00  0.00    -0.232 NA
ATOM     49  O   UNL     1       4.928  -0.428  26.504  0.00  0.00    -0.464 OA
BRANCH  46  50
ATOM     50  O   UNL     1       5.658   4.676  22.941  0.00  0.00    -0.491 OA
ATOM     51  H   UNL     1       4.809   4.627  23.418  0.00  0.00    +0.294 HD
ENDBRANCH  46  50
BRANCH  35  52
ATOM     52  S   UNL     1       2.800   3.662  26.859  0.00  0.00    -0.140 S 
ATOM     53  H   UNL     1       1.787   3.370  27.691  0.00  0.00    +0.107 HD
ENDBRANCH  35  52
BRANCH  34  54
ATOM     54  S   UNL     1       2.120   1.237  28.979  0.00  0.00    -0.142 S 
ATOM     55  H   UNL     1       2.490   2.476  29.347  0.00  0.00    +0.107 HD
ENDBRANCH  34  54
ENDBRANCH  32  33
ENDBRANCH  31  32
ENDBRANCH   1  31
TORSDOF 16
ENDMDL
MODEL 5
REMARK VINA RESULT:      -6.5      2.895      4.959
REMARK  Name = 
REMARK  16 active torsions:
REMARK  status: ('A' for Active; 'I' for Inactive)
REMARK    1  A    between atoms: N_6  and  C_9
REMARK    2  A    between atoms: C_12  and  C_14
REMARK    3  A    between atoms: C_14  and  O_15
REMARK    4  A    between atoms: O_15  and  P_16
REMARK    5  A    between atoms: P_16  and  O_17
REMARK    6  A    between atoms: P_16  and  O_19
REMARK    7  A    between atoms: O_19  and  P_20
REMARK    8  A    between atoms: P_20  and  O_21
REMARK    9  A    between atoms: P_20  and  O_23
REMARK   10  A    between atoms: O_23  and  C_24
REMARK   11  A    between atoms: C_24  and  C_25
REMARK   12  A    between atoms: C_34  and  S_35
REMARK   13  A    between atoms: C_36  and  S_37
REMARK   14  A    between atoms: C_38  and  O_39
REMARK   15  A    between atoms: C_44  and  O_46
REMARK   16  A    between atoms: C_47  and  O_49
REMARK                            x       y       z     vdW  Elec       q    Type
REMARK                         _______ _______ _______ _____ _____    ______ ____
ROOT
ATOM      1  P   UNL     1       9.020   1.470  22.145  0.00  0.00    +0.483 P 
ATOM      2  O   UNL     1       7.885   1.766  21.155  0.00  0.00    -0.227 OA
ENDROOT
BRANCH   1   3
ATOM      3  O   UNL     1      10.335   2.263  21.599  0.00  0.00    -0.302 OA
ATOM      4  H   UNL     1      10.915   1.717  21.035  0.00  0.00    +0.222 HD
ENDBRANCH   1   3
BRANCH   1   5
ATOM      5  O   UNL     1       9.450   0.061  21.238  0.00  0.00    -0.186 OA
BRANCH   5   6
ATOM      6  P   UNL     1       9.829  -1.231  22.325  0.00  0.00    +0.483 P 
ATOM      7  O   UNL     1      10.064  -0.232  23.463  0.00  0.00    -0.227 OA
BRANCH   6   8
ATOM      8  O   UNL     1      10.209  -2.521  23.413  0.00  0.00    -0.302 OA
ATOM      9  H   UNL     1      10.643  -2.144  24.197  0.00  0.00    +0.222 HD
ENDBRANCH   6   8
BRANCH   6  10
ATOM     10  O   UNL     1       8.232  -1.703  22.349  0.00  0.00    -0.284 OA
BRANCH  10  11
ATOM     11  C   UNL     1       7.580  -1.626  23.616  0.00  0.00    +0.206 C 
BRANCH  11  15
ATOM     12  C   UNL     1       7.457  -5.172  24.587  0.00  0.00    +0.255 C 
ATOM     13  C   UNL     1       6.659  -5.217  23.267  0.00  0.00    +0.195 C 
ATOM     14  C   UNL     1       6.262  -3.763  22.998  0.00  0.00    +0.178 C 
ATOM     15  C   UNL     1       6.961  -2.954  24.089  0.00  0.00    +0.178 C 
ATOM     16  O   UNL     1       7.928  -3.810  24.709  0.00  0.00    -0.346 OA
BRANCH  12  23
ATOM     17  N   UNL     1       5.157  -6.717  29.390  0.00  0.00    -0.343 N 
ATOM     18  H   UNL     1       4.149  -6.728  29.477  0.00  0.00    +0.144 HD
ATOM     19  H   UNL     1       5.634  -6.298  30.184  0.00  0.00    +0.144 HD
ATOM     20  C   UNL     1       5.697  -6.342  28.190  0.00  0.00    +0.123 A 
ATOM     21  C   UNL     1       4.921  -6.532  26.954  0.00  0.00    +0.061 A 
ATOM     22  C   UNL     1       5.494  -6.104  25.830  0.00  0.00    +0.096 A 
ATOM     23  N   UNL     1       6.765  -5.568  25.825  0.00  0.00    -0.270 N 
ATOM     24  C   UNL     1       7.483  -5.430  27.026  0.00  0.00    +0.352 A 
ATOM     25  O   UNL     1       8.630  -4.989  27.042  0.00  0.00    -0.244 OA
ATOM     26  N   UNL     1       6.878  -5.813  28.205  0.00  0.00    -0.178 NA
ENDBRANCH  12  23
BRANCH  14  27
ATOM     27  O   UNL     1       4.841  -3.608  23.123  0.00  0.00    -0.386 OA
ATOM     28  H   UNL     1       4.555  -3.003  22.416  0.00  0.00    +0.210 HD
ENDBRANCH  14  27
BRANCH  13  29
ATOM     29  O   UNL     1       7.476  -5.701  22.185  0.00  0.00    -0.385 OA
ATOM     30  H   UNL     1       7.203  -5.234  21.370  0.00  0.00    +0.210 HD
ENDBRANCH  13  29
ENDBRANCH  11  15
ENDBRANCH  10  11
ENDBRANCH   6  10
ENDBRANCH   5   6
ENDBRANCH   1   5
BRANCH   1  31
ATOM     31  O   UNL     1       8.591   2.879  23.052  0.00  0.00    -0.282 OA
BRANCH  31  32
ATOM     32  C   UNL     1       7.533   3.618  22.422  0.00  0.00    +0.222 C 
BRANCH  32  33
ATOM     33  C   UNL     1       6.348   3.871  23.369  0.00  0.00    +0.238 C 
ATOM     34  C   UNL     1       6.719   4.638  24.635  0.00  0.00    +0.040 C 
ATOM     35  C   UNL     1       6.596   4.078  25.855  0.00  0.00    +0.048 C 
ATOM     36  C   UNL     1       6.075   2.706  25.928  0.00  0.00    +0.140 A 
ATOM     37  C   UNL     1       5.674   2.054  24.772  0.00  0.00    +0.245 A 
ATOM     38  N   UNL     1       5.170   0.797  24.783  0.00  0.00    -0.189 NA
ATOM     39  C   UNL     1       5.054   0.168  25.958  0.00  0.00    +0.190 A 
ATOM     40  N   UNL     1       4.571  -1.071  25.961  0.00  0.00    -0.193 NA
ATOM     41  C   UNL     1       4.452  -1.691  27.133  0.00  0.00    +0.218 A 
ATOM     42  N   UNL     1       3.991  -2.988  27.125  0.00  0.00    -0.327 N 
ATOM     43  H   UNL     1       3.461  -3.189  26.289  0.00  0.00    +0.145 HD
ATOM     44  H   UNL     1       3.585  -3.237  28.016  0.00  0.00    +0.145 HD
ATOM     45  N   UNL     1       4.729  -1.143  28.309  0.00  0.00    -0.178 NA
ATOM     46  C   UNL     1       5.215   0.103  28.263  0.00  0.00    +0.245 A 
ATOM     47  C   UNL     1       5.428   0.841  27.121  0.00  0.00    +0.170 A 
ATOM     48  N   UNL     1       5.949   2.107  27.139  0.00  0.00    -0.232 NA
ATOM     49  O   UNL     1       5.668   2.619  23.538  0.00  0.00    -0.464 OA
BRANCH  46  50
ATOM     50  O   UNL     1       5.504   0.656  29.488  0.00  0.00    -0.491 OA
ATOM     51  H   UNL     1       5.210   1.584  29.433  0.00  0.00    +0.294 HD
ENDBRANCH  46  50
BRANCH  35  52
ATOM     52  S   UNL     1       6.991   4.873  27.353  0.00  0.00    -0.140 S 
ATOM     53  H   UNL     1       7.714   5.880  26.837  0.00  0.00    +0.107 HD
ENDBRANCH  35  52
BRANCH  34  54
ATOM     54  S   UNL     1       7.236   6.305  24.399  0.00  0.00    -0.142 S 
ATOM     55  H   UNL     1       6.273   6.685  23.541  0.00  0.00    +0.107 HD
ENDBRANCH  34  54
ENDBRANCH  32  33
ENDBRANCH  31  32
ENDBRANCH   1  31
TORSDOF 16
ENDMDL
MODEL 6
REMARK VINA RESULT:      -6.4      3.145      6.454
REMARK  Name = 
REMARK  16 active torsions:
REMARK  status: ('A' for Active; 'I' for Inactive)
REMARK    1  A    between atoms: N_6  and  C_9
REMARK    2  A    between atoms: C_12  and  C_14
REMARK    3  A    between atoms: C_14  and  O_15
REMARK    4  A    between atoms: O_15  and  P_16
REMARK    5  A    between atoms: P_16  and  O_17
REMARK    6  A    between atoms: P_16  and  O_19
REMARK    7  A    between atoms: O_19  and  P_20
REMARK    8  A    between atoms: P_20  and  O_21
REMARK    9  A    between atoms: P_20  and  O_23
REMARK   10  A    between atoms: O_23  and  C_24
REMARK   11  A    between atoms: C_24  and  C_25
REMARK   12  A    between atoms: C_34  and  S_35
REMARK   13  A    between atoms: C_36  and  S_37
REMARK   14  A    between atoms: C_38  and  O_39
REMARK   15  A    between atoms: C_44  and  O_46
REMARK   16  A    between atoms: C_47  and  O_49
REMARK                            x       y       z     vdW  Elec       q    Type
REMARK                         _______ _______ _______ _____ _____    ______ ____
ROOT
ATOM      1  P   UNL     1       3.890  -0.125  27.356  0.00  0.00    +0.483 P 
ATOM      2  O   UNL     1       4.199   0.541  26.008  0.00  0.00    -0.227 OA
ENDROOT
BRANCH   1   3
ATOM      3  O   UNL     1       5.024  -1.272  27.583  0.00  0.00    -0.302 OA
ATOM      4  H   UNL     1       5.096  -1.903  26.842  0.00  0.00    +0.222 HD
ENDBRANCH   1   3
BRANCH   1   5
ATOM      5  O   UNL     1       2.851  -1.258  26.563  0.00  0.00    -0.186 OA
BRANCH   5   6
ATOM      6  P   UNL     1       1.682  -1.855  27.690  0.00  0.00    +0.483 P 
ATOM      7  O   UNL     1       1.124  -2.815  26.635  0.00  0.00    -0.227 OA
BRANCH   6   8
ATOM      8  O   UNL     1       0.512  -2.452  28.816  0.00  0.00    -0.302 OA
ATOM      9  H   UNL     1       0.237  -1.718  29.391  0.00  0.00    +0.222 HD
ENDBRANCH   6   8
BRANCH   6  10
ATOM     10  O   UNL     1       2.879  -2.636  28.545  0.00  0.00    -0.284 OA
BRANCH  10  11
ATOM     11  C   UNL     1       2.876  -4.060  28.457  0.00  0.00    +0.206 C 
BRANCH  11  15
ATOM     12  C   UNL     1       4.583  -6.559  26.365  0.00  0.00    +0.255 C 
ATOM     13  C   UNL     1       5.610  -6.402  27.506  0.00  0.00    +0.195 C 
ATOM     14  C   UNL     1       5.234  -5.089  28.196  0.00  0.00    +0.178 C 
ATOM     15  C   UNL     1       3.946  -4.637  27.511  0.00  0.00    +0.178 C 
ATOM     16  O   UNL     1       3.452  -5.744  26.748  0.00  0.00    -0.346 OA
BRANCH  12  23
ATOM     17  N   UNL     1       6.060  -5.519  21.123  0.00  0.00    -0.343 N 
ATOM     18  H   UNL     1       6.528  -4.649  20.902  0.00  0.00    +0.144 HD
ATOM     19  H   UNL     1       5.321  -5.766  20.471  0.00  0.00    +0.144 HD
ATOM     20  C   UNL     1       5.717  -5.753  22.426  0.00  0.00    +0.123 A 
ATOM     21  C   UNL     1       6.486  -5.114  23.506  0.00  0.00    +0.061 A 
ATOM     22  C   UNL     1       6.067  -5.356  24.747  0.00  0.00    +0.096 A 
ATOM     23  N   UNL     1       5.008  -6.204  25.002  0.00  0.00    -0.270 N 
ATOM     24  C   UNL     1       4.319  -6.816  23.940  0.00  0.00    +0.352 A 
ATOM     25  O   UNL     1       3.396  -7.602  24.143  0.00  0.00    -0.244 OA
ATOM     26  N   UNL     1       4.703  -6.527  22.647  0.00  0.00    -0.178 NA
ENDBRANCH  12  23
BRANCH  14  27
ATOM     27  O   UNL     1       6.260  -4.109  27.983  0.00  0.00    -0.386 OA
ATOM     28  H   UNL     1       6.722  -4.349  27.161  0.00  0.00    +0.210 HD
ENDBRANCH  14  27
BRANCH  13  29
ATOM     29  O   UNL     1       5.506  -7.488  28.447  0.00  0.00    -0.385 OA
ATOM     30  H   UNL     1       4.829  -8.111  28.114  0.00  0.00    +0.210 HD
ENDBRANCH  13  29
ENDBRANCH  11  15
ENDBRANCH  10  11
ENDBRANCH   6  10
ENDBRANCH   5   6
ENDBRANCH   1   5
BRANCH   1  31
ATOM     31  O   UNL     1       4.928   1.009  28.150  0.00  0.00    -0.282 OA
BRANCH  31  32
ATOM     32  C   UNL     1       5.479   1.963  27.229  0.00  0.00    +0.222 C 
BRANCH  32  33
ATOM     33  C   UNL     1       7.011   1.875  27.138  0.00  0.00    +0.238 C 
ATOM     34  C   UNL     1       7.592   2.461  25.854  0.00  0.00    +0.040 C 
ATOM     35  C   UNL     1       8.252   1.690  24.968  0.00  0.00    +0.048 C 
ATOM     36  C   UNL     1       8.410   0.264  25.286  0.00  0.00    +0.140 A 
ATOM     37  C   UNL     1       7.941  -0.234  26.493  0.00  0.00    +0.245 A 
ATOM     38  N   UNL     1       8.076  -1.534  26.845  0.00  0.00    -0.189 NA
ATOM     39  C   UNL     1       8.690  -2.364  25.995  0.00  0.00    +0.190 A 
ATOM     40  N   UNL     1       8.807  -3.643  26.341  0.00  0.00    -0.193 NA
ATOM     41  C   UNL     1       9.424  -4.464  25.494  0.00  0.00    +0.218 A 
ATOM     42  N   UNL     1       9.504  -5.794  25.839  0.00  0.00    -0.327 N 
ATOM     43  H   UNL     1       9.416  -5.925  26.837  0.00  0.00    +0.145 HD
ATOM     44  H   UNL     1      10.273  -6.247  25.367  0.00  0.00    +0.145 HD
ATOM     45  N   UNL     1       9.980  -4.090  24.349  0.00  0.00    -0.178 NA
ATOM     46  C   UNL     1       9.838  -2.796  24.036  0.00  0.00    +0.245 A 
ATOM     47  C   UNL     1       9.189  -1.852  24.797  0.00  0.00    +0.170 A 
ATOM     48  N   UNL     1       9.059  -0.545  24.410  0.00  0.00    -0.232 NA
ATOM     49  O   UNL     1       7.377   0.526  27.466  0.00  0.00    -0.464 OA
BRANCH  46  50
ATOM     50  O   UNL     1      10.414  -2.424  22.844  0.00  0.00    -0.491 OA
ATOM     51  H   UNL     1      10.701  -1.500  22.969  0.00  0.00    +0.294 HD
ENDBRANCH  46  50
BRANCH  35  52
ATOM     52  S   UNL     1       8.949   2.266  23.480  0.00  0.00    -0.140 S 
ATOM     53  H   UNL     1       7.912   3.017  23.075  0.00  0.00    +0.107 HD
ENDBRANCH  35  52
BRANCH  34  54
ATOM     54  S   UNL     1       7.411   4.201  25.654  0.00  0.00    -0.142 S 
ATOM     55  H   UNL     1       6.119   4.303  26.012  0.00  0.00    +0.107 HD
ENDBRANCH  34  54
ENDBRANCH  32  33
ENDBRANCH  31  32
ENDBRANCH   1  31
TORSDOF 16
ENDMDL
MODEL 7
REMARK VINA RESULT:      -6.3      2.978      5.996
REMARK  Name = 
REMARK  16 active torsions:
REMARK  status: ('A' for Active; 'I' for Inactive)
REMARK    1  A    between atoms: N_6  and  C_9
REMARK    2  A    between atoms: C_12  and  C_14
REMARK    3  A    between atoms: C_14  and  O_15
REMARK    4  A    between atoms: O_15  and  P_16
REMARK    5  A    between atoms: P_16  and  O_17
REMARK    6  A    between atoms: P_16  and  O_19
REMARK    7  A    between atoms: O_19  and  P_20
REMARK    8  A    between atoms: P_20  and  O_21
REMARK    9  A    between atoms: P_20  and  O_23
REMARK   10  A    between atoms: O_23  and  C_24
REMARK   11  A    between atoms: C_24  and  C_25
REMARK   12  A    between atoms: C_34  and  S_35
REMARK   13  A    between atoms: C_36  and  S_37
REMARK   14  A    between atoms: C_38  and  O_39
REMARK   15  A    between atoms: C_44  and  O_46
REMARK   16  A    between atoms: C_47  and  O_49
REMARK                            x       y       z     vdW  Elec       q    Type
REMARK                         _______ _______ _______ _____ _____    ______ ____
ROOT
ATOM      1  P   UNL     1       5.423   1.562  26.137  0.00  0.00    +0.483 P 
ATOM      2  O   UNL     1       5.603   0.431  27.158  0.00  0.00    -0.227 OA
ENDROOT
BRANCH   1   3
ATOM      3  O   UNL     1       5.015   2.894  26.983  0.00  0.00    -0.302 OA
ATOM      4  H   UNL     1       4.153   3.273  26.725  0.00  0.00    +0.222 HD
ENDBRANCH   1   3
BRANCH   1   5
ATOM      5  O   UNL     1       3.759   1.131  25.946  0.00  0.00    -0.186 OA
BRANCH   5   6
ATOM      6  P   UNL     1       3.148   0.513  27.442  0.00  0.00    +0.483 P 
ATOM      7  O   UNL     1       2.484   1.858  27.751  0.00  0.00    -0.227 OA
BRANCH   6   8
ATOM      8  O   UNL     1       2.537  -0.105  28.938  0.00  0.00    -0.302 OA
ATOM      9  H   UNL     1       2.083   0.617  29.405  0.00  0.00    +0.222 HD
ENDBRANCH   6   8
BRANCH   6  10
ATOM     10  O   UNL     1       2.060  -0.446  26.621  0.00  0.00    -0.284 OA
BRANCH  10  11
ATOM     11  C   UNL     1       1.959  -1.795  27.072  0.00  0.00    +0.206 C 
BRANCH  11  15
ATOM     12  C   UNL     1       3.449  -4.931  25.854  0.00  0.00    +0.255 C 
ATOM     13  C   UNL     1       4.246  -4.733  27.161  0.00  0.00    +0.195 C 
ATOM     14  C   UNL     1       4.040  -3.261  27.527  0.00  0.00    +0.178 C 
ATOM     15  C   UNL     1       3.039  -2.735  26.501  0.00  0.00    +0.178 C 
ATOM     16  O   UNL     1       2.471  -3.867  25.832  0.00  0.00    -0.346 OA
BRANCH  12  23
ATOM     17  N   UNL     1       6.410  -5.261  21.178  0.00  0.00    -0.343 N 
ATOM     18  H   UNL     1       6.310  -4.541  20.475  0.00  0.00    +0.144 HD
ATOM     19  H   UNL     1       6.411  -6.205  20.803  0.00  0.00    +0.144 HD
ATOM     20  C   UNL     1       5.676  -5.148  22.326  0.00  0.00    +0.123 A 
ATOM     21  C   UNL     1       5.250  -3.817  22.788  0.00  0.00    +0.061 A 
ATOM     22  C   UNL     1       4.502  -3.790  23.891  0.00  0.00    +0.096 A 
ATOM     23  N   UNL     1       4.196  -4.942  24.586  0.00  0.00    -0.270 N 
ATOM     24  C   UNL     1       4.647  -6.191  24.124  0.00  0.00    +0.352 A 
ATOM     25  O   UNL     1       4.418  -7.226  24.745  0.00  0.00    -0.244 OA
ATOM     26  N   UNL     1       5.371  -6.241  22.951  0.00  0.00    -0.178 NA
ENDBRANCH  12  23
BRANCH  14  27
ATOM     27  O   UNL     1       5.277  -2.544  27.401  0.00  0.00    -0.386 OA
ATOM     28  H   UNL     1       5.581  -2.654  26.483  0.00  0.00    +0.210 HD
ENDBRANCH  14  27
BRANCH  13  29
ATOM     29  O   UNL     1       3.728  -5.568  28.214  0.00  0.00    -0.385 OA
ATOM     30  H   UNL     1       2.928  -6.019  27.875  0.00  0.00    +0.210 HD
ENDBRANCH  13  29
ENDBRANCH  11  15
ENDBRANCH  10  11
ENDBRANCH   6  10
ENDBRANCH   5   6
ENDBRANCH   1   5
BRANCH   1  31
ATOM     31  O   UNL     1       7.087   1.994  26.328  0.00  0.00    -0.282 OA
BRANCH  31  32
ATOM     32  C   UNL     1       7.757   2.108  25.063  0.00  0.00    +0.222 C 
BRANCH  32  33
ATOM     33  C   UNL     1       8.972   1.172  24.955  0.00  0.00    +0.238 C 
ATOM     34  C   UNL     1       9.277   0.714  23.531  0.00  0.00    +0.040 C 
ATOM     35  C   UNL     1       9.199  -0.585  23.181  0.00  0.00    +0.048 C 
ATOM     36  C   UNL     1       8.825  -1.552  24.222  0.00  0.00    +0.140 A 
ATOM     37  C   UNL     1       8.624  -1.126  25.526  0.00  0.00    +0.245 A 
ATOM     38  N   UNL     1       8.296  -1.977  26.527  0.00  0.00    -0.189 NA
ATOM     39  C   UNL     1       8.166  -3.276  26.241  0.00  0.00    +0.190 A 
ATOM     40  N   UNL     1       7.830  -4.105  27.226  0.00  0.00    -0.193 NA
ATOM     41  C   UNL     1       7.707  -5.399  26.938  0.00  0.00    +0.218 A 
ATOM     42  N   UNL     1       7.318  -6.244  27.952  0.00  0.00    -0.327 N 
ATOM     43  H   UNL     1       7.524  -5.853  28.861  0.00  0.00    +0.145 HD
ATOM     44  H   UNL     1       7.608  -7.194  27.767  0.00  0.00    +0.145 HD
ATOM     45  N   UNL     1       7.949  -5.935  25.748  0.00  0.00    -0.178 NA
ATOM     46  C   UNL     1       8.281  -5.067  24.784  0.00  0.00    +0.245 A 
ATOM     47  C   UNL     1       8.401  -3.705  24.935  0.00  0.00    +0.170 A 
ATOM     48  N   UNL     1       8.724  -2.867  23.901  0.00  0.00    -0.232 NA
ATOM     49  O   UNL     1       8.807   0.151  25.950  0.00  0.00    -0.464 OA
BRANCH  46  50
ATOM     50  O   UNL     1       8.522  -5.635  23.555  0.00  0.00    -0.491 OA
ATOM     51  H   UNL     1       7.947  -6.421  23.512  0.00  0.00    +0.294 HD
ENDBRANCH  46  50
BRANCH  35  52
ATOM     52  S   UNL     1       9.530  -1.202  21.586  0.00  0.00    -0.140 S 
ATOM     53  H   UNL     1      10.702  -0.575  21.391  0.00  0.00    +0.107 HD
ENDBRANCH  35  52
BRANCH  34  54
ATOM     54  S   UNL     1       9.807   1.971  22.418  0.00  0.00    -0.142 S 
ATOM     55  H   UNL     1       8.662   2.116  21.730  0.00  0.00    +0.107 HD
ENDBRANCH  34  54
ENDBRANCH  32  33
ENDBRANCH  31  32
ENDBRANCH   1  31
TORSDOF 16
ENDMDL
MODEL 8
REMARK VINA RESULT:      -6.3      2.249      4.348
REMARK  Name = 
REMARK  16 active torsions:
REMARK  status: ('A' for Active; 'I' for Inactive)
REMARK    1  A    between atoms: N_6  and  C_9
REMARK    2  A    between atoms: C_12  and  C_14
REMARK    3  A    between atoms: C_14  and  O_15
REMARK    4  A    between atoms: O_15  and  P_16
REMARK    5  A    between atoms: P_16  and  O_17
REMARK    6  A    between atoms: P_16  and  O_19
REMARK    7  A    between atoms: O_19  and  P_20
REMARK    8  A    between atoms: P_20  and  O_21
REMARK    9  A    between atoms: P_20  and  O_23
REMARK   10  A    between atoms: O_23  and  C_24
REMARK   11  A    between atoms: C_24  and  C_25
REMARK   12  A    between atoms: C_34  and  S_35
REMARK   13  A    between atoms: C_36  and  S_37
REMARK   14  A    between atoms: C_38  and  O_39
REMARK   15  A    between atoms: C_44  and  O_46
REMARK   16  A    between atoms: C_47  and  O_49
REMARK                            x       y       z     vdW  Elec       q    Type
REMARK                         _______ _______ _______ _____ _____    ______ ____
ROOT
ATOM      1  P   UNL     1       8.615   1.213  23.607  0.00  0.00    +0.483 P 
ATOM      2  O   UNL     1       7.551   1.955  22.788  0.00  0.00    -0.227 OA
ENDROOT
BRANCH   1   3
ATOM      3  O   UNL     1       9.945   2.154  23.608  0.00  0.00    -0.302 OA
ATOM      4  H   UNL     1      10.285   2.353  22.715  0.00  0.00    +0.222 HD
ENDBRANCH   1   3
BRANCH   1   5
ATOM      5  O   UNL     1       9.151   0.396  22.180  0.00  0.00    -0.186 OA
BRANCH   5   6
ATOM      6  P   UNL     1       9.862  -1.120  22.616  0.00  0.00    +0.483 P 
ATOM      7  O   UNL     1      10.186  -0.589  24.016  0.00  0.00    -0.227 OA
BRANCH   6   8
ATOM      8  O   UNL     1      10.573  -2.635  23.052  0.00  0.00    -0.302 OA
ATOM      9  H   UNL     1       9.861  -3.245  23.310  0.00  0.00    +0.222 HD
ENDBRANCH   6   8
BRANCH   6  10
ATOM     10  O   UNL     1       8.358  -1.835  22.649  0.00  0.00    -0.284 OA
BRANCH  10  11
ATOM     11  C   UNL     1       8.306  -3.145  23.211  0.00  0.00    +0.206 C 
BRANCH  11  15
ATOM     12  C   UNL     1       5.694  -5.638  23.919  0.00  0.00    +0.255 C 
ATOM     13  C   UNL     1       5.645  -5.613  22.377  0.00  0.00    +0.195 C 
ATOM     14  C   UNL     1       6.355  -4.317  21.982  0.00  0.00    +0.178 C 
ATOM     15  C   UNL     1       6.888  -3.742  23.293  0.00  0.00    +0.178 C 
ATOM     16  O   UNL     1       6.791  -4.770  24.286  0.00  0.00    -0.346 OA
BRANCH  12  23
ATOM     17  N   UNL     1       1.054  -4.467  26.718  0.00  0.00    -0.343 N 
ATOM     18  H   UNL     1       0.811  -3.502  26.897  0.00  0.00    +0.144 HD
ATOM     19  H   UNL     1       0.940  -5.076  27.524  0.00  0.00    +0.144 HD
ATOM     20  C   UNL     1       2.198  -4.726  26.016  0.00  0.00    +0.123 A 
ATOM     21  C   UNL     1       2.714  -3.722  25.072  0.00  0.00    +0.061 A 
ATOM     22  C   UNL     1       3.856  -4.027  24.456  0.00  0.00    +0.096 A 
ATOM     23  N   UNL     1       4.483  -5.240  24.654  0.00  0.00    -0.270 N 
ATOM     24  C   UNL     1       3.940  -6.183  25.545  0.00  0.00    +0.352 A 
ATOM     25  O   UNL     1       4.461  -7.283  25.710  0.00  0.00    -0.244 OA
ATOM     26  N   UNL     1       2.791  -5.856  26.235  0.00  0.00    -0.178 NA
ENDBRANCH  12  23
BRANCH  14  27
ATOM     27  O   UNL     1       5.418  -3.398  21.402  0.00  0.00    -0.386 OA
ATOM     28  H   UNL     1       5.172  -2.761  22.095  0.00  0.00    +0.210 HD
ENDBRANCH  14  27
BRANCH  13  29
ATOM     29  O   UNL     1       6.351  -6.738  21.819  0.00  0.00    -0.385 OA
ATOM     30  H   UNL     1       6.004  -6.895  20.918  0.00  0.00    +0.210 HD
ENDBRANCH  13  29
ENDBRANCH  11  15
ENDBRANCH  10  11
ENDBRANCH   6  10
ENDBRANCH   5   6
ENDBRANCH   1   5
BRANCH   1  31
ATOM     31  O   UNL     1       8.080   2.030  25.035  0.00  0.00    -0.282 OA
BRANCH  31  32
ATOM     32  C   UNL     1       7.613   1.109  26.033  0.00  0.00    +0.222 C 
BRANCH  32  33
ATOM     33  C   UNL     1       6.456   0.231  25.526  0.00  0.00    +0.238 C 
ATOM     34  C   UNL     1       5.083   0.658  26.039  0.00  0.00    +0.040 C 
ATOM     35  C   UNL     1       4.348  -0.150  26.829  0.00  0.00    +0.048 C 
ATOM     36  C   UNL     1       4.905  -1.466  27.168  0.00  0.00    +0.140 A 
ATOM     37  C   UNL     1       6.120  -1.865  26.631  0.00  0.00    +0.245 A 
ATOM     38  N   UNL     1       6.671  -3.073  26.896  0.00  0.00    -0.189 NA
ATOM     39  C   UNL     1       6.011  -3.911  27.702  0.00  0.00    +0.190 A 
ATOM     40  N   UNL     1       6.564  -5.091  27.969  0.00  0.00    -0.193 NA
ATOM     41  C   UNL     1       5.901  -5.925  28.768  0.00  0.00    +0.218 A 
ATOM     42  N   UNL     1       6.497  -7.126  29.073  0.00  0.00    -0.327 N 
ATOM     43  H   UNL     1       7.184  -7.387  28.379  0.00  0.00    +0.145 HD
ATOM     44  H   UNL     1       5.812  -7.816  29.345  0.00  0.00    +0.145 HD
ATOM     45  N   UNL     1       4.699  -5.687  29.277  0.00  0.00    -0.178 NA
ATOM     46  C   UNL     1       4.179  -4.487  28.988  0.00  0.00    +0.245 A 
ATOM     47  C   UNL     1       4.774  -3.519  28.213  0.00  0.00    +0.170 A 
ATOM     48  N   UNL     1       4.197  -2.300  27.971  0.00  0.00    -0.232 NA
ATOM     49  O   UNL     1       6.838  -1.136  25.739  0.00  0.00    -0.464 OA
BRANCH  46  50
ATOM     50  O   UNL     1       2.936  -4.252  29.527  0.00  0.00    -0.491 OA
ATOM     51  H   UNL     1       3.080  -4.153  30.486  0.00  0.00    +0.294 HD
ENDBRANCH  46  50
BRANCH  35  52
ATOM     52  S   UNL     1       2.774   0.247  27.460  0.00  0.00    -0.140 S 
ATOM     53  H   UNL     1       3.125   0.372  28.750  0.00  0.00    +0.107 HD
ENDBRANCH  35  52
BRANCH  34  54
ATOM     54  S   UNL     1       4.503   2.220  25.471  0.00  0.00    -0.142 S 
ATOM     55  H   UNL     1       5.055   2.197  24.246  0.00  0.00    +0.107 HD
ENDBRANCH  34  54
ENDBRANCH  32  33
ENDBRANCH  31  32
ENDBRANCH   1  31
TORSDOF 16
ENDMDL
MODEL 9
REMARK VINA RESULT:      -6.1      3.219      5.913
REMARK  Name = 
REMARK  16 active torsions:
REMARK  status: ('A' for Active; 'I' for Inactive)
REMARK    1  A    between atoms: N_6  and  C_9
REMARK    2  A    between atoms: C_12  and  C_14
REMARK    3  A    between atoms: C_14  and  O_15
REMARK    4  A    between atoms: O_15  and  P_16
REMARK    5  A    between atoms: P_16  and  O_17
REMARK    6  A    between atoms: P_16  and  O_19
REMARK    7  A    between atoms: O_19  and  P_20
REMARK    8  A    between atoms: P_20  and  O_21
REMARK    9  A    between atoms: P_20  and  O_23
REMARK   10  A    between atoms: O_23  and  C_24
REMARK   11  A    between atoms: C_24  and  C_25
REMARK   12  A    between atoms: C_34  and  S_35
REMARK   13  A    between atoms: C_36  and  S_37
REMARK   14  A    between atoms: C_38  and  O_39
REMARK   15  A    between atoms: C_44  and  O_46
REMARK   16  A    between atoms: C_47  and  O_49
REMARK                            x       y       z     vdW  Elec       q    Type
REMARK                         _______ _______ _______ _____ _____    ______ ____
ROOT
ATOM      1  P   UNL     1       2.998  -5.677  23.802  0.00  0.00    +0.483 P 
ATOM      2  O   UNL     1       3.965  -6.868  23.783  0.00  0.00    -0.227 OA
ENDROOT
BRANCH   1   3
ATOM      3  O   UNL     1       1.834  -6.002  22.709  0.00  0.00    -0.302 OA
ATOM      4  H   UNL     1       2.180  -6.262  21.834  0.00  0.00    +0.222 HD
ENDBRANCH   1   3
BRANCH   1   5
ATOM      5  O   UNL     1       3.951  -4.877  22.601  0.00  0.00    -0.186 OA
BRANCH   5   6
ATOM      6  P   UNL     1       5.589  -5.425  22.707  0.00  0.00    +0.483 P 
ATOM      7  O   UNL     1       5.654  -5.589  21.185  0.00  0.00    -0.227 OA
BRANCH   6   8
ATOM      8  O   UNL     1       7.227  -5.973  22.811  0.00  0.00    -0.302 OA
ATOM      9  H   UNL     1       7.406  -6.551  22.050  0.00  0.00    +0.222 HD
ENDBRANCH   6   8
BRANCH   6  10
ATOM     10  O   UNL     1       6.096  -3.888  23.102  0.00  0.00    -0.284 OA
BRANCH  10  11
ATOM     11  C   UNL     1       7.402  -3.531  22.655  0.00  0.00    +0.206 C 
BRANCH  11  15
ATOM     12  C   UNL     1       7.904   0.114  22.680  0.00  0.00    +0.255 C 
ATOM     13  C   UNL     1       9.350  -0.365  22.437  0.00  0.00    +0.195 C 
ATOM     14  C   UNL     1       9.350  -1.840  22.844  0.00  0.00    +0.178 C 
ATOM     15  C   UNL     1       7.892  -2.162  23.164  0.00  0.00    +0.178 C 
ATOM     16  O   UNL     1       7.092  -1.083  22.665  0.00  0.00    -0.346 OA
BRANCH  12  23
ATOM     17  N   UNL     1       7.191   3.103  27.295  0.00  0.00    -0.343 N 
ATOM     18  H   UNL     1       6.280   3.130  27.734  0.00  0.00    +0.144 HD
ATOM     19  H   UNL     1       7.640   4.012  27.224  0.00  0.00    +0.144 HD
ATOM     20  C   UNL     1       7.340   2.349  26.164  0.00  0.00    +0.123 A 
ATOM     21  C   UNL     1       6.456   1.195  25.939  0.00  0.00    +0.061 A 
ATOM     22  C   UNL     1       6.633   0.533  24.795  0.00  0.00    +0.096 A 
ATOM     23  N   UNL     1       7.628   0.882  23.905  0.00  0.00    -0.270 N 
ATOM     24  C   UNL     1       8.469   1.976  24.173  0.00  0.00    +0.352 A 
ATOM     25  O   UNL     1       9.385   2.283  23.413  0.00  0.00    -0.244 OA
ATOM     26  N   UNL     1       8.259   2.706  25.323  0.00  0.00    -0.178 NA
ENDBRANCH  12  23
BRANCH  14  27
ATOM     27  O   UNL     1      10.151  -2.028  24.020  0.00  0.00    -0.386 OA
ATOM     28  H   UNL     1      10.602  -1.183  24.198  0.00  0.00    +0.210 HD
ENDBRANCH  14  27
BRANCH  13  29
ATOM     29  O   UNL     1       9.706  -0.249  21.046  0.00  0.00    -0.385 OA
ATOM     30  H   UNL     1      10.561   0.223  20.993  0.00  0.00    +0.210 HD
ENDBRANCH  13  29
ENDBRANCH  11  15
ENDBRANCH  10  11
ENDBRANCH   6  10
ENDBRANCH   5   6
ENDBRANCH   1   5
BRANCH   1  31
ATOM     31  O   UNL     1       2.043  -6.477  25.004  0.00  0.00    -0.282 OA
BRANCH  31  32
ATOM     32  C   UNL     1       1.360  -5.541  25.851  0.00  0.00    +0.222 C 
BRANCH  32  33
ATOM     33  C   UNL     1       2.192  -5.145  27.082  0.00  0.00    +0.238 C 
ATOM     34  C   UNL     1       2.185  -3.649  27.381  0.00  0.00    +0.040 C 
ATOM     35  C   UNL     1       3.315  -2.917  27.323  0.00  0.00    +0.048 C 
ATOM     36  C   UNL     1       4.562  -3.612  26.977  0.00  0.00    +0.140 A 
ATOM     37  C   UNL     1       4.561  -4.985  26.782  0.00  0.00    +0.245 A 
ATOM     38  N   UNL     1       5.684  -5.678  26.480  0.00  0.00    -0.189 NA
ATOM     39  C   UNL     1       6.836  -5.007  26.371  0.00  0.00    +0.190 A 
ATOM     40  N   UNL     1       7.934  -5.691  26.061  0.00  0.00    -0.193 NA
ATOM     41  C   UNL     1       9.079  -5.021  25.959  0.00  0.00    +0.218 A 
ATOM     42  N   UNL     1      10.203  -5.728  25.596  0.00  0.00    -0.327 N 
ATOM     43  H   UNL     1      10.106  -6.712  25.804  0.00  0.00    +0.145 HD
ATOM     44  H   UNL     1      11.043  -5.259  25.901  0.00  0.00    +0.145 HD
ATOM     45  N   UNL     1       9.219  -3.723  26.198  0.00  0.00    -0.178 NA
ATOM     46  C   UNL     1       8.091  -3.070  26.504  0.00  0.00    +0.245 A 
ATOM     47  C   UNL     1       6.839  -3.631  26.601  0.00  0.00    +0.170 A 
ATOM     48  N   UNL     1       5.717  -2.903  26.898  0.00  0.00    -0.232 NA
ATOM     49  O   UNL     1       3.473  -5.779  26.946  0.00  0.00    -0.464 OA
BRANCH  46  50
ATOM     50  O   UNL     1       8.249  -1.726  26.744  0.00  0.00    -0.491 OA
ATOM     51  H   UNL     1       7.758  -1.546  27.566  0.00  0.00    +0.294 HD
ENDBRANCH  46  50
BRANCH  35  52
ATOM     52  S   UNL     1       3.406  -1.208  27.649  0.00  0.00    -0.140 S 
ATOM     53  H   UNL     1       4.624  -1.198  28.214  0.00  0.00    +0.107 HD
ENDBRANCH  35  52
BRANCH  34  54
ATOM     54  S   UNL     1       0.636  -2.973  27.876  0.00  0.00    -0.142 S 
ATOM     55  H   UNL     1       0.091  -4.092  28.384  0.00  0.00    +0.107 HD
ENDBRANCH  34  54
ENDBRANCH  32  33
ENDBRANCH  31  32
ENDBRANCH   1  31
TORSDOF 16
ENDMDL
