MODEL 1
REMARK VINA RESULT:      -5.5      0.000      0.000
REMARK  Name = 
REMARK  5 active torsions:
REMARK  status: ('A' for Active; 'I' for Inactive)
REMARK    1  A    between atoms: C_1  and  N_2
REMARK    2  A    between atoms: C_4  and  S_11
REMARK    3  A    between atoms: N_7  and  C_8
REMARK    4  A    between atoms: C_8  and  C_9
REMARK    5  A    between atoms: S_11  and  N_12
REMARK                            x       y       z     vdW  Elec       q    Type
REMARK                         _______ _______ _______ _____ _____    ______ ____
ROOT
ATOM      1  C   UNL     1       6.016  -3.336  21.869  0.00  0.00    +0.175 C 
ATOM      2  N   UNL     1       7.076  -3.339  22.857  0.00  0.00    -0.244 N 
ATOM      3  C   UNL     1       8.197  -2.534  22.765  0.00  0.00    +0.185 A 
ATOM      4  N   UNL     1       8.594  -1.877  21.719  0.00  0.00    -0.155 NA
ATOM      5  S   UNL     1       9.044  -2.629  24.299  0.00  0.00    -0.011 S 
ATOM      6  C   UNL     1       8.023  -4.003  24.693  0.00  0.00    +0.254 A 
ATOM      7  N   UNL     1       7.016  -4.250  23.897  0.00  0.00    -0.142 NA
ENDROOT
BRANCH   4   8
ATOM      8  C   UNL     1       9.725  -1.108  21.817  0.00  0.00    +0.235 C 
ATOM      9  O   UNL     1      10.831  -1.550  22.112  0.00  0.00    -0.274 OA
ATOM     10  C   UNL     1       9.524   0.370  21.613  0.00  0.00    +0.111 C 
ENDBRANCH   4   8
BRANCH   6  11
ATOM     11  S   UNL     1       8.416  -5.077  26.063  0.00  0.00    +0.081 S 
ATOM     12  O   UNL     1       7.258  -5.913  26.284  0.00  0.00    -0.151 OA
ATOM     13  O   UNL     1       8.981  -4.224  27.084  0.00  0.00    -0.151 OA
BRANCH  11  14
ATOM     14  N   UNL     1       9.676  -6.094  25.574  0.00  0.00    -0.202 NA
ATOM     15  H   UNL     1       9.430  -6.653  24.759  0.00  0.00    +0.144 HD
ATOM     16  H   UNL     1      10.566  -5.601  25.503  0.00  0.00    +0.144 HD
ENDBRANCH  11  14
ENDBRANCH   6  11
TORSDOF 3
ENDMDL
MODEL 2
REMARK VINA RESULT:      -5.5      4.190      6.404
REMARK  Name = 
REMARK  5 active torsions:
REMARK  status: ('A' for Active; 'I' for Inactive)
REMARK    1  A    between atoms: C_1  and  N_2
REMARK    2  A    between atoms: C_4  and  S_11
REMARK    3  A    between atoms: N_7  and  C_8
REMARK    4  A    between atoms: C_8  and  C_9
REMARK    5  A    between atoms: S_11  and  N_12
REMARK                            x       y       z     vdW  Elec       q    Type
REMARK                         _______ _______ _______ _____ _____    ______ ____
ROOT
ATOM      1  C   UNL     1       9.152  -4.543  26.205  0.00  0.00    +0.175 C 
ATOM      2  N   UNL     1       7.829  -4.986  25.810  0.00  0.00    -0.244 N 
ATOM      3  C   UNL     1       6.902  -5.490  26.703  0.00  0.00    +0.185 A 
ATOM      4  N   UNL     1       7.130  -5.874  27.921  0.00  0.00    -0.155 NA
ATOM      5  S   UNL     1       5.365  -5.601  25.864  0.00  0.00    -0.011 S 
ATOM      6  C   UNL     1       6.248  -5.341  24.368  0.00  0.00    +0.254 A 
ATOM      7  N   UNL     1       7.503  -4.990  24.465  0.00  0.00    -0.142 NA
ENDROOT
BRANCH   4   8
ATOM      8  C   UNL     1       6.079  -6.331  28.673  0.00  0.00    +0.235 C 
ATOM      9  O   UNL     1       5.674  -7.488  28.655  0.00  0.00    -0.274 OA
ATOM     10  C   UNL     1       5.371  -5.288  29.497  0.00  0.00    +0.111 C 
ENDBRANCH   4   8
BRANCH   6  11
ATOM     11  S   UNL     1       5.484  -5.652  22.785  0.00  0.00    +0.081 S 
ATOM     12  O   UNL     1       6.423  -6.436  22.016  0.00  0.00    -0.151 OA
ATOM     13  O   UNL     1       4.967  -4.377  22.339  0.00  0.00    -0.151 OA
BRANCH  11  14
ATOM     14  N   UNL     1       4.126  -6.624  23.051  0.00  0.00    -0.202 NA
ATOM     15  H   UNL     1       3.742  -6.507  23.987  0.00  0.00    +0.144 HD
ATOM     16  H   UNL     1       3.445  -6.553  22.296  0.00  0.00    +0.144 HD
ENDBRANCH  11  14
ENDBRANCH   6  11
TORSDOF 3
ENDMDL
MODEL 3
REMARK VINA RESULT:      -5.4      2.893      5.138
REMARK  Name = 
REMARK  5 active torsions:
REMARK  status: ('A' for Active; 'I' for Inactive)
REMARK    1  A    between atoms: C_1  and  N_2
REMARK    2  A    between atoms: C_4  and  S_11
REMARK    3  A    between atoms: N_7  and  C_8
REMARK    4  A    between atoms: C_8  and  C_9
REMARK    5  A    between atoms: S_11  and  N_12
REMARK                            x       y       z     vdW  Elec       q    Type
REMARK                         _______ _______ _______ _____ _____    ______ ____
ROOT
ATOM      1  C   UNL     1       9.052  -5.270  25.089  0.00  0.00    +0.175 C 
ATOM      2  N   UNL     1       8.585  -4.235  24.188  0.00  0.00    -0.244 N 
ATOM      3  C   UNL     1       7.512  -4.406  23.333  0.00  0.00    +0.185 A 
ATOM      4  N   UNL     1       6.943  -5.529  23.020  0.00  0.00    -0.155 NA
ATOM      5  S   UNL     1       7.106  -2.832  22.672  0.00  0.00    -0.011 S 
ATOM      6  C   UNL     1       8.638  -2.253  23.308  0.00  0.00    +0.254 A 
ATOM      7  N   UNL     1       9.294  -3.049  24.110  0.00  0.00    -0.142 NA
ENDROOT
BRANCH   4   8
ATOM      8  C   UNL     1       5.870  -5.506  22.166  0.00  0.00    +0.235 C 
ATOM      9  O   UNL     1       4.716  -5.288  22.519  0.00  0.00    -0.274 OA
ATOM     10  C   UNL     1       6.177  -5.846  20.732  0.00  0.00    +0.111 C 
ENDBRANCH   4   8
BRANCH   6  11
ATOM     11  S   UNL     1       9.315  -0.685  22.789  0.00  0.00    +0.081 S 
ATOM     12  O   UNL     1      10.513  -0.469  23.567  0.00  0.00    -0.151 OA
ATOM     13  O   UNL     1       8.204   0.240  22.775  0.00  0.00    -0.151 OA
BRANCH  11  14
ATOM     14  N   UNL     1       9.794  -0.841  21.174  0.00  0.00    -0.202 NA
ATOM     15  H   UNL     1      10.695  -1.307  21.080  0.00  0.00    +0.144 HD
ATOM     16  H   UNL     1       9.053  -1.219  20.585  0.00  0.00    +0.144 HD
ENDBRANCH  11  14
ENDBRANCH   6  11
TORSDOF 3
ENDMDL
MODEL 4
REMARK VINA RESULT:      -5.3      2.675      3.535
REMARK  Name = 
REMARK  5 active torsions:
REMARK  status: ('A' for Active; 'I' for Inactive)
REMARK    1  A    between atoms: C_1  and  N_2
REMARK    2  A    between atoms: C_4  and  S_11
REMARK    3  A    between atoms: N_7  and  C_8
REMARK    4  A    between atoms: C_8  and  C_9
REMARK    5  A    between atoms: S_11  and  N_12
REMARK                            x       y       z     vdW  Elec       q    Type
REMARK                         _______ _______ _______ _____ _____    ______ ____
ROOT
ATOM      1  C   UNL     1       8.981  -4.548  26.333  0.00  0.00    +0.175 C 
ATOM      2  N   UNL     1       8.304  -4.411  25.059  0.00  0.00    -0.244 N 
ATOM      3  C   UNL     1       8.668  -3.478  24.106  0.00  0.00    +0.185 A 
ATOM      4  N   UNL     1       9.454  -2.460  24.280  0.00  0.00    -0.155 NA
ATOM      5  S   UNL     1       7.805  -3.867  22.629  0.00  0.00    -0.011 S 
ATOM      6  C   UNL     1       6.806  -4.950  23.585  0.00  0.00    +0.254 A 
ATOM      7  N   UNL     1       7.183  -5.185  24.814  0.00  0.00    -0.142 NA
ENDROOT
BRANCH   4   8
ATOM      8  C   UNL     1       9.721  -1.647  23.208  0.00  0.00    +0.235 C 
ATOM      9  O   UNL     1      10.568  -1.892  22.356  0.00  0.00    -0.274 OA
ATOM     10  C   UNL     1       8.949  -0.356  23.167  0.00  0.00    +0.111 C 
ENDBRANCH   4   8
BRANCH   6  11
ATOM     11  S   UNL     1       5.282  -5.610  22.933  0.00  0.00    +0.081 S 
ATOM     12  O   UNL     1       4.441  -4.480  22.611  0.00  0.00    -0.151 OA
ATOM     13  O   UNL     1       4.882  -6.657  23.846  0.00  0.00    -0.151 OA
BRANCH  11  14
ATOM     14  N   UNL     1       5.641  -6.392  21.477  0.00  0.00    -0.202 NA
ATOM     15  H   UNL     1       6.611  -6.700  21.430  0.00  0.00    +0.144 HD
ATOM     16  H   UNL     1       4.953  -7.106  21.240  0.00  0.00    +0.144 HD
ENDBRANCH  11  14
ENDBRANCH   6  11
TORSDOF 3
ENDMDL
MODEL 5
REMARK VINA RESULT:      -5.3      2.083      5.119
REMARK  Name = 
REMARK  5 active torsions:
REMARK  status: ('A' for Active; 'I' for Inactive)
REMARK    1  A    between atoms: C_1  and  N_2
REMARK    2  A    between atoms: C_4  and  S_11
REMARK    3  A    between atoms: N_7  and  C_8
REMARK    4  A    between atoms: C_8  and  C_9
REMARK    5  A    between atoms: S_11  and  N_12
REMARK                            x       y       z     vdW  Elec       q    Type
REMARK                         _______ _______ _______ _____ _____    ______ ____
ROOT
ATOM      1  C   UNL     1       6.627  -5.728  22.599  0.00  0.00    +0.175 C 
ATOM      2  N   UNL     1       7.305  -4.682  23.339  0.00  0.00    -0.244 N 
ATOM      3  C   UNL     1       7.343  -4.636  24.720  0.00  0.00    +0.185 A 
ATOM      4  N   UNL     1       6.608  -5.324  25.538  0.00  0.00    -0.155 NA
ATOM      5  S   UNL     1       8.510  -3.407  25.176  0.00  0.00    -0.011 S 
ATOM      6  C   UNL     1       8.487  -2.870  23.504  0.00  0.00    +0.254 A 
ATOM      7  N   UNL     1       7.867  -3.628  22.639  0.00  0.00    -0.142 NA
ENDROOT
BRANCH   4   8
ATOM      8  C   UNL     1       6.799  -5.163  26.887  0.00  0.00    +0.235 C 
ATOM      9  O   UNL     1       7.642  -5.770  27.538  0.00  0.00    -0.274 OA
ATOM     10  C   UNL     1       5.839  -4.225  27.569  0.00  0.00    +0.111 C 
ENDBRANCH   4   8
BRANCH   6  11
ATOM     11  S   UNL     1       9.189  -1.298  23.034  0.00  0.00    +0.081 S 
ATOM     12  O   UNL     1      10.115  -0.925  24.079  0.00  0.00    -0.151 OA
ATOM     13  O   UNL     1       8.072  -0.470  22.635  0.00  0.00    -0.151 OA
BRANCH  11  14
ATOM     14  N   UNL     1      10.098  -1.540  21.629  0.00  0.00    -0.202 NA
ATOM     15  H   UNL     1       9.618  -1.208  20.794  0.00  0.00    +0.144 HD
ATOM     16  H   UNL     1      11.059  -1.214  21.728  0.00  0.00    +0.144 HD
ENDBRANCH  11  14
ENDBRANCH   6  11
TORSDOF 3
ENDMDL
MODEL 6
REMARK VINA RESULT:      -5.2      3.733      4.519
REMARK  Name = 
REMARK  5 active torsions:
REMARK  status: ('A' for Active; 'I' for Inactive)
REMARK    1  A    between atoms: C_1  and  N_2
REMARK    2  A    between atoms: C_4  and  S_11
REMARK    3  A    between atoms: N_7  and  C_8
REMARK    4  A    between atoms: C_8  and  C_9
REMARK    5  A    between atoms: S_11  and  N_12
REMARK                            x       y       z     vdW  Elec       q    Type
REMARK                         _______ _______ _______ _____ _____    ______ ____
ROOT
ATOM      1  C   UNL     1       9.083  -4.969  25.138  0.00  0.00    +0.175 C 
ATOM      2  N   UNL     1       7.668  -5.278  25.178  0.00  0.00    -0.244 N 
ATOM      3  C   UNL     1       6.834  -5.143  24.083  0.00  0.00    +0.185 A 
ATOM      4  N   UNL     1       7.098  -4.511  22.981  0.00  0.00    -0.155 NA
ATOM      5  S   UNL     1       5.307  -5.910  24.484  0.00  0.00    -0.011 S 
ATOM      6  C   UNL     1       5.850  -5.949  26.154  0.00  0.00    +0.254 A 
ATOM      7  N   UNL     1       7.098  -5.639  26.386  0.00  0.00    -0.142 NA
ENDROOT
BRANCH   4   8
ATOM      8  C   UNL     1       6.153  -4.499  21.988  0.00  0.00    +0.235 C 
ATOM      9  O   UNL     1       5.250  -3.673  21.911  0.00  0.00    -0.274 OA
ATOM     10  C   UNL     1       6.233  -5.635  21.003  0.00  0.00    +0.111 C 
ENDBRANCH   4   8
BRANCH   6  11
ATOM     11  S   UNL     1       4.709  -6.291  27.483  0.00  0.00    +0.081 S 
ATOM     12  O   UNL     1       3.525  -6.859  26.881  0.00  0.00    -0.151 OA
ATOM     13  O   UNL     1       4.686  -5.099  28.300  0.00  0.00    -0.151 OA
BRANCH  11  14
ATOM     14  N   UNL     1       5.397  -7.493  28.455  0.00  0.00    -0.202 NA
ATOM     15  H   UNL     1       5.061  -7.453  29.416  0.00  0.00    +0.144 HD
ATOM     16  H   UNL     1       5.350  -8.414  28.022  0.00  0.00    +0.144 HD
ENDBRANCH  11  14
ENDBRANCH   6  11
TORSDOF 3
ENDMDL
MODEL 7
REMARK VINA RESULT:      -5.2      2.246      5.102
REMARK  Name = 
REMARK  5 active torsions:
REMARK  status: ('A' for Active; 'I' for Inactive)
REMARK    1  A    between atoms: C_1  and  N_2
REMARK    2  A    between atoms: C_4  and  S_11
REMARK    3  A    between atoms: N_7  and  C_8
REMARK    4  A    between atoms: C_8  and  C_9
REMARK    5  A    between atoms: S_11  and  N_12
REMARK                            x       y       z     vdW  Elec       q    Type
REMARK                         _______ _______ _______ _____ _____    ______ ____
ROOT
ATOM      1  C   UNL     1       6.704  -3.824  21.877  0.00  0.00    +0.175 C 
ATOM      2  N   UNL     1       7.676  -2.968  22.528  0.00  0.00    -0.244 N 
ATOM      3  C   UNL     1       8.481  -3.394  23.568  0.00  0.00    +0.185 A 
ATOM      4  N   UNL     1       8.335  -4.476  24.268  0.00  0.00    -0.155 NA
ATOM      5  S   UNL     1       9.699  -2.158  23.834  0.00  0.00    -0.011 S 
ATOM      6  C   UNL     1       8.740  -1.098  22.812  0.00  0.00    +0.254 A 
ATOM      7  N   UNL     1       7.744  -1.636  22.158  0.00  0.00    -0.142 NA
ENDROOT
BRANCH   4   8
ATOM      8  C   UNL     1       9.248  -4.750  25.253  0.00  0.00    +0.235 C 
ATOM      9  O   UNL     1      10.375  -5.185  25.043  0.00  0.00    -0.274 OA
ATOM     10  C   UNL     1       8.758  -4.554  26.663  0.00  0.00    +0.111 C 
ENDBRANCH   4   8
BRANCH   6  11
ATOM     11  S   UNL     1       9.051   0.658  22.762  0.00  0.00    +0.081 S 
ATOM     12  O   UNL     1      10.425   0.850  23.167  0.00  0.00    -0.151 OA
ATOM     13  O   UNL     1       7.934   1.277  23.439  0.00  0.00    -0.151 OA
BRANCH  11  14
ATOM     14  N   UNL     1       8.936   1.155  21.149  0.00  0.00    -0.202 NA
ATOM     15  H   UNL     1       9.287   0.453  20.500  0.00  0.00    +0.144 HD
ATOM     16  H   UNL     1       8.013   1.524  20.923  0.00  0.00    +0.144 HD
ENDBRANCH  11  14
ENDBRANCH   6  11
TORSDOF 3
ENDMDL
MODEL 8
REMARK VINA RESULT:      -5.1      2.531      2.880
REMARK  Name = 
REMARK  5 active torsions:
REMARK  status: ('A' for Active; 'I' for Inactive)
REMARK    1  A    between atoms: C_1  and  N_2
REMARK    2  A    between atoms: C_4  and  S_11
REMARK    3  A    between atoms: N_7  and  C_8
REMARK    4  A    between atoms: C_8  and  C_9
REMARK    5  A    between atoms: S_11  and  N_12
REMARK                            x       y       z     vdW  Elec       q    Type
REMARK                         _______ _______ _______ _____ _____    ______ ____
ROOT
ATOM      1  C   UNL     1       7.728  -0.340  27.102  0.00  0.00    +0.175 C 
ATOM      2  N   UNL     1       8.268  -1.233  26.096  0.00  0.00    -0.244 N 
ATOM      3  C   UNL     1       8.815  -0.789  24.907  0.00  0.00    +0.185 A 
ATOM      4  N   UNL     1       8.710   0.402  24.402  0.00  0.00    -0.155 NA
ATOM      5  S   UNL     1       9.613  -2.156  24.149  0.00  0.00    -0.011 S 
ATOM      6  C   UNL     1       8.782  -3.186  25.304  0.00  0.00    +0.254 A 
ATOM      7  N   UNL     1       8.153  -2.599  26.287  0.00  0.00    -0.142 NA
ENDROOT
BRANCH   4   8
ATOM      8  C   UNL     1       9.341   0.670  23.215  0.00  0.00    +0.235 C 
ATOM      9  O   UNL     1      10.529   0.957  23.119  0.00  0.00    -0.274 OA
ATOM     10  C   UNL     1       8.456   0.670  21.997  0.00  0.00    +0.111 C 
ENDBRANCH   4   8
BRANCH   6  11
ATOM     11  S   UNL     1       8.713  -4.954  25.074  0.00  0.00    +0.081 S 
ATOM     12  O   UNL     1       8.434  -5.183  23.675  0.00  0.00    -0.151 OA
ATOM     13  O   UNL     1       7.875  -5.459  26.139  0.00  0.00    -0.151 OA
BRANCH  11  14
ATOM     14  N   UNL     1      10.256  -5.574  25.380  0.00  0.00    -0.202 NA
ATOM     15  H   UNL     1      10.257  -6.589  25.466  0.00  0.00    +0.144 HD
ATOM     16  H   UNL     1      10.958  -5.197  24.745  0.00  0.00    +0.144 HD
ENDBRANCH  11  14
ENDBRANCH   6  11
TORSDOF 3
ENDMDL
MODEL 9
REMARK VINA RESULT:      -5.1      2.604      3.012
REMARK  Name = 
REMARK  5 active torsions:
REMARK  status: ('A' for Active; 'I' for Inactive)
REMARK    1  A    between atoms: C_1  and  N_2
REMARK    2  A    between atoms: C_4  and  S_11
REMARK    3  A    between atoms: N_7  and  C_8
REMARK    4  A    between atoms: C_8  and  C_9
REMARK    5  A    between atoms: S_11  and  N_12
REMARK                            x       y       z     vdW  Elec       q    Type
REMARK                         _______ _______ _______ _____ _____    ______ ____
ROOT
ATOM      1  C   UNL     1      10.473  -1.385  22.388  0.00  0.00    +0.175 C 
ATOM      2  N   UNL     1       9.538  -1.867  23.385  0.00  0.00    -0.244 N 
ATOM      3  C   UNL     1       8.536  -1.082  23.924  0.00  0.00    +0.185 A 
ATOM      4  N   UNL     1       8.429   0.208  23.833  0.00  0.00    -0.155 NA
ATOM      5  S   UNL     1       7.470  -2.137  24.835  0.00  0.00    -0.011 S 
ATOM      6  C   UNL     1       8.705  -3.379  24.699  0.00  0.00    +0.254 A 
ATOM      7  N   UNL     1       9.706  -3.144  23.893  0.00  0.00    -0.142 NA
ENDROOT
BRANCH   4   8
ATOM      8  C   UNL     1       7.350   0.820  24.416  0.00  0.00    +0.235 C 
ATOM      9  O   UNL     1       6.247   0.915  23.889  0.00  0.00    -0.274 OA
ATOM     10  C   UNL     1       7.612   1.460  25.753  0.00  0.00    +0.111 C 
ENDBRANCH   4   8
BRANCH   6  11
ATOM     11  S   UNL     1       8.643  -4.850  25.708  0.00  0.00    +0.081 S 
ATOM     12  O   UNL     1       7.385  -5.500  25.421  0.00  0.00    -0.151 OA
ATOM     13  O   UNL     1       9.034  -4.434  27.036  0.00  0.00    -0.151 OA
BRANCH  11  14
ATOM     14  N   UNL     1       9.870  -5.888  25.179  0.00  0.00    -0.202 NA
ATOM     15  H   UNL     1       9.652  -6.321  24.283  0.00  0.00    +0.144 HD
ATOM     16  H   UNL     1      10.792  -5.458  25.235  0.00  0.00    +0.144 HD
ENDBRANCH  11  14
ENDBRANCH   6  11
TORSDOF 3
ENDMDL
