MODEL 1
REMARK VINA RESULT:      -7.6      0.000      0.000
REMARK  Name = 
REMARK  4 active torsions:
REMARK  status: ('A' for Active; 'I' for Inactive)
REMARK    1  A    between atoms: N_1  and  C_2
REMARK    2  A    between atoms: C_2  and  C_3
REMARK    3  A    between atoms: C_3  and  C_18
REMARK    4  A    between atoms: N_6  and  C_9
REMARK                            x       y       z     vdW  Elec       q    Type
REMARK                         _______ _______ _______ _____ _____    ______ ____
ROOT
ATOM      1  C   UNL     1       8.060  -4.092  25.248  0.00  0.00    +0.011 C 
ATOM      2  C   UNL     1       8.574  -3.628  23.851  0.00  0.00    +0.032 C 
ATOM      3  C   UNL     1       9.656  -2.549  23.922  0.00  0.00    +0.107 C 
ATOM      4  N   UNL     1       9.208  -1.443  24.755  0.00  0.00    -0.315 N 
ATOM      5  C   UNL     1       8.688  -1.726  26.077  0.00  0.00    +0.107 C 
ATOM      6  C   UNL     1       7.607  -2.804  25.996  0.00  0.00    +0.032 C 
ENDROOT
BRANCH   4   7
ATOM      7  C   UNL     1       9.392  -0.147  24.311  0.00  0.00    +0.134 A 
ATOM      8  N   UNL     1      10.582   0.459  24.579  0.00  0.00    -0.220 NA
ATOM      9  C   UNL     1      10.838   1.680  24.071  0.00  0.00    +0.225 A 
ATOM     10  N   UNL     1      10.040   2.445  23.312  0.00  0.00    -0.218 NA
ATOM     11  C   UNL     1       8.858   1.849  23.106  0.00  0.00    +0.143 A 
ATOM     12  N   UNL     1       7.837   2.402  22.382  0.00  0.00    -0.346 N 
ATOM     13  H   UNL     1       7.899   3.301  21.928  0.00  0.00    +0.167 HD
ATOM     14  C   UNL     1       6.752   1.569  22.400  0.00  0.00    +0.085 A 
ATOM     15  C   UNL     1       7.098   0.451  23.130  0.00  0.00    +0.032 A 
ATOM     16  C   UNL     1       8.453   0.603  23.562  0.00  0.00    +0.059 A 
ENDBRANCH   4   7
BRANCH   1  17
ATOM     17  C   UNL     1       6.848  -5.060  25.159  0.00  0.00    -0.040 A 
ATOM     18  C   UNL     1       6.268  -5.656  26.293  0.00  0.00    +0.005 A 
ATOM     19  C   UNL     1       5.144  -6.484  26.186  0.00  0.00    +0.020 A 
ATOM     20  C   UNL     1       4.578  -6.730  24.941  0.00  0.00    +0.041 A 
ATOM     21 CL   UNL     1       3.178  -7.722  24.813  0.00  0.00    -0.084 Cl
ATOM     22  C   UNL     1       5.135  -6.169  23.799  0.00  0.00    +0.020 A 
ATOM     23  C   UNL     1       6.259  -5.344  23.909  0.00  0.00    +0.005 A 
ENDBRANCH   1  17
BRANCH   1  24
ATOM     24  C   UNL     1       9.210  -4.787  26.062  0.00  0.00    +0.089 C 
BRANCH  24  25
ATOM     25  N   UNL     1       9.921  -5.845  25.346  0.00  0.00    -0.329 NA
ATOM     26  H   UNL     1      10.618  -5.452  24.718  0.00  0.00    +0.118 HD
ATOM     27  H   UNL     1      10.424  -6.431  26.009  0.00  0.00    +0.118 HD
ENDBRANCH  24  25
ENDBRANCH   1  24
TORSDOF 4
ENDMDL
MODEL 2
REMARK VINA RESULT:      -7.2      3.799      7.495
REMARK  Name = 
REMARK  4 active torsions:
REMARK  status: ('A' for Active; 'I' for Inactive)
REMARK    1  A    between atoms: N_1  and  C_2
REMARK    2  A    between atoms: C_2  and  C_3
REMARK    3  A    between atoms: C_3  and  C_18
REMARK    4  A    between atoms: N_6  and  C_9
REMARK                            x       y       z     vdW  Elec       q    Type
REMARK                         _______ _______ _______ _____ _____    ______ ____
ROOT
ATOM      1  C   UNL     1       7.925  -0.827  25.598  0.00  0.00    +0.011 C 
ATOM      2  C   UNL     1       6.570  -1.050  24.861  0.00  0.00    +0.032 C 
ATOM      3  C   UNL     1       5.781  -2.255  25.377  0.00  0.00    +0.107 C 
ATOM      4  N   UNL     1       6.623  -3.442  25.383  0.00  0.00    -0.315 N 
ATOM      5  C   UNL     1       7.922  -3.376  26.022  0.00  0.00    +0.107 C 
ATOM      6  C   UNL     1       8.704  -2.171  25.498  0.00  0.00    +0.032 C 
ENDROOT
BRANCH   4   7
ATOM      7  C   UNL     1       6.120  -4.628  24.882  0.00  0.00    +0.134 A 
ATOM      8  N   UNL     1       5.397  -5.421  25.720  0.00  0.00    -0.220 NA
ATOM      9  C   UNL     1       4.802  -6.530  25.240  0.00  0.00    +0.225 A 
ATOM     10  N   UNL     1       4.835  -7.011  23.989  0.00  0.00    -0.218 NA
ATOM     11  C   UNL     1       5.595  -6.242  23.198  0.00  0.00    +0.143 A 
ATOM     12  N   UNL     1       5.827  -6.497  21.874  0.00  0.00    -0.346 N 
ATOM     13  H   UNL     1       5.428  -7.282  21.379  0.00  0.00    +0.167 HD
ATOM     14  C   UNL     1       6.679  -5.557  21.362  0.00  0.00    +0.085 A 
ATOM     15  C   UNL     1       6.976  -4.671  22.376  0.00  0.00    +0.032 A 
ATOM     16  C   UNL     1       6.266  -5.079  23.548  0.00  0.00    +0.059 A 
ENDBRANCH   4   7
BRANCH   1  17
ATOM     17  C   UNL     1       8.791   0.291  24.955  0.00  0.00    -0.040 A 
ATOM     18  C   UNL     1       8.281   1.566  24.650  0.00  0.00    +0.005 A 
ATOM     19  C   UNL     1       9.099   2.569  24.118  0.00  0.00    +0.020 A 
ATOM     20  C   UNL     1      10.445   2.316  23.881  0.00  0.00    +0.041 A 
ATOM     21 CL   UNL     1      11.457   3.560  23.256  0.00  0.00    -0.084 Cl
ATOM     22  C   UNL     1      10.977   1.063  24.156  0.00  0.00    +0.020 A 
ATOM     23  C   UNL     1      10.157   0.063  24.686  0.00  0.00    +0.005 A 
ENDBRANCH   1  17
BRANCH   1  24
ATOM     24  C   UNL     1       7.685  -0.479  27.111  0.00  0.00    +0.089 C 
BRANCH  24  25
ATOM     25  N   UNL     1       8.900  -0.289  27.902  0.00  0.00    -0.329 NA
ATOM     26  H   UNL     1       9.658   0.062  27.322  0.00  0.00    +0.118 HD
ATOM     27  H   UNL     1       8.735   0.411  28.622  0.00  0.00    +0.118 HD
ENDBRANCH  24  25
ENDBRANCH   1  24
TORSDOF 4
ENDMDL
MODEL 3
REMARK VINA RESULT:      -7.0      3.604      7.645
REMARK  Name = 
REMARK  4 active torsions:
REMARK  status: ('A' for Active; 'I' for Inactive)
REMARK    1  A    between atoms: N_1  and  C_2
REMARK    2  A    between atoms: C_2  and  C_3
REMARK    3  A    between atoms: C_3  and  C_18
REMARK    4  A    between atoms: N_6  and  C_9
REMARK                            x       y       z     vdW  Elec       q    Type
REMARK                         _______ _______ _______ _____ _____    ______ ____
ROOT
ATOM      1  C   UNL     1       8.489  -1.459  23.555  0.00  0.00    +0.011 C 
ATOM      2  C   UNL     1       9.283  -2.408  24.504  0.00  0.00    +0.032 C 
ATOM      3  C   UNL     1       8.776  -3.851  24.496  0.00  0.00    +0.107 C 
ATOM      4  N   UNL     1       7.341  -3.881  24.738  0.00  0.00    -0.315 N 
ATOM      5  C   UNL     1       6.478  -3.036  23.939  0.00  0.00    +0.107 C 
ATOM      6  C   UNL     1       6.991  -1.596  23.955  0.00  0.00    +0.032 C 
ENDROOT
BRANCH   4   7
ATOM      7  C   UNL     1       6.829  -4.792  25.643  0.00  0.00    +0.134 A 
ATOM      8  N   UNL     1       7.338  -4.795  26.906  0.00  0.00    -0.220 NA
ATOM      9  C   UNL     1       6.791  -5.594  27.843  0.00  0.00    +0.225 A 
ATOM     10  N   UNL     1       5.773  -6.455  27.705  0.00  0.00    -0.218 NA
ATOM     11  C   UNL     1       5.325  -6.471  26.442  0.00  0.00    +0.143 A 
ATOM     12  N   UNL     1       4.303  -7.267  26.001  0.00  0.00    -0.346 N 
ATOM     13  H   UNL     1       3.791  -7.899  26.599  0.00  0.00    +0.167 HD
ATOM     14  C   UNL     1       4.120  -7.084  24.657  0.00  0.00    +0.085 A 
ATOM     15  C   UNL     1       5.028  -6.135  24.240  0.00  0.00    +0.032 A 
ATOM     16  C   UNL     1       5.785  -5.710  25.376  0.00  0.00    +0.059 A 
ENDBRANCH   4   7
BRANCH   1  17
ATOM     17  C   UNL     1       8.902   0.031  23.700  0.00  0.00    -0.040 A 
ATOM     18  C   UNL     1      10.173   0.426  24.153  0.00  0.00    +0.005 A 
ATOM     19  C   UNL     1      10.533   1.777  24.223  0.00  0.00    +0.020 A 
ATOM     20  C   UNL     1       9.628   2.759  23.841  0.00  0.00    +0.041 A 
ATOM     21 CL   UNL     1      10.083   4.418  23.897  0.00  0.00    -0.084 Cl
ATOM     22  C   UNL     1       8.359   2.404  23.402  0.00  0.00    +0.020 A 
ATOM     23  C   UNL     1       8.002   1.054  23.335  0.00  0.00    +0.005 A 
ENDBRANCH   1  17
BRANCH   1  24
ATOM     24  C   UNL     1       8.667  -1.896  22.056  0.00  0.00    +0.089 C 
BRANCH  24  25
ATOM     25  N   UNL     1       9.965  -1.566  21.468  0.00  0.00    -0.329 NA
ATOM     26  H   UNL     1       9.862  -1.293  20.493  0.00  0.00    +0.118 HD
ATOM     27  H   UNL     1      10.368  -0.766  21.953  0.00  0.00    +0.118 HD
ENDBRANCH  24  25
ENDBRANCH   1  24
TORSDOF 4
ENDMDL
MODEL 4
REMARK VINA RESULT:      -7.0      3.665      7.859
REMARK  Name = 
REMARK  4 active torsions:
REMARK  status: ('A' for Active; 'I' for Inactive)
REMARK    1  A    between atoms: N_1  and  C_2
REMARK    2  A    between atoms: C_2  and  C_3
REMARK    3  A    between atoms: C_3  and  C_18
REMARK    4  A    between atoms: N_6  and  C_9
REMARK                            x       y       z     vdW  Elec       q    Type
REMARK                         _______ _______ _______ _____ _____    ______ ____
ROOT
ATOM      1  C   UNL     1       9.264   0.375  23.165  0.00  0.00    +0.011 C 
ATOM      2  C   UNL     1      10.224  -0.619  23.886  0.00  0.00    +0.032 C 
ATOM      3  C   UNL     1       9.875  -2.090  23.653  0.00  0.00    +0.107 C 
ATOM      4  N   UNL     1       8.475  -2.330  23.967  0.00  0.00    -0.315 N 
ATOM      5  C   UNL     1       7.467  -1.471  23.379  0.00  0.00    +0.107 C 
ATOM      6  C   UNL     1       7.823  -0.003  23.619  0.00  0.00    +0.032 C 
ENDROOT
BRANCH   4   7
ATOM      7  C   UNL     1       8.133  -3.434  24.725  0.00  0.00    +0.134 A 
ATOM      8  N   UNL     1       8.884  -3.712  25.827  0.00  0.00    -0.220 NA
ATOM      9  C   UNL     1       8.518  -4.715  26.648  0.00  0.00    +0.225 A 
ATOM     10  N   UNL     1       7.473  -5.546  26.524  0.00  0.00    -0.218 NA
ATOM     11  C   UNL     1       6.781  -5.285  25.407  0.00  0.00    +0.143 A 
ATOM     12  N   UNL     1       5.674  -5.984  25.011  0.00  0.00    -0.346 N 
ATOM     13  H   UNL     1       5.277  -6.747  25.540  0.00  0.00    +0.167 HD
ATOM     14  C   UNL     1       5.229  -5.506  23.808  0.00  0.00    +0.085 A 
ATOM     15  C   UNL     1       6.057  -4.465  23.444  0.00  0.00    +0.032 A 
ATOM     16  C   UNL     1       7.036  -4.292  24.472  0.00  0.00    +0.059 A 
ENDBRANCH   4   7
BRANCH   1  17
ATOM     17  C   UNL     1       9.525   1.858  23.545  0.00  0.00    -0.040 A 
ATOM     18  C   UNL     1      10.719   2.526  23.221  0.00  0.00    +0.005 A 
ATOM     19  C   UNL     1      10.904   3.878  23.532  0.00  0.00    +0.020 A 
ATOM     20  C   UNL     1       9.897   4.588  24.174  0.00  0.00    +0.041 A 
ATOM     21 CL   UNL     1      10.114   6.258  24.527  0.00  0.00    -0.084 Cl
ATOM     22  C   UNL     1       8.712   3.955  24.523  0.00  0.00    +0.020 A 
ATOM     23  C   UNL     1       8.530   2.604  24.212  0.00  0.00    +0.005 A 
ENDBRANCH   1  17
BRANCH   1  24
ATOM     24  C   UNL     1       9.373   0.221  21.605  0.00  0.00    +0.089 C 
BRANCH  24  25
ATOM     25  N   UNL     1       8.644   1.227  20.834  0.00  0.00    -0.329 NA
ATOM     26  H   UNL     1       7.720   1.387  21.227  0.00  0.00    +0.118 HD
ATOM     27  H   UNL     1       9.138   2.117  20.878  0.00  0.00    +0.118 HD
ENDBRANCH  24  25
ENDBRANCH   1  24
TORSDOF 4
ENDMDL
MODEL 5
REMARK VINA RESULT:      -7.0      4.082      8.249
REMARK  Name = 
REMARK  4 active torsions:
REMARK  status: ('A' for Active; 'I' for Inactive)
REMARK    1  A    between atoms: N_1  and  C_2
REMARK    2  A    between atoms: C_2  and  C_3
REMARK    3  A    between atoms: C_3  and  C_18
REMARK    4  A    between atoms: N_6  and  C_9
REMARK                            x       y       z     vdW  Elec       q    Type
REMARK                         _______ _______ _______ _____ _____    ______ ____
ROOT
ATOM      1  C   UNL     1       8.884   1.677  22.643  0.00  0.00    +0.011 C 
ATOM      2  C   UNL     1       9.840   0.588  22.067  0.00  0.00    +0.032 C 
ATOM      3  C   UNL     1       9.144  -0.739  21.759  0.00  0.00    +0.107 C 
ATOM      4  N   UNL     1       8.399  -1.198  22.921  0.00  0.00    -0.315 N 
ATOM      5  C   UNL     1       7.481  -0.284  23.571  0.00  0.00    +0.107 C 
ATOM      6  C   UNL     1       8.186   1.037  23.878  0.00  0.00    +0.032 C 
ENDROOT
BRANCH   4   7
ATOM      7  C   UNL     1       8.499  -2.521  23.306  0.00  0.00    +0.134 A 
ATOM      8  N   UNL     1       9.482  -2.859  24.186  0.00  0.00    -0.220 NA
ATOM      9  C   UNL     1       9.544  -4.116  24.666  0.00  0.00    +0.225 A 
ATOM     10  N   UNL     1       8.747  -5.154  24.373  0.00  0.00    -0.218 NA
ATOM     11  C   UNL     1       7.823  -4.810  23.467  0.00  0.00    +0.143 A 
ATOM     12  N   UNL     1       6.884  -5.669  22.965  0.00  0.00    -0.346 N 
ATOM     13  H   UNL     1       6.801  -6.633  23.250  0.00  0.00    +0.167 HD
ATOM     14  C   UNL     1       6.121  -5.027  22.027  0.00  0.00    +0.085 A 
ATOM     15  C   UNL     1       6.569  -3.725  21.949  0.00  0.00    +0.032 A 
ATOM     16  C   UNL     1       7.637  -3.563  22.886  0.00  0.00    +0.059 A 
ENDBRANCH   4   7
BRANCH   1  17
ATOM     17  C   UNL     1       9.631   2.957  23.110  0.00  0.00    -0.040 A 
ATOM     18  C   UNL     1       8.980   4.025  23.751  0.00  0.00    +0.005 A 
ATOM     19  C   UNL     1       9.690   5.143  24.207  0.00  0.00    +0.020 A 
ATOM     20  C   UNL     1      11.066   5.212  24.029  0.00  0.00    +0.041 A 
ATOM     21 CL   UNL     1      11.942   6.571  24.618  0.00  0.00    -0.084 Cl
ATOM     22  C   UNL     1      11.738   4.181  23.386  0.00  0.00    +0.020 A 
ATOM     23  C   UNL     1      11.027   3.067  22.931  0.00  0.00    +0.005 A 
ENDBRANCH   1  17
BRANCH   1  24
ATOM     24  C   UNL     1       7.796   2.079  21.583  0.00  0.00    +0.089 C 
BRANCH  24  25
ATOM     25  N   UNL     1       6.577   2.662  22.141  0.00  0.00    -0.329 NA
ATOM     26  H   UNL     1       6.708   3.650  22.345  0.00  0.00    +0.118 HD
ATOM     27  H   UNL     1       5.824   2.603  21.458  0.00  0.00    +0.118 HD
ENDBRANCH  24  25
ENDBRANCH   1  24
TORSDOF 4
ENDMDL
MODEL 6
REMARK VINA RESULT:      -6.9      2.443      4.380
REMARK  Name = 
REMARK  4 active torsions:
REMARK  status: ('A' for Active; 'I' for Inactive)
REMARK    1  A    between atoms: N_1  and  C_2
REMARK    2  A    between atoms: C_2  and  C_3
REMARK    3  A    between atoms: C_3  and  C_18
REMARK    4  A    between atoms: N_6  and  C_9
REMARK                            x       y       z     vdW  Elec       q    Type
REMARK                         _______ _______ _______ _____ _____    ______ ____
ROOT
ATOM      1  C   UNL     1       9.178  -0.967  23.772  0.00  0.00    +0.011 C 
ATOM      2  C   UNL     1       8.245   0.033  23.024  0.00  0.00    +0.032 C 
ATOM      3  C   UNL     1       8.953   1.311  22.568  0.00  0.00    +0.107 C 
ATOM      4  N   UNL     1       9.656   1.922  23.686  0.00  0.00    -0.315 N 
ATOM      5  C   UNL     1      10.548   1.105  24.484  0.00  0.00    +0.107 C 
ATOM      6  C   UNL     1       9.831  -0.167  24.937  0.00  0.00    +0.032 C 
ENDROOT
BRANCH   4   7
ATOM      7  C   UNL     1       9.543   3.284  23.890  0.00  0.00    +0.134 A 
ATOM      8  N   UNL     1       8.334   3.775  24.282  0.00  0.00    -0.220 NA
ATOM      9  C   UNL     1       8.214   5.080  24.593  0.00  0.00    +0.225 A 
ATOM     10  N   UNL     1       9.158   6.031  24.551  0.00  0.00    -0.218 NA
ATOM     11  C   UNL     1      10.322   5.534  24.112  0.00  0.00    +0.143 A 
ATOM     12  N   UNL     1      11.460   6.276  23.950  0.00  0.00    -0.346 N 
ATOM     13  H   UNL     1      11.519   7.261  24.163  0.00  0.00    +0.167 HD
ATOM     14  C   UNL     1      12.459   5.490  23.443  0.00  0.00    +0.085 A 
ATOM     15  C   UNL     1      11.952   4.215  23.303  0.00  0.00    +0.032 A 
ATOM     16  C   UNL     1      10.596   4.221  23.757  0.00  0.00    +0.059 A 
ENDBRANCH   4   7
BRANCH   1  17
ATOM     17  C   UNL     1       8.413  -2.177  24.376  0.00  0.00    -0.040 A 
ATOM     18  C   UNL     1       7.603  -3.027  23.601  0.00  0.00    +0.005 A 
ATOM     19  C   UNL     1       6.968  -4.139  24.164  0.00  0.00    +0.020 A 
ATOM     20  C   UNL     1       7.130  -4.423  25.515  0.00  0.00    +0.041 A 
ATOM     21 CL   UNL     1       6.375  -5.809  26.199  0.00  0.00    -0.084 Cl
ATOM     22  C   UNL     1       7.910  -3.596  26.312  0.00  0.00    +0.020 A 
ATOM     23  C   UNL     1       8.543  -2.484  25.746  0.00  0.00    +0.005 A 
ENDBRANCH   1  17
BRANCH   1  24
ATOM     24  C   UNL     1      10.303  -1.501  22.814  0.00  0.00    +0.089 C 
BRANCH  24  25
ATOM     25  N   UNL     1       9.940  -1.543  21.398  0.00  0.00    -0.329 NA
ATOM     26  H   UNL     1       9.133  -2.143  21.249  0.00  0.00    +0.118 HD
ATOM     27  H   UNL     1       9.672  -0.612  21.085  0.00  0.00    +0.118 HD
ENDBRANCH  24  25
ENDBRANCH   1  24
TORSDOF 4
ENDMDL
MODEL 7
REMARK VINA RESULT:      -6.9      2.547      3.900
REMARK  Name = 
REMARK  4 active torsions:
REMARK  status: ('A' for Active; 'I' for Inactive)
REMARK    1  A    between atoms: N_1  and  C_2
REMARK    2  A    between atoms: C_2  and  C_3
REMARK    3  A    between atoms: C_3  and  C_18
REMARK    4  A    between atoms: N_6  and  C_9
REMARK                            x       y       z     vdW  Elec       q    Type
REMARK                         _______ _______ _______ _____ _____    ______ ____
ROOT
ATOM      1  C   UNL     1       8.875  -0.730  23.367  0.00  0.00    +0.011 C 
ATOM      2  C   UNL     1       8.633   0.378  22.298  0.00  0.00    +0.032 C 
ATOM      3  C   UNL     1       9.818   1.328  22.118  0.00  0.00    +0.107 C 
ATOM      4  N   UNL     1      10.232   1.865  23.405  0.00  0.00    -0.315 N 
ATOM      5  C   UNL     1      10.479   0.950  24.500  0.00  0.00    +0.107 C 
ATOM      6  C   UNL     1       9.288   0.006  24.675  0.00  0.00    +0.032 C 
ENDROOT
BRANCH   4   7
ATOM      7  C   UNL     1      10.487   3.219  23.520  0.00  0.00    +0.134 A 
ATOM      8  N   UNL     1      11.771   3.644  23.361  0.00  0.00    -0.220 NA
ATOM      9  C   UNL     1      12.040   4.964  23.360  0.00  0.00    +0.225 A 
ATOM     10  N   UNL     1      11.185   5.984  23.524  0.00  0.00    -0.218 NA
ATOM     11  C   UNL     1       9.940   5.537  23.730  0.00  0.00    +0.143 A 
ATOM     12  N   UNL     1       8.860   6.350  23.946  0.00  0.00    -0.346 N 
ATOM     13  H   UNL     1       8.913   7.358  23.952  0.00  0.00    +0.167 HD
ATOM     14  C   UNL     1       7.744   5.590  24.170  0.00  0.00    +0.085 A 
ATOM     15  C   UNL     1       8.117   4.266  24.070  0.00  0.00    +0.032 A 
ATOM     16  C   UNL     1       9.512   4.218  23.759  0.00  0.00    +0.059 A 
ENDBRANCH   4   7
BRANCH   1  17
ATOM     17  C   UNL     1       7.608  -1.579  23.661  0.00  0.00    -0.040 A 
ATOM     18  C   UNL     1       7.075  -1.726  24.954  0.00  0.00    +0.005 A 
ATOM     19  C   UNL     1       5.902  -2.455  25.179  0.00  0.00    +0.020 A 
ATOM     20  C   UNL     1       5.238  -3.052  24.114  0.00  0.00    +0.041 A 
ATOM     21 CL   UNL     1       3.779  -3.921  24.388  0.00  0.00    -0.084 Cl
ATOM     22  C   UNL     1       5.745  -2.939  22.826  0.00  0.00    +0.020 A 
ATOM     23  C   UNL     1       6.918  -2.211  22.604  0.00  0.00    +0.005 A 
ENDBRANCH   1  17
BRANCH   1  24
ATOM     24  C   UNL     1      10.039  -1.687  22.922  0.00  0.00    +0.089 C 
BRANCH  24  25
ATOM     25  N   UNL     1      10.193  -2.892  23.737  0.00  0.00    -0.329 NA
ATOM     26  H   UNL     1      10.534  -2.659  24.667  0.00  0.00    +0.118 HD
ATOM     27  H   UNL     1       9.287  -3.339  23.863  0.00  0.00    +0.118 HD
ENDBRANCH  24  25
ENDBRANCH   1  24
TORSDOF 4
ENDMDL
MODEL 8
REMARK VINA RESULT:      -6.8      3.639      7.709
REMARK  Name = 
REMARK  4 active torsions:
REMARK  status: ('A' for Active; 'I' for Inactive)
REMARK    1  A    between atoms: N_1  and  C_2
REMARK    2  A    between atoms: C_2  and  C_3
REMARK    3  A    between atoms: C_3  and  C_18
REMARK    4  A    between atoms: N_6  and  C_9
REMARK                            x       y       z     vdW  Elec       q    Type
REMARK                         _______ _______ _______ _____ _____    ______ ____
ROOT
ATOM      1  C   UNL     1       8.817  -1.202  23.518  0.00  0.00    +0.011 C 
ATOM      2  C   UNL     1       8.979  -2.109  24.776  0.00  0.00    +0.032 C 
ATOM      3  C   UNL     1       8.685  -3.586  24.510  0.00  0.00    +0.107 C 
ATOM      4  N   UNL     1       7.387  -3.734  23.871  0.00  0.00    -0.315 N 
ATOM      5  C   UNL     1       7.089  -2.939  22.696  0.00  0.00    +0.107 C 
ATOM      6  C   UNL     1       7.383  -1.464  22.972  0.00  0.00    +0.032 C 
ENDROOT
BRANCH   4   7
ATOM      7  C   UNL     1       6.516  -4.704  24.329  0.00  0.00    +0.134 A 
ATOM      8  N   UNL     1       5.704  -5.316  23.423  0.00  0.00    -0.220 NA
ATOM      9  C   UNL     1       4.920  -6.339  23.815  0.00  0.00    +0.225 A 
ATOM     10  N   UNL     1       4.795  -6.863  25.043  0.00  0.00    -0.218 NA
ATOM     11  C   UNL     1       5.564  -6.211  25.924  0.00  0.00    +0.143 A 
ATOM     12  N   UNL     1       5.628  -6.514  27.257  0.00  0.00    -0.346 N 
ATOM     13  H   UNL     1       5.110  -7.268  27.683  0.00  0.00    +0.167 HD
ATOM     14  C   UNL     1       6.463  -5.635  27.893  0.00  0.00    +0.085 A 
ATOM     15  C   UNL     1       6.960  -4.771  26.940  0.00  0.00    +0.032 A 
ATOM     16  C   UNL     1       6.417  -5.146  25.671  0.00  0.00    +0.059 A 
ENDBRANCH   4   7
BRANCH   1  17
ATOM     17  C   UNL     1       8.950   0.312  23.839  0.00  0.00    -0.040 A 
ATOM     18  C   UNL     1      10.173   1.001  23.754  0.00  0.00    +0.005 A 
ATOM     19  C   UNL     1      10.252   2.377  23.999  0.00  0.00    +0.020 A 
ATOM     20  C   UNL     1       9.108   3.091  24.333  0.00  0.00    +0.041 A 
ATOM     21 CL   UNL     1       9.200   4.788  24.603  0.00  0.00    -0.084 Cl
ATOM     22  C   UNL     1       7.886   2.438  24.440  0.00  0.00    +0.020 A 
ATOM     23  C   UNL     1       7.811   1.064  24.196  0.00  0.00    +0.005 A 
ENDBRANCH   1  17
BRANCH   1  24
ATOM     24  C   UNL     1       9.869  -1.586  22.416  0.00  0.00    +0.089 C 
BRANCH  24  25
ATOM     25  N   UNL     1       9.599  -1.038  21.088  0.00  0.00    -0.329 NA
ATOM     26  H   UNL     1       8.779  -1.476  20.675  0.00  0.00    +0.118 HD
ATOM     27  H   UNL     1       9.391  -0.043  21.162  0.00  0.00    +0.118 HD
ENDBRANCH  24  25
ENDBRANCH   1  24
TORSDOF 4
ENDMDL
MODEL 9
REMARK VINA RESULT:      -6.8      3.831      7.671
REMARK  Name = 
REMARK  4 active torsions:
REMARK  status: ('A' for Active; 'I' for Inactive)
REMARK    1  A    between atoms: N_1  and  C_2
REMARK    2  A    between atoms: C_2  and  C_3
REMARK    3  A    between atoms: C_3  and  C_18
REMARK    4  A    between atoms: N_6  and  C_9
REMARK                            x       y       z     vdW  Elec       q    Type
REMARK                         _______ _______ _______ _____ _____    ______ ____
ROOT
ATOM      1  C   UNL     1       8.314  -0.419  24.966  0.00  0.00    +0.011 C 
ATOM      2  C   UNL     1       7.020  -0.533  24.104  0.00  0.00    +0.032 C 
ATOM      3  C   UNL     1       6.230  -1.820  24.350  0.00  0.00    +0.107 C 
ATOM      4  N   UNL     1       7.100  -2.977  24.217  0.00  0.00    -0.315 N 
ATOM      5  C   UNL     1       8.350  -3.003  24.951  0.00  0.00    +0.107 C 
ATOM      6  C   UNL     1       9.134  -1.715  24.697  0.00  0.00    +0.032 C 
ENDROOT
BRANCH   4   7
ATOM      7  C   UNL     1       6.665  -4.068  23.488  0.00  0.00    +0.134 A 
ATOM      8  N   UNL     1       7.129  -4.213  22.215  0.00  0.00    -0.220 NA
ATOM      9  C   UNL     1       6.812  -5.318  21.513  0.00  0.00    +0.225 A 
ATOM     10  N   UNL     1       6.044  -6.349  21.893  0.00  0.00    -0.218 NA
ATOM     11  C   UNL     1       5.559  -6.157  23.126  0.00  0.00    +0.143 A 
ATOM     12  N   UNL     1       4.729  -7.035  23.769  0.00  0.00    -0.346 N 
ATOM     13  H   UNL     1       4.427  -7.911  23.369  0.00  0.00    +0.167 HD
ATOM     14  C   UNL     1       4.373  -6.528  24.990  0.00  0.00    +0.085 A 
ATOM     15  C   UNL     1       5.009  -5.314  25.137  0.00  0.00    +0.032 A 
ATOM     16  C   UNL     1       5.795  -5.077  23.966  0.00  0.00    +0.059 A 
ENDBRANCH   4   7
BRANCH   1  17
ATOM     17  C   UNL     1       9.192   0.805  24.585  0.00  0.00    -0.040 A 
ATOM     18  C   UNL     1      10.537   0.682  24.195  0.00  0.00    +0.005 A 
ATOM     19  C   UNL     1      11.288   1.799  23.808  0.00  0.00    +0.020 A 
ATOM     20  C   UNL     1      10.706   3.061  23.804  0.00  0.00    +0.041 A 
ATOM     21 CL   UNL     1      11.619   4.428  23.297  0.00  0.00    -0.084 Cl
ATOM     22  C   UNL     1       9.384   3.219  24.198  0.00  0.00    +0.020 A 
ATOM     23  C   UNL     1       8.637   2.102  24.586  0.00  0.00    +0.005 A 
ENDBRANCH   1  17
BRANCH   1  24
ATOM     24  C   UNL     1       7.960  -0.338  26.494  0.00  0.00    +0.089 C 
BRANCH  24  25
ATOM     25  N   UNL     1       9.103  -0.449  27.399  0.00  0.00    -0.329 NA
ATOM     26  H   UNL     1       9.312   0.447  27.832  0.00  0.00    +0.118 HD
ATOM     27  H   UNL     1       8.880  -1.093  28.156  0.00  0.00    +0.118 HD
ENDBRANCH  24  25
ENDBRANCH   1  24
TORSDOF 4
ENDMDL
