MODEL 1
REMARK VINA RESULT:      -7.1      0.000      0.000
REMARK  Name = 
REMARK  5 active torsions:
REMARK  status: ('A' for Active; 'I' for Inactive)
REMARK    1  A    between atoms: C_2  and  C_24
REMARK    2  A    between atoms: C_4  and  C_5
REMARK    3  A    between atoms: C_11  and  O_12
REMARK    4  A    between atoms: C_20  and  C_21
REMARK    5  A    between atoms: C_20  and  C_22
REMARK                            x       y       z     vdW  Elec       q    Type
REMARK                         _______ _______ _______ _____ _____    ______ ____
ROOT
ATOM      1  C   UNL     1       6.829  -1.471  24.788  0.00  0.00    +0.148 C 
ATOM      2  C   UNL     1       6.457  -0.399  25.827  0.00  0.00    +0.037 C 
ATOM      3  C   UNL     1       5.028  -0.481  26.307  0.00  0.00    +0.163 C 
ATOM      4  C   UNL     1       4.632   0.261  27.561  0.00  0.00    +0.086 C 
ATOM      5  C   UNL     1       5.189   1.682  27.519  0.00  0.00    -0.023 C 
ATOM      6  C   UNL     1       6.717   1.563  27.409  0.00  0.00    +0.058 C 
ATOM      7  C   UNL     1       4.814   2.433  28.808  0.00  0.00    +0.011 C 
ATOM      8  C   UNL     1       4.608   2.469  26.324  0.00  0.00    +0.011 C 
ATOM      9  O   UNL     1       4.181  -1.109  25.673  0.00  0.00    -0.292 OA
ATOM     10  C   UNL     1       7.210   0.614  26.316  0.00  0.00    +0.017 C 
ATOM     11  N   UNL     1       8.473   0.949  25.843  0.00  0.00    -0.313 N 
ATOM     12  H   UNL     1       8.838   1.811  26.261  0.00  0.00    +0.152 HD
ATOM     13  C   UNL     1       8.668   1.058  24.441  0.00  0.00    +0.095 A 
ATOM     14  C   UNL     1       8.458  -0.017  23.575  0.00  0.00    +0.062 A 
ATOM     15  C   UNL     1       8.642   0.171  22.193  0.00  0.00    +0.025 A 
ATOM     16  C   UNL     1       9.078   1.399  21.684  0.00  0.00    +0.005 A 
ATOM     17  C   UNL     1       9.297   2.467  22.542  0.00  0.00    +0.047 A 
ATOM     18  C   UNL     1       9.074   2.302  23.908  0.00  0.00    +0.140 A 
ATOM     19  N   UNL     1       8.172  -1.320  24.109  0.00  0.00    -0.258 N 
ATOM     20  C   UNL     1       8.816  -2.425  23.522  0.00  0.00    +0.218 C 
ATOM     21  O   UNL     1       8.329  -3.550  23.407  0.00  0.00    -0.276 OA
ATOM     22  C   UNL     1      10.239  -2.212  23.023  0.00  0.00    +0.110 C 
ENDROOT
BRANCH   1  23
ATOM     23  C   UNL     1       6.582  -2.882  25.366  0.00  0.00    -0.004 A 
ATOM     24  C   UNL     1       7.232  -3.220  26.577  0.00  0.00    +0.008 A 
ATOM     25  C   UNL     1       6.978  -4.427  27.227  0.00  0.00    +0.020 A 
ATOM     26  C   UNL     1       6.057  -5.313  26.684  0.00  0.00    +0.042 A 
ATOM     27 CL   UNL     1       5.671  -6.762  27.528  0.00  0.00    -0.083 Cl
ATOM     28  C   UNL     1       5.440  -5.032  25.466  0.00  0.00    +0.040 A 
ATOM     29  C   UNL     1       5.716  -3.831  24.799  0.00  0.00    +0.048 A 
ATOM     30 CL   UNL     1       4.932  -3.576  23.281  0.00  0.00    -0.083 Cl
ENDBRANCH   1  23
BRANCH  18  31
ATOM     31  O   UNL     1       9.246   3.348  24.775  0.00  0.00    -0.505 OA
ATOM     32  H   UNL     1       8.374   3.728  24.967  0.00  0.00    +0.292 HD
ENDBRANCH  18  31
TORSDOF 2
ENDMDL
MODEL 2
REMARK VINA RESULT:      -7.0      2.050      5.027
REMARK  Name = 
REMARK  5 active torsions:
REMARK  status: ('A' for Active; 'I' for Inactive)
REMARK    1  A    between atoms: C_2  and  C_24
REMARK    2  A    between atoms: C_4  and  C_5
REMARK    3  A    between atoms: C_11  and  O_12
REMARK    4  A    between atoms: C_20  and  C_21
REMARK    5  A    between atoms: C_20  and  C_22
REMARK                            x       y       z     vdW  Elec       q    Type
REMARK                         _______ _______ _______ _____ _____    ______ ____
ROOT
ATOM      1  C   UNL     1       7.055  -1.660  24.905  0.00  0.00    +0.148 C 
ATOM      2  C   UNL     1       7.826  -0.549  24.171  0.00  0.00    +0.037 C 
ATOM      3  C   UNL     1       9.129  -1.007  23.563  0.00  0.00    +0.163 C 
ATOM      4  C   UNL     1       9.803  -0.135  22.530  0.00  0.00    +0.086 C 
ATOM      5  C   UNL     1       9.821   1.315  23.010  0.00  0.00    -0.023 C 
ATOM      6  C   UNL     1       8.359   1.738  23.218  0.00  0.00    +0.058 C 
ATOM      7  C   UNL     1      10.480   2.212  21.949  0.00  0.00    +0.011 C 
ATOM      8  C   UNL     1      10.628   1.455  24.318  0.00  0.00    +0.011 C 
ATOM      9  O   UNL     1       9.663  -2.055  23.921  0.00  0.00    -0.292 OA
ATOM     10  C   UNL     1       7.520   0.764  24.048  0.00  0.00    +0.017 C 
ATOM     11  N   UNL     1       6.466   1.388  24.704  0.00  0.00    -0.313 N 
ATOM     12  H   UNL     1       6.462   2.404  24.573  0.00  0.00    +0.152 HD
ATOM     13  C   UNL     1       6.296   1.152  26.094  0.00  0.00    +0.095 A 
ATOM     14  C   UNL     1       6.066  -0.125  26.610  0.00  0.00    +0.062 A 
ATOM     15  C   UNL     1       5.936  -0.288  28.001  0.00  0.00    +0.025 A 
ATOM     16  C   UNL     1       5.983   0.811  28.864  0.00  0.00    +0.005 A 
ATOM     17  C   UNL     1       6.201   2.083  28.355  0.00  0.00    +0.047 A 
ATOM     18  C   UNL     1       6.376   2.248  26.982  0.00  0.00    +0.140 A 
ATOM     19  N   UNL     1       5.852  -1.230  25.715  0.00  0.00    -0.258 N 
ATOM     20  C   UNL     1       4.828  -2.140  26.031  0.00  0.00    +0.218 C 
ATOM     21  O   UNL     1       4.853  -3.347  25.789  0.00  0.00    -0.276 OA
ATOM     22  C   UNL     1       3.579  -1.574  26.694  0.00  0.00    +0.110 C 
ENDROOT
BRANCH   1  23
ATOM     23  C   UNL     1       6.765  -2.832  23.942  0.00  0.00    -0.004 A 
ATOM     24  C   UNL     1       6.036  -2.551  22.762  0.00  0.00    +0.008 A 
ATOM     25  C   UNL     1       5.828  -3.523  21.785  0.00  0.00    +0.020 A 
ATOM     26  C   UNL     1       6.359  -4.794  21.965  0.00  0.00    +0.042 A 
ATOM     27 CL   UNL     1       6.185  -5.972  20.722  0.00  0.00    -0.083 Cl
ATOM     28  C   UNL     1       7.036  -5.116  23.139  0.00  0.00    +0.040 A 
ATOM     29  C   UNL     1       7.222  -4.147  24.133  0.00  0.00    +0.048 A 
ATOM     30 CL   UNL     1       8.045  -4.639  25.570  0.00  0.00    -0.083 Cl
ENDBRANCH   1  23
BRANCH  18  31
ATOM     31  O   UNL     1       6.629   3.486  26.454  0.00  0.00    -0.505 OA
ATOM     32  H   UNL     1       7.547   3.498  26.140  0.00  0.00    +0.292 HD
ENDBRANCH  18  31
TORSDOF 2
ENDMDL
MODEL 3
REMARK VINA RESULT:      -7.0      1.759      2.219
REMARK  Name = 
REMARK  5 active torsions:
REMARK  status: ('A' for Active; 'I' for Inactive)
REMARK    1  A    between atoms: C_2  and  C_24
REMARK    2  A    between atoms: C_4  and  C_5
REMARK    3  A    between atoms: C_11  and  O_12
REMARK    4  A    between atoms: C_20  and  C_21
REMARK    5  A    between atoms: C_20  and  C_22
REMARK                            x       y       z     vdW  Elec       q    Type
REMARK                         _______ _______ _______ _____ _____    ______ ____
ROOT
ATOM      1  C   UNL     1       6.516  -3.039  25.681  0.00  0.00    +0.148 C 
ATOM      2  C   UNL     1       6.203  -1.664  26.294  0.00  0.00    +0.037 C 
ATOM      3  C   UNL     1       4.732  -1.326  26.321  0.00  0.00    +0.163 C 
ATOM      4  C   UNL     1       4.255  -0.193  27.199  0.00  0.00    +0.086 C 
ATOM      5  C   UNL     1       5.165   1.020  27.017  0.00  0.00    -0.023 C 
ATOM      6  C   UNL     1       6.584   0.581  27.407  0.00  0.00    +0.058 C 
ATOM      7  C   UNL     1       4.702   2.167  27.931  0.00  0.00    +0.011 C 
ATOM      8  C   UNL     1       5.124   1.528  25.559  0.00  0.00    +0.011 C 
ATOM      9  O   UNL     1       3.928  -1.933  25.614  0.00  0.00    -0.292 OA
ATOM     10  C   UNL     1       7.057  -0.719  26.754  0.00  0.00    +0.017 C 
ATOM     11  N   UNL     1       8.439  -0.785  26.627  0.00  0.00    -0.313 N 
ATOM     12  H   UNL     1       8.908   0.072  26.936  0.00  0.00    +0.152 HD
ATOM     13  C   UNL     1       8.991  -1.123  25.364  0.00  0.00    +0.095 A 
ATOM     14  C   UNL     1       8.719  -2.339  24.734  0.00  0.00    +0.062 A 
ATOM     15  C   UNL     1       9.277  -2.595  23.468  0.00  0.00    +0.025 A 
ATOM     16  C   UNL     1      10.135  -1.674  22.859  0.00  0.00    +0.005 A 
ATOM     17  C   UNL     1      10.416  -0.468  23.486  0.00  0.00    +0.047 A 
ATOM     18  C   UNL     1       9.832  -0.188  24.719  0.00  0.00    +0.140 A 
ATOM     19  N   UNL     1       7.974  -3.354  25.429  0.00  0.00    -0.258 N 
ATOM     20  C   UNL     1       8.422  -4.683  25.324  0.00  0.00    +0.218 C 
ATOM     21  O   UNL     1       7.695  -5.677  25.317  0.00  0.00    -0.276 OA
ATOM     22  C   UNL     1       9.927  -4.903  25.249  0.00  0.00    +0.110 C 
ENDROOT
BRANCH   1  23
ATOM     23  C   UNL     1       5.768  -4.149  26.452  0.00  0.00    -0.004 A 
ATOM     24  C   UNL     1       6.014  -4.266  27.841  0.00  0.00    +0.008 A 
ATOM     25  C   UNL     1       5.299  -5.163  28.634  0.00  0.00    +0.020 A 
ATOM     26  C   UNL     1       4.315  -5.951  28.053  0.00  0.00    +0.042 A 
ATOM     27 CL   UNL     1       3.367  -6.994  29.041  0.00  0.00    -0.083 Cl
ATOM     28  C   UNL     1       4.086  -5.897  26.679  0.00  0.00    +0.040 A 
ATOM     29  C   UNL     1       4.823  -5.015  25.878  0.00  0.00    +0.048 A 
ATOM     30 CL   UNL     1       4.498  -5.034  24.182  0.00  0.00    -0.083 Cl
ENDBRANCH   1  23
BRANCH  18  31
ATOM     31  O   UNL     1      10.060   1.008  25.345  0.00  0.00    -0.505 OA
ATOM     32  H   UNL     1      11.020   1.140  25.404  0.00  0.00    +0.292 HD
ENDBRANCH  18  31
TORSDOF 2
ENDMDL
MODEL 4
REMARK VINA RESULT:      -6.9      2.004      2.380
REMARK  Name = 
REMARK  5 active torsions:
REMARK  status: ('A' for Active; 'I' for Inactive)
REMARK    1  A    between atoms: C_2  and  C_24
REMARK    2  A    between atoms: C_4  and  C_5
REMARK    3  A    between atoms: C_11  and  O_12
REMARK    4  A    between atoms: C_20  and  C_21
REMARK    5  A    between atoms: C_20  and  C_22
REMARK                            x       y       z     vdW  Elec       q    Type
REMARK                         _______ _______ _______ _____ _____    ______ ____
ROOT
ATOM      1  C   UNL     1       7.195  -0.279  24.130  0.00  0.00    +0.148 C 
ATOM      2  C   UNL     1       6.716   0.139  25.530  0.00  0.00    +0.037 C 
ATOM      3  C   UNL     1       5.628  -0.742  26.094  0.00  0.00    +0.163 C 
ATOM      4  C   UNL     1       5.318  -0.672  27.571  0.00  0.00    +0.086 C 
ATOM      5  C   UNL     1       5.222   0.788  28.010  0.00  0.00    -0.023 C 
ATOM      6  C   UNL     1       6.578   1.440  27.701  0.00  0.00    +0.058 C 
ATOM      7  C   UNL     1       4.937   0.864  29.520  0.00  0.00    +0.011 C 
ATOM      8  C   UNL     1       4.077   1.514  27.272  0.00  0.00    +0.011 C 
ATOM      9  O   UNL     1       4.969  -1.482  25.364  0.00  0.00    -0.292 OA
ATOM     10  C   UNL     1       7.099   1.197  26.283  0.00  0.00    +0.017 C 
ATOM     11  N   UNL     1       7.943   2.208  25.840  0.00  0.00    -0.313 N 
ATOM     12  H   UNL     1       8.028   2.978  26.511  0.00  0.00    +0.152 HD
ATOM     13  C   UNL     1       7.694   2.795  24.572  0.00  0.00    +0.095 A 
ATOM     14  C   UNL     1       7.711   2.050  23.390  0.00  0.00    +0.062 A 
ATOM     15  C   UNL     1       7.426   2.692  22.172  0.00  0.00    +0.025 A 
ATOM     16  C   UNL     1       7.177   4.068  22.122  0.00  0.00    +0.005 A 
ATOM     17  C   UNL     1       7.169   4.813  23.292  0.00  0.00    +0.047 A 
ATOM     18  C   UNL     1       7.406   4.177  24.509  0.00  0.00    +0.140 A 
ATOM     19  N   UNL     1       8.129   0.675  23.418  0.00  0.00    -0.258 N 
ATOM     20  C   UNL     1       8.979   0.228  22.391  0.00  0.00    +0.218 C 
ATOM     21  O   UNL     1       8.975  -0.907  21.912  0.00  0.00    -0.276 OA
ATOM     22  C   UNL     1      10.005   1.219  21.860  0.00  0.00    +0.110 C 
ENDROOT
BRANCH   1  23
ATOM     23  C   UNL     1       7.702  -1.738  24.153  0.00  0.00    -0.004 A 
ATOM     24  C   UNL     1       8.769  -2.051  25.029  0.00  0.00    +0.008 A 
ATOM     25  C   UNL     1       9.212  -3.362  25.198  0.00  0.00    +0.020 A 
ATOM     26  C   UNL     1       8.586  -4.387  24.502  0.00  0.00    +0.042 A 
ATOM     27 CL   UNL     1       9.068  -6.017  24.774  0.00  0.00    -0.083 Cl
ATOM     28  C   UNL     1       7.569  -4.105  23.593  0.00  0.00    +0.040 A 
ATOM     29  C   UNL     1       7.141  -2.785  23.403  0.00  0.00    +0.048 A 
ATOM     30 CL   UNL     1       5.896  -2.520  22.235  0.00  0.00    -0.083 Cl
ENDBRANCH   1  23
BRANCH  18  31
ATOM     31  O   UNL     1       7.368   4.879  25.684  0.00  0.00    -0.505 OA
ATOM     32  H   UNL     1       6.994   4.302  26.369  0.00  0.00    +0.292 HD
ENDBRANCH  18  31
TORSDOF 2
ENDMDL
MODEL 5
REMARK VINA RESULT:      -6.7      2.737      5.445
REMARK  Name = 
REMARK  5 active torsions:
REMARK  status: ('A' for Active; 'I' for Inactive)
REMARK    1  A    between atoms: C_2  and  C_24
REMARK    2  A    between atoms: C_4  and  C_5
REMARK    3  A    between atoms: C_11  and  O_12
REMARK    4  A    between atoms: C_20  and  C_21
REMARK    5  A    between atoms: C_20  and  C_22
REMARK                            x       y       z     vdW  Elec       q    Type
REMARK                         _______ _______ _______ _____ _____    ______ ____
ROOT
ATOM      1  C   UNL     1       5.912  -3.004  25.691  0.00  0.00    +0.148 C 
ATOM      2  C   UNL     1       5.955  -3.641  24.291  0.00  0.00    +0.037 C 
ATOM      3  C   UNL     1       5.734  -5.134  24.290  0.00  0.00    +0.163 C 
ATOM      4  C   UNL     1       5.399  -5.825  22.989  0.00  0.00    +0.086 C 
ATOM      5  C   UNL     1       6.340  -5.338  21.889  0.00  0.00    -0.023 C 
ATOM      6  C   UNL     1       6.146  -3.819  21.771  0.00  0.00    +0.058 C 
ATOM      7  C   UNL     1       5.984  -6.017  20.555  0.00  0.00    +0.011 C 
ATOM      8  C   UNL     1       7.807  -5.684  22.222  0.00  0.00    +0.011 C 
ATOM      9  O   UNL     1       5.859  -5.794  25.320  0.00  0.00    -0.292 OA
ATOM     10  C   UNL     1       6.210  -3.058  23.096  0.00  0.00    +0.017 C 
ATOM     11  N   UNL     1       6.622  -1.740  22.940  0.00  0.00    -0.313 N 
ATOM     12  H   UNL     1       6.872  -1.514  21.972  0.00  0.00    +0.152 HD
ATOM     13  C   UNL     1       7.673  -1.254  23.760  0.00  0.00    +0.095 A 
ATOM     14  C   UNL     1       7.577  -1.221  25.153  0.00  0.00    +0.062 A 
ATOM     15  C   UNL     1       8.670  -0.754  25.904  0.00  0.00    +0.025 A 
ATOM     16  C   UNL     1       9.824  -0.276  25.277  0.00  0.00    +0.005 A 
ATOM     17  C   UNL     1       9.921  -0.297  23.893  0.00  0.00    +0.047 A 
ATOM     18  C   UNL     1       8.861  -0.800  23.142  0.00  0.00    +0.140 A 
ATOM     19  N   UNL     1       6.332  -1.555  25.791  0.00  0.00    -0.258 N 
ATOM     20  C   UNL     1       5.911  -0.750  26.864  0.00  0.00    +0.218 C 
ATOM     21  O   UNL     1       5.277  -1.147  27.843  0.00  0.00    -0.276 OA
ATOM     22  C   UNL     1       6.236   0.736  26.785  0.00  0.00    +0.110 C 
ENDROOT
BRANCH   1  23
ATOM     23  C   UNL     1       4.557  -3.304  26.371  0.00  0.00    -0.004 A 
ATOM     24  C   UNL     1       3.381  -2.861  25.719  0.00  0.00    +0.008 A 
ATOM     25  C   UNL     1       2.115  -3.186  26.203  0.00  0.00    +0.020 A 
ATOM     26  C   UNL     1       2.002  -3.973  27.341  0.00  0.00    +0.042 A 
ATOM     27 CL   UNL     1       0.443  -4.455  27.890  0.00  0.00    -0.083 Cl
ATOM     28  C   UNL     1       3.140  -4.380  28.034  0.00  0.00    +0.040 A 
ATOM     29  C   UNL     1       4.412  -4.031  27.564  0.00  0.00    +0.048 A 
ATOM     30 CL   UNL     1       5.768  -4.550  28.500  0.00  0.00    -0.083 Cl
ENDBRANCH   1  23
BRANCH  18  31
ATOM     31  O   UNL     1       8.940  -0.868  21.777  0.00  0.00    -0.505 OA
ATOM     32  H   UNL     1       8.132  -0.478  21.407  0.00  0.00    +0.292 HD
ENDBRANCH  18  31
TORSDOF 2
ENDMDL
MODEL 6
REMARK VINA RESULT:      -6.7      3.173      4.566
REMARK  Name = 
REMARK  5 active torsions:
REMARK  status: ('A' for Active; 'I' for Inactive)
REMARK    1  A    between atoms: C_2  and  C_24
REMARK    2  A    between atoms: C_4  and  C_5
REMARK    3  A    between atoms: C_11  and  O_12
REMARK    4  A    between atoms: C_20  and  C_21
REMARK    5  A    between atoms: C_20  and  C_22
REMARK                            x       y       z     vdW  Elec       q    Type
REMARK                         _______ _______ _______ _____ _____    ______ ____
ROOT
ATOM      1  C   UNL     1       4.312  -4.232  24.095  0.00  0.00    +0.148 C 
ATOM      2  C   UNL     1       4.295  -3.650  25.519  0.00  0.00    +0.037 C 
ATOM      3  C   UNL     1       2.928  -3.214  25.986  0.00  0.00    +0.163 C 
ATOM      4  C   UNL     1       2.702  -2.963  27.459  0.00  0.00    +0.086 C 
ATOM      5  C   UNL     1       3.845  -2.120  28.021  0.00  0.00    -0.023 C 
ATOM      6  C   UNL     1       5.141  -2.912  27.791  0.00  0.00    +0.058 C 
ATOM      7  C   UNL     1       3.634  -1.887  29.526  0.00  0.00    +0.011 C 
ATOM      8  C   UNL     1       3.908  -0.741  27.330  0.00  0.00    +0.011 C 
ATOM      9  O   UNL     1       2.014  -3.026  25.185  0.00  0.00    -0.292 OA
ATOM     10  C   UNL     1       5.330  -3.436  26.366  0.00  0.00    +0.017 C 
ATOM     11  N   UNL     1       6.667  -3.599  26.026  0.00  0.00    -0.313 N 
ATOM     12  H   UNL     1       7.306  -3.284  26.763  0.00  0.00    +0.152 HD
ATOM     13  C   UNL     1       7.132  -3.036  24.809  0.00  0.00    +0.095 A 
ATOM     14  C   UNL     1       6.611  -3.408  23.568  0.00  0.00    +0.062 A 
ATOM     15  C   UNL     1       7.100  -2.786  22.405  0.00  0.00    +0.025 A 
ATOM     16  C   UNL     1       8.131  -1.844  22.470  0.00  0.00    +0.005 A 
ATOM     17  C   UNL     1       8.659  -1.478  23.700  0.00  0.00    +0.047 A 
ATOM     18  C   UNL     1       8.150  -2.056  24.861  0.00  0.00    +0.140 A 
ATOM     19  N   UNL     1       5.671  -4.493  23.485  0.00  0.00    -0.258 N 
ATOM     20  C   UNL     1       5.830  -5.417  22.436  0.00  0.00    +0.218 C 
ATOM     21  O   UNL     1       4.911  -6.002  21.861  0.00  0.00    -0.276 OA
ATOM     22  C   UNL     1       7.255  -5.743  22.010  0.00  0.00    +0.110 C 
ENDROOT
BRANCH   1  23
ATOM     23  C   UNL     1       3.350  -5.437  24.001  0.00  0.00    -0.004 A 
ATOM     24  C   UNL     1       2.239  -5.327  23.131  0.00  0.00    +0.008 A 
ATOM     25  C   UNL     1       1.386  -6.404  22.898  0.00  0.00    +0.020 A 
ATOM     26  C   UNL     1       1.638  -7.619  23.522  0.00  0.00    +0.042 A 
ATOM     27 CL   UNL     1       0.643  -8.978  23.169  0.00  0.00    -0.083 Cl
ATOM     28  C   UNL     1       2.692  -7.745  24.424  0.00  0.00    +0.040 A 
ATOM     29  C   UNL     1       3.533  -6.654  24.679  0.00  0.00    +0.048 A 
ATOM     30 CL   UNL     1       4.797  -6.886  25.834  0.00  0.00    -0.083 Cl
ENDBRANCH   1  23
BRANCH  18  31
ATOM     31  O   UNL     1       8.625  -1.689  26.092  0.00  0.00    -0.505 OA
ATOM     32  H   UNL     1       9.238  -2.377  26.396  0.00  0.00    +0.292 HD
ENDBRANCH  18  31
TORSDOF 2
ENDMDL
MODEL 7
REMARK VINA RESULT:      -6.6      2.610      5.709
REMARK  Name = 
REMARK  5 active torsions:
REMARK  status: ('A' for Active; 'I' for Inactive)
REMARK    1  A    between atoms: C_2  and  C_24
REMARK    2  A    between atoms: C_4  and  C_5
REMARK    3  A    between atoms: C_11  and  O_12
REMARK    4  A    between atoms: C_20  and  C_21
REMARK    5  A    between atoms: C_20  and  C_22
REMARK                            x       y       z     vdW  Elec       q    Type
REMARK                         _______ _______ _______ _____ _____    ______ ____
ROOT
ATOM      1  C   UNL     1       6.649   0.472  25.695  0.00  0.00    +0.148 C 
ATOM      2  C   UNL     1       7.938   1.074  25.109  0.00  0.00    +0.037 C 
ATOM      3  C   UNL     1       7.813   2.527  24.720  0.00  0.00    +0.163 C 
ATOM      4  C   UNL     1       9.068   3.331  24.472  0.00  0.00    +0.086 C 
ATOM      5  C   UNL     1      10.025   2.534  23.588  0.00  0.00    -0.023 C 
ATOM      6  C   UNL     1      10.346   1.230  24.334  0.00  0.00    +0.058 C 
ATOM      7  C   UNL     1      11.317   3.336  23.358  0.00  0.00    +0.011 C 
ATOM      8  C   UNL     1       9.393   2.243  22.210  0.00  0.00    +0.011 C 
ATOM      9  O   UNL     1       6.710   3.051  24.568  0.00  0.00    -0.292 OA
ATOM     10  C   UNL     1       9.124   0.472  24.856  0.00  0.00    +0.017 C 
ATOM     11  N   UNL     1       9.348  -0.895  24.972  0.00  0.00    -0.313 N 
ATOM     12  H   UNL     1      10.273  -1.176  24.632  0.00  0.00    +0.152 HD
ATOM     13  C   UNL     1       8.409  -1.790  24.396  0.00  0.00    +0.095 A 
ATOM     14  C   UNL     1       7.070  -1.819  24.791  0.00  0.00    +0.062 A 
ATOM     15  C   UNL     1       6.188  -2.712  24.156  0.00  0.00    +0.025 A 
ATOM     16  C   UNL     1       6.643  -3.601  23.177  0.00  0.00    +0.005 A 
ATOM     17  C   UNL     1       7.975  -3.582  22.789  0.00  0.00    +0.047 A 
ATOM     18  C   UNL     1       8.846  -2.670  23.381  0.00  0.00    +0.140 A 
ATOM     19  N   UNL     1       6.636  -1.026  25.909  0.00  0.00    -0.258 N 
ATOM     20  C   UNL     1       5.755  -1.619  26.830  0.00  0.00    +0.218 C 
ATOM     21  O   UNL     1       4.871  -1.025  27.449  0.00  0.00    -0.276 OA
ATOM     22  C   UNL     1       5.938  -3.106  27.106  0.00  0.00    +0.110 C 
ENDROOT
BRANCH   1  23
ATOM     23  C   UNL     1       6.199   1.277  26.934  0.00  0.00    -0.004 A 
ATOM     24  C   UNL     1       7.101   1.372  28.021  0.00  0.00    +0.008 A 
ATOM     25  C   UNL     1       6.824   2.171  29.129  0.00  0.00    +0.020 A 
ATOM     26  C   UNL     1       5.644   2.903  29.163  0.00  0.00    +0.042 A 
ATOM     27 CL   UNL     1       5.339   3.962  30.485  0.00  0.00    -0.083 Cl
ATOM     28  C   UNL     1       4.713   2.790  28.133  0.00  0.00    +0.040 A 
ATOM     29  C   UNL     1       4.979   1.965  27.032  0.00  0.00    +0.048 A 
ATOM     30 CL   UNL     1       3.758   1.859  25.815  0.00  0.00    -0.083 Cl
ENDBRANCH   1  23
BRANCH  18  31
ATOM     31  O   UNL     1      10.157  -2.603  22.993  0.00  0.00    -0.505 OA
ATOM     32  H   UNL     1      10.270  -3.162  22.208  0.00  0.00    +0.292 HD
ENDBRANCH  18  31
TORSDOF 2
ENDMDL
MODEL 8
REMARK VINA RESULT:      -6.5      2.752      5.271
REMARK  Name = 
REMARK  5 active torsions:
REMARK  status: ('A' for Active; 'I' for Inactive)
REMARK    1  A    between atoms: C_2  and  C_24
REMARK    2  A    between atoms: C_4  and  C_5
REMARK    3  A    between atoms: C_11  and  O_12
REMARK    4  A    between atoms: C_20  and  C_21
REMARK    5  A    between atoms: C_20  and  C_22
REMARK                            x       y       z     vdW  Elec       q    Type
REMARK                         _______ _______ _______ _____ _____    ______ ____
ROOT
ATOM      1  C   UNL     1       7.037   0.606  25.849  0.00  0.00    +0.148 C 
ATOM      2  C   UNL     1       6.874  -0.629  24.946  0.00  0.00    +0.037 C 
ATOM      3  C   UNL     1       6.811  -1.935  25.701  0.00  0.00    +0.163 C 
ATOM      4  C   UNL     1       6.304  -3.168  24.991  0.00  0.00    +0.086 C 
ATOM      5  C   UNL     1       6.959  -3.279  23.616  0.00  0.00    -0.023 C 
ATOM      6  C   UNL     1       6.591  -2.006  22.838  0.00  0.00    +0.058 C 
ATOM      7  C   UNL     1       6.423  -4.517  22.877  0.00  0.00    +0.011 C 
ATOM      8  C   UNL     1       8.490  -3.427  23.743  0.00  0.00    +0.011 C 
ATOM      9  O   UNL     1       7.200  -2.015  26.865  0.00  0.00    -0.292 OA
ATOM     10  C   UNL     1       6.832  -0.699  23.595  0.00  0.00    +0.017 C 
ATOM     11  N   UNL     1       7.068   0.377  22.748  0.00  0.00    -0.313 N 
ATOM     12  H   UNL     1       7.102   0.105  21.760  0.00  0.00    +0.152 HD
ATOM     13  C   UNL     1       8.203   1.195  22.987  0.00  0.00    +0.095 A 
ATOM     14  C   UNL     1       8.375   1.898  24.182  0.00  0.00    +0.062 A 
ATOM     15  C   UNL     1       9.539   2.667  24.362  0.00  0.00    +0.025 A 
ATOM     16  C   UNL     1      10.496   2.777  23.348  0.00  0.00    +0.005 A 
ATOM     17  C   UNL     1      10.324   2.087  22.156  0.00  0.00    +0.047 A 
ATOM     18  C   UNL     1       9.196   1.288  21.986  0.00  0.00    +0.140 A 
ATOM     19  N   UNL     1       7.319   1.921  25.156  0.00  0.00    -0.258 N 
ATOM     20  C   UNL     1       7.032   3.147  25.783  0.00  0.00    +0.218 C 
ATOM     21  O   UNL     1       6.644   3.275  26.945  0.00  0.00    -0.276 OA
ATOM     22  C   UNL     1       7.182   4.407  24.941  0.00  0.00    +0.110 C 
ENDROOT
BRANCH   1  23
ATOM     23  C   UNL     1       5.878   0.679  26.867  0.00  0.00    -0.004 A 
ATOM     24  C   UNL     1       4.556   0.680  26.361  0.00  0.00    +0.008 A 
ATOM     25  C   UNL     1       3.451   0.629  27.210  0.00  0.00    +0.020 A 
ATOM     26  C   UNL     1       3.649   0.562  28.582  0.00  0.00    +0.042 A 
ATOM     27 CL   UNL     1       2.293   0.406  29.631  0.00  0.00    -0.083 Cl
ATOM     28  C   UNL     1       4.937   0.612  29.113  0.00  0.00    +0.040 A 
ATOM     29  C   UNL     1       6.046   0.691  28.262  0.00  0.00    +0.048 A 
ATOM     30 CL   UNL     1       7.604   0.779  29.003  0.00  0.00    -0.083 Cl
ENDBRANCH   1  23
BRANCH  18  31
ATOM     31  O   UNL     1       9.017   0.567  20.835  0.00  0.00    -0.505 OA
ATOM     32  H   UNL     1       8.590  -0.273  21.068  0.00  0.00    +0.292 HD
ENDBRANCH  18  31
TORSDOF 2
ENDMDL
MODEL 9
REMARK VINA RESULT:      -6.5      2.173      2.809
REMARK  Name = 
REMARK  5 active torsions:
REMARK  status: ('A' for Active; 'I' for Inactive)
REMARK    1  A    between atoms: C_2  and  C_24
REMARK    2  A    between atoms: C_4  and  C_5
REMARK    3  A    between atoms: C_11  and  O_12
REMARK    4  A    between atoms: C_20  and  C_21
REMARK    5  A    between atoms: C_20  and  C_22
REMARK                            x       y       z     vdW  Elec       q    Type
REMARK                         _______ _______ _______ _____ _____    ______ ____
ROOT
ATOM      1  C   UNL     1       5.749  -2.469  25.076  0.00  0.00    +0.148 C 
ATOM      2  C   UNL     1       6.196  -1.408  26.095  0.00  0.00    +0.037 C 
ATOM      3  C   UNL     1       5.065  -0.582  26.657  0.00  0.00    +0.163 C 
ATOM      4  C   UNL     1       5.302   0.235  27.905  0.00  0.00    +0.086 C 
ATOM      5  C   UNL     1       6.620   0.996  27.782  0.00  0.00    -0.023 C 
ATOM      6  C   UNL     1       7.728  -0.051  27.591  0.00  0.00    +0.058 C 
ATOM      7  C   UNL     1       6.881   1.806  29.063  0.00  0.00    +0.011 C 
ATOM      8  C   UNL     1       6.580   1.982  26.595  0.00  0.00    +0.011 C 
ATOM      9  O   UNL     1       3.971  -0.538  26.094  0.00  0.00    -0.292 OA
ATOM     10  C   UNL     1       7.448  -1.092  26.506  0.00  0.00    +0.017 C 
ATOM     11  N   UNL     1       8.609  -1.616  25.952  0.00  0.00    -0.313 N 
ATOM     12  H   UNL     1       9.458  -1.175  26.318  0.00  0.00    +0.152 HD
ATOM     13  C   UNL     1       8.736  -1.642  24.538  0.00  0.00    +0.095 A 
ATOM     14  C   UNL     1       7.845  -2.344  23.723  0.00  0.00    +0.062 A 
ATOM     15  C   UNL     1       8.015  -2.301  22.327  0.00  0.00    +0.025 A 
ATOM     16  C   UNL     1       9.087  -1.612  21.752  0.00  0.00    +0.005 A 
ATOM     17  C   UNL     1       9.981  -0.922  22.559  0.00  0.00    +0.047 A 
ATOM     18  C   UNL     1       9.794  -0.921  23.939  0.00  0.00    +0.140 A 
ATOM     19  N   UNL     1       6.844  -3.186  24.318  0.00  0.00    -0.258 N 
ATOM     20  C   UNL     1       6.617  -4.446  23.734  0.00  0.00    +0.218 C 
ATOM     21  O   UNL     1       5.528  -5.019  23.687  0.00  0.00    -0.276 OA
ATOM     22  C   UNL     1       7.824  -5.166  23.149  0.00  0.00    +0.110 C 
ENDROOT
BRANCH   1  23
ATOM     23  C   UNL     1       4.714  -3.420  25.715  0.00  0.00    -0.004 A 
ATOM     24  C   UNL     1       3.403  -3.423  25.181  0.00  0.00    +0.008 A 
ATOM     25  C   UNL     1       2.439  -4.329  25.621  0.00  0.00    +0.020 A 
ATOM     26  C   UNL     1       2.774  -5.260  26.596  0.00  0.00    +0.042 A 
ATOM     27 CL   UNL     1       1.618  -6.440  27.077  0.00  0.00    -0.083 Cl
ATOM     28  C   UNL     1       4.040  -5.248  27.178  0.00  0.00    +0.040 A 
ATOM     29  C   UNL     1       5.000  -4.320  26.755  0.00  0.00    +0.048 A 
ATOM     30 CL   UNL     1       6.533  -4.354  27.551  0.00  0.00    -0.083 Cl
ENDBRANCH   1  23
BRANCH  18  31
ATOM     31  O   UNL     1      10.638  -0.220  24.759  0.00  0.00    -0.505 OA
ATOM     32  H   UNL     1      11.251   0.285  24.201  0.00  0.00    +0.292 HD
ENDBRANCH  18  31
TORSDOF 2
ENDMDL
