MODEL 1
REMARK VINA RESULT:      -7.0      0.000      0.000
REMARK  Name = 
REMARK  11 active torsions:
REMARK  status: ('A' for Active; 'I' for Inactive)
REMARK    1  A    between atoms: C_2  and  C_3
REMARK    2  A    between atoms: C_3  and  C_5
REMARK    3  A    between atoms: C_3  and  O_6
REMARK    4  A    between atoms: C_10  and  C_11
REMARK    5  A    between atoms: C_11  and  O_12
REMARK    6  A    between atoms: C_14  and  S_15
REMARK    7  A    between atoms: S_15  and  C_16
REMARK    8  A    between atoms: C_20  and  C_23
REMARK    9  A    between atoms: N_25  and  C_26
REMARK   10  A    between atoms: N_25  and  C_27
REMARK   11  A    between atoms: C_28  and  C_30
REMARK                            x       y       z     vdW  Elec       q    Type
REMARK                         _______ _______ _______ _____ _____    ______ ____
ROOT
ATOM      1  C   UNL     1       5.243  -5.148  24.553  0.00  0.00    +0.125 C 
ATOM      2  C   UNL     1       6.390  -5.192  23.490  0.00  0.00    +0.104 C 
ATOM      3  N   UNL     1       7.293  -5.632  24.591  0.00  0.00    -0.260 N 
ATOM      4  C   UNL     1       8.324  -4.712  24.711  0.00  0.00    +0.131 C 
ATOM      5  C   UNL     1       8.253  -3.747  23.770  0.00  0.00    +0.019 C 
ATOM      6  C   UNL     1       7.059  -3.962  22.869  0.00  0.00    +0.046 C 
ATOM      7  C   UNL     1       6.088  -2.799  22.729  0.00  0.00    +0.015 C 
ATOM      8  C   UNL     1       6.303  -5.681  25.529  0.00  0.00    +0.228 C 
ATOM      9  O   UNL     1       6.383  -5.995  26.695  0.00  0.00    -0.275 OA
ENDROOT
BRANCH   4  10
ATOM     10  C   UNL     1       9.356  -4.886  25.784  0.00  0.00    +0.352 C 
ATOM     11  O   UNL     1       9.280  -4.437  26.918  0.00  0.00    -0.244 OA
BRANCH  10  12
ATOM     12  O   UNL     1      10.468  -5.534  25.365  0.00  0.00    -0.476 OA
ATOM     13  H   UNL     1      10.590  -5.500  24.392  0.00  0.00    +0.295 HD
ENDBRANCH  10  12
ENDBRANCH   4  10
BRANCH   1  14
ATOM     14  C   UNL     1       4.059  -6.057  24.291  0.00  0.00    +0.125 C 
ATOM     15  C   UNL     1       3.126  -5.436  23.263  0.00  0.00    +0.038 C 
BRANCH  14  16
ATOM     16  O   UNL     1       4.545  -7.287  23.752  0.00  0.00    -0.391 OA
ATOM     17  H   UNL     1       5.451  -7.145  23.429  0.00  0.00    +0.210 HD
ENDBRANCH  14  16
ENDBRANCH   1  14
BRANCH   5  18
ATOM     18  S   UNL     1       9.253  -2.359  23.589  0.00  0.00    -0.122 S 
BRANCH  18  19
ATOM     19  C   UNL     1       9.011  -1.385  25.122  0.00  0.00    +0.067 C 
ATOM     20  C   UNL     1       9.278   0.103  24.946  0.00  0.00    +0.044 C 
ATOM     21  C   UNL     1       7.912   0.795  24.943  0.00  0.00    +0.142 C 
ATOM     22  N   UNL     1       6.927  -0.289  25.168  0.00  0.00    -0.305 NA
ATOM     23  H   UNL     1       6.135   0.035  25.716  0.00  0.00    +0.123 HD
ATOM     24  C   UNL     1       7.629  -1.418  25.760  0.00  0.00    +0.096 C 
BRANCH  21  25
ATOM     25  C   UNL     1       7.549   1.571  23.642  0.00  0.00    +0.232 C 
ATOM     26  N   UNL     1       7.860   2.924  23.557  0.00  0.00    -0.306 N 
ATOM     27  C   UNL     1       7.567   3.641  22.323  0.00  0.00    +0.131 C 
ATOM     28  C   UNL     1       8.452   3.733  24.610  0.00  0.00    +0.131 C 
ATOM     29  O   UNL     1       6.955   1.005  22.715  0.00  0.00    -0.274 OA
ENDBRANCH  21  25
ENDBRANCH  18  19
ENDBRANCH   5  18
TORSDOF 7
ENDMDL
MODEL 2
REMARK VINA RESULT:      -6.9      1.834      2.277
REMARK  Name = 
REMARK  11 active torsions:
REMARK  status: ('A' for Active; 'I' for Inactive)
REMARK    1  A    between atoms: C_2  and  C_3
REMARK    2  A    between atoms: C_3  and  C_5
REMARK    3  A    between atoms: C_3  and  O_6
REMARK    4  A    between atoms: C_10  and  C_11
REMARK    5  A    between atoms: C_11  and  O_12
REMARK    6  A    between atoms: C_14  and  S_15
REMARK    7  A    between atoms: S_15  and  C_16
REMARK    8  A    between atoms: C_20  and  C_23
REMARK    9  A    between atoms: N_25  and  C_26
REMARK   10  A    between atoms: N_25  and  C_27
REMARK   11  A    between atoms: C_28  and  C_30
REMARK                            x       y       z     vdW  Elec       q    Type
REMARK                         _______ _______ _______ _____ _____    ______ ____
ROOT
ATOM      1  C   UNL     1       5.091  -4.940  26.243  0.00  0.00    +0.125 C 
ATOM      2  C   UNL     1       5.687  -4.639  24.829  0.00  0.00    +0.104 C 
ATOM      3  N   UNL     1       6.943  -5.288  25.302  0.00  0.00    -0.260 N 
ATOM      4  C   UNL     1       7.976  -4.366  25.217  0.00  0.00    +0.131 C 
ATOM      5  C   UNL     1       7.570  -3.199  24.675  0.00  0.00    +0.019 C 
ATOM      6  C   UNL     1       6.099  -3.251  24.327  0.00  0.00    +0.046 C 
ATOM      7  C   UNL     1       5.219  -2.154  24.909  0.00  0.00    +0.015 C 
ATOM      8  C   UNL     1       6.432  -5.637  26.518  0.00  0.00    +0.228 C 
ATOM      9  O   UNL     1       6.974  -6.234  27.421  0.00  0.00    -0.275 OA
ENDROOT
BRANCH   4  10
ATOM     10  C   UNL     1       9.351  -4.743  25.680  0.00  0.00    +0.352 C 
ATOM     11  O   UNL     1      10.275  -5.076  24.954  0.00  0.00    -0.244 OA
BRANCH  10  12
ATOM     12  O   UNL     1       9.478  -4.772  27.027  0.00  0.00    -0.476 OA
ATOM     13  H   UNL     1      10.230  -5.324  27.332  0.00  0.00    +0.295 HD
ENDBRANCH  10  12
ENDBRANCH   4  10
BRANCH   1  14
ATOM     14  C   UNL     1       3.860  -5.825  26.271  0.00  0.00    +0.125 C 
ATOM     15  C   UNL     1       3.178  -5.832  24.911  0.00  0.00    +0.038 C 
BRANCH  14  16
ATOM     16  O   UNL     1       4.272  -7.161  26.559  0.00  0.00    -0.391 OA
ATOM     17  H   UNL     1       4.497  -7.602  25.722  0.00  0.00    +0.210 HD
ENDBRANCH  14  16
ENDBRANCH   1  14
BRANCH   5  18
ATOM     18  S   UNL     1       8.472  -1.750  24.460  0.00  0.00    -0.122 S 
BRANCH  18  19
ATOM     19  C   UNL     1       8.037  -1.154  22.783  0.00  0.00    +0.067 C 
ATOM     20  C   UNL     1       7.485   0.265  22.766  0.00  0.00    +0.044 C 
ATOM     21  C   UNL     1       8.594   1.159  22.201  0.00  0.00    +0.142 C 
ATOM     22  N   UNL     1       9.704   0.235  21.866  0.00  0.00    -0.305 NA
ATOM     23  H   UNL     1      10.210   0.545  21.041  0.00  0.00    +0.123 HD
ATOM     24  C   UNL     1       9.152  -1.106  21.747  0.00  0.00    +0.096 C 
BRANCH  21  25
ATOM     25  C   UNL     1       9.112   2.278  23.151  0.00  0.00    +0.232 C 
ATOM     26  N   UNL     1       8.479   3.516  23.140  0.00  0.00    -0.306 N 
ATOM     27  C   UNL     1       8.929   4.549  24.063  0.00  0.00    +0.131 C 
ATOM     28  C   UNL     1       7.388   3.910  22.264  0.00  0.00    +0.131 C 
ATOM     29  O   UNL     1      10.098   2.085  23.874  0.00  0.00    -0.274 OA
ENDBRANCH  21  25
ENDBRANCH  18  19
ENDBRANCH   5  18
TORSDOF 7
ENDMDL
MODEL 3
REMARK VINA RESULT:      -6.8      2.530      7.201
REMARK  Name = 
REMARK  11 active torsions:
REMARK  status: ('A' for Active; 'I' for Inactive)
REMARK    1  A    between atoms: C_2  and  C_3
REMARK    2  A    between atoms: C_3  and  C_5
REMARK    3  A    between atoms: C_3  and  O_6
REMARK    4  A    between atoms: C_10  and  C_11
REMARK    5  A    between atoms: C_11  and  O_12
REMARK    6  A    between atoms: C_14  and  S_15
REMARK    7  A    between atoms: S_15  and  C_16
REMARK    8  A    between atoms: C_20  and  C_23
REMARK    9  A    between atoms: N_25  and  C_26
REMARK   10  A    between atoms: N_25  and  C_27
REMARK   11  A    between atoms: C_28  and  C_30
REMARK                            x       y       z     vdW  Elec       q    Type
REMARK                         _______ _______ _______ _____ _____    ______ ____
ROOT
ATOM      1  C   UNL     1       9.207   1.090  23.430  0.00  0.00    +0.125 C 
ATOM      2  C   UNL     1       8.487   0.059  22.500  0.00  0.00    +0.104 C 
ATOM      3  N   UNL     1       7.352   0.091  23.466  0.00  0.00    -0.260 N 
ATOM      4  C   UNL     1       7.151  -1.191  23.954  0.00  0.00    +0.131 C 
ATOM      5  C   UNL     1       7.972  -2.090  23.372  0.00  0.00    +0.019 C 
ATOM      6  C   UNL     1       8.873  -1.417  22.361  0.00  0.00    +0.046 C 
ATOM      7  C   UNL     1      10.371  -1.629  22.531  0.00  0.00    +0.015 C 
ATOM      8  C   UNL     1       7.915   1.048  24.259  0.00  0.00    +0.228 C 
ATOM      9  O   UNL     1       7.467   1.553  25.264  0.00  0.00    -0.275 OA
ENDROOT
BRANCH   4  10
ATOM     10  C   UNL     1       6.093  -1.436  24.989  0.00  0.00    +0.352 C 
ATOM     11  O   UNL     1       6.276  -1.448  26.197  0.00  0.00    -0.244 OA
BRANCH  10  12
ATOM     12  O   UNL     1       4.884  -1.739  24.465  0.00  0.00    -0.476 OA
ATOM     13  H   UNL     1       4.304  -0.956  24.352  0.00  0.00    +0.295 HD
ENDBRANCH  10  12
ENDBRANCH   4  10
BRANCH   1  14
ATOM     14  C   UNL     1       9.553   2.424  22.800  0.00  0.00    +0.125 C 
ATOM     15  C   UNL     1      10.769   3.036  23.480  0.00  0.00    +0.038 C 
BRANCH  14  16
ATOM     16  O   UNL     1       9.887   2.204  21.429  0.00  0.00    -0.391 OA
ATOM     17  H   UNL     1       9.495   1.359  21.149  0.00  0.00    +0.210 HD
ENDBRANCH  14  16
ENDBRANCH   1  14
BRANCH   5  18
ATOM     18  S   UNL     1       8.142  -3.764  23.724  0.00  0.00    -0.122 S 
BRANCH  18  19
ATOM     19  C   UNL     1       7.174  -4.630  22.431  0.00  0.00    +0.067 C 
ATOM     20  C   UNL     1       6.277  -5.732  22.978  0.00  0.00    +0.044 C 
ATOM     21  C   UNL     1       4.843  -5.196  22.919  0.00  0.00    +0.142 C 
ATOM     22  N   UNL     1       4.955  -3.854  22.302  0.00  0.00    -0.305 NA
ATOM     23  H   UNL     1       4.147  -3.643  21.722  0.00  0.00    +0.123 HD
ATOM     24  C   UNL     1       6.222  -3.791  21.590  0.00  0.00    +0.096 C 
BRANCH  21  25
ATOM     25  C   UNL     1       4.106  -5.085  24.287  0.00  0.00    +0.232 C 
ATOM     26  N   UNL     1       2.744  -5.361  24.342  0.00  0.00    -0.306 N 
ATOM     27  C   UNL     1       2.062  -5.305  25.628  0.00  0.00    +0.131 C 
ATOM     28  C   UNL     1       1.894  -5.696  23.212  0.00  0.00    +0.131 C 
ATOM     29  O   UNL     1       4.711  -4.713  25.301  0.00  0.00    -0.274 OA
ENDBRANCH  21  25
ENDBRANCH  18  19
ENDBRANCH   5  18
TORSDOF 7
ENDMDL
MODEL 4
REMARK VINA RESULT:      -6.8      2.628      4.214
REMARK  Name = 
REMARK  11 active torsions:
REMARK  status: ('A' for Active; 'I' for Inactive)
REMARK    1  A    between atoms: C_2  and  C_3
REMARK    2  A    between atoms: C_3  and  C_5
REMARK    3  A    between atoms: C_3  and  O_6
REMARK    4  A    between atoms: C_10  and  C_11
REMARK    5  A    between atoms: C_11  and  O_12
REMARK    6  A    between atoms: C_14  and  S_15
REMARK    7  A    between atoms: S_15  and  C_16
REMARK    8  A    between atoms: C_20  and  C_23
REMARK    9  A    between atoms: N_25  and  C_26
REMARK   10  A    between atoms: N_25  and  C_27
REMARK   11  A    between atoms: C_28  and  C_30
REMARK                            x       y       z     vdW  Elec       q    Type
REMARK                         _______ _______ _______ _____ _____    ______ ____
ROOT
ATOM      1  C   UNL     1       7.666  -3.753  24.086  0.00  0.00    +0.125 C 
ATOM      2  C   UNL     1       7.131  -2.570  23.214  0.00  0.00    +0.104 C 
ATOM      3  N   UNL     1       8.532  -2.062  23.177  0.00  0.00    -0.260 N 
ATOM      4  C   UNL     1       8.554  -0.789  23.728  0.00  0.00    +0.131 C 
ATOM      5  C   UNL     1       7.319  -0.360  24.062  0.00  0.00    +0.019 C 
ATOM      6  C   UNL     1       6.280  -1.409  23.737  0.00  0.00    +0.046 C 
ATOM      7  C   UNL     1       5.366  -1.844  24.874  0.00  0.00    +0.015 C 
ATOM      8  C   UNL     1       9.048  -3.119  23.869  0.00  0.00    +0.228 C 
ATOM      9  O   UNL     1      10.199  -3.327  24.181  0.00  0.00    -0.275 OA
ENDROOT
BRANCH   4  10
ATOM     10  C   UNL     1       9.857  -0.059  23.862  0.00  0.00    +0.352 C 
ATOM     11  O   UNL     1      10.530   0.004  24.879  0.00  0.00    -0.244 OA
BRANCH  10  12
ATOM     12  O   UNL     1      10.208   0.628  22.751  0.00  0.00    -0.476 OA
ATOM     13  H   UNL     1      10.722   1.441  22.945  0.00  0.00    +0.295 HD
ENDBRANCH  10  12
ENDBRANCH   4  10
BRANCH   1  14
ATOM     14  C   UNL     1       7.472  -5.143  23.511  0.00  0.00    +0.125 C 
ATOM     15  C   UNL     1       7.055  -5.063  22.050  0.00  0.00    +0.038 C 
BRANCH  14  16
ATOM     16  O   UNL     1       8.720  -5.834  23.571  0.00  0.00    -0.391 OA
ATOM     17  H   UNL     1       8.922  -6.026  24.502  0.00  0.00    +0.210 HD
ENDBRANCH  14  16
ENDBRANCH   1  14
BRANCH   5  18
ATOM     18  S   UNL     1       6.875   1.101  24.853  0.00  0.00    -0.122 S 
BRANCH  18  19
ATOM     19  C   UNL     1       6.367   2.241  23.511  0.00  0.00    +0.067 C 
ATOM     20  C   UNL     1       6.743   3.693  23.772  0.00  0.00    +0.044 C 
ATOM     21  C   UNL     1       7.924   4.012  22.850  0.00  0.00    +0.142 C 
ATOM     22  N   UNL     1       8.148   2.774  22.066  0.00  0.00    -0.305 NA
ATOM     23  H   UNL     1       8.459   2.983  21.121  0.00  0.00    +0.123 HD
ATOM     24  C   UNL     1       6.930   1.980  22.121  0.00  0.00    +0.096 C 
BRANCH  21  25
ATOM     25  C   UNL     1       9.245   4.427  23.562  0.00  0.00    +0.232 C 
ATOM     26  N   UNL     1       9.476   5.775  23.817  0.00  0.00    -0.306 N 
ATOM     27  C   UNL     1      10.688   6.163  24.526  0.00  0.00    +0.131 C 
ATOM     28  C   UNL     1       8.616   6.879  23.424  0.00  0.00    +0.131 C 
ATOM     29  O   UNL     1      10.097   3.579  23.857  0.00  0.00    -0.274 OA
ENDBRANCH  21  25
ENDBRANCH  18  19
ENDBRANCH   5  18
TORSDOF 7
ENDMDL
MODEL 5
REMARK VINA RESULT:      -6.8      2.363      3.411
REMARK  Name = 
REMARK  11 active torsions:
REMARK  status: ('A' for Active; 'I' for Inactive)
REMARK    1  A    between atoms: C_2  and  C_3
REMARK    2  A    between atoms: C_3  and  C_5
REMARK    3  A    between atoms: C_3  and  O_6
REMARK    4  A    between atoms: C_10  and  C_11
REMARK    5  A    between atoms: C_11  and  O_12
REMARK    6  A    between atoms: C_14  and  S_15
REMARK    7  A    between atoms: S_15  and  C_16
REMARK    8  A    between atoms: C_20  and  C_23
REMARK    9  A    between atoms: N_25  and  C_26
REMARK   10  A    between atoms: N_25  and  C_27
REMARK   11  A    between atoms: C_28  and  C_30
REMARK                            x       y       z     vdW  Elec       q    Type
REMARK                         _______ _______ _______ _____ _____    ______ ____
ROOT
ATOM      1  C   UNL     1       6.188  -4.406  24.153  0.00  0.00    +0.125 C 
ATOM      2  C   UNL     1       6.010  -3.110  23.296  0.00  0.00    +0.104 C 
ATOM      3  N   UNL     1       7.400  -3.333  22.807  0.00  0.00    -0.260 N 
ATOM      4  C   UNL     1       8.167  -2.226  23.138  0.00  0.00    +0.131 C 
ATOM      5  C   UNL     1       7.434  -1.259  23.729  0.00  0.00    +0.019 C 
ATOM      6  C   UNL     1       5.988  -1.684  23.855  0.00  0.00    +0.046 C 
ATOM      7  C   UNL     1       5.378  -1.631  25.248  0.00  0.00    +0.015 C 
ATOM      8  C   UNL     1       7.563  -4.509  23.479  0.00  0.00    +0.228 C 
ATOM      9  O   UNL     1       8.527  -5.241  23.494  0.00  0.00    -0.275 OA
ENDROOT
BRANCH   4  10
ATOM     10  C   UNL     1       9.629  -2.206  22.805  0.00  0.00    +0.352 C 
ATOM     11  O   UNL     1      10.529  -2.563  23.550  0.00  0.00    -0.244 OA
BRANCH  10  12
ATOM     12  O   UNL     1       9.901  -1.663  21.596  0.00  0.00    -0.476 OA
ATOM     13  H   UNL     1      10.723  -2.013  21.191  0.00  0.00    +0.295 HD
ENDBRANCH  10  12
ENDBRANCH   4  10
BRANCH   1  14
ATOM     14  C   UNL     1       5.216  -5.534  23.864  0.00  0.00    +0.125 C 
ATOM     15  C   UNL     1       3.905  -4.982  23.323  0.00  0.00    +0.038 C 
BRANCH  14  16
ATOM     16  O   UNL     1       5.785  -6.371  22.856  0.00  0.00    -0.391 OA
ATOM     17  H   UNL     1       5.748  -7.293  23.165  0.00  0.00    +0.210 HD
ENDBRANCH  14  16
ENDBRANCH   1  14
BRANCH   5  18
ATOM     18  S   UNL     1       7.971   0.236  24.387  0.00  0.00    -0.122 S 
BRANCH  18  19
ATOM     19  C   UNL     1       7.121   1.529  23.406  0.00  0.00    +0.067 C 
ATOM     20  C   UNL     1       7.398   2.944  23.895  0.00  0.00    +0.044 C 
ATOM     21  C   UNL     1       8.356   3.577  22.880  0.00  0.00    +0.142 C 
ATOM     22  N   UNL     1       8.550   2.545  21.834  0.00  0.00    -0.305 NA
ATOM     23  H   UNL     1       8.662   2.965  20.915  0.00  0.00    +0.123 HD
ATOM     24  C   UNL     1       7.443   1.604  21.920  0.00  0.00    +0.096 C 
BRANCH  21  25
ATOM     25  C   UNL     1       9.739   4.021  23.442  0.00  0.00    +0.232 C 
ATOM     26  N   UNL     1       9.976   5.375  23.654  0.00  0.00    -0.306 N 
ATOM     27  C   UNL     1      11.250   5.789  24.224  0.00  0.00    +0.131 C 
ATOM     28  C   UNL     1       9.062   6.461  23.341  0.00  0.00    +0.131 C 
ATOM     29  O   UNL     1      10.630   3.189  23.654  0.00  0.00    -0.274 OA
ENDBRANCH  21  25
ENDBRANCH  18  19
ENDBRANCH   5  18
TORSDOF 7
ENDMDL
MODEL 6
REMARK VINA RESULT:      -6.8      2.458      6.869
REMARK  Name = 
REMARK  11 active torsions:
REMARK  status: ('A' for Active; 'I' for Inactive)
REMARK    1  A    between atoms: C_2  and  C_3
REMARK    2  A    between atoms: C_3  and  C_5
REMARK    3  A    between atoms: C_3  and  O_6
REMARK    4  A    between atoms: C_10  and  C_11
REMARK    5  A    between atoms: C_11  and  O_12
REMARK    6  A    between atoms: C_14  and  S_15
REMARK    7  A    between atoms: S_15  and  C_16
REMARK    8  A    between atoms: C_20  and  C_23
REMARK    9  A    between atoms: N_25  and  C_26
REMARK   10  A    between atoms: N_25  and  C_27
REMARK   11  A    between atoms: C_28  and  C_30
REMARK                            x       y       z     vdW  Elec       q    Type
REMARK                         _______ _______ _______ _____ _____    ______ ____
ROOT
ATOM      1  C   UNL     1       9.641   0.543  23.154  0.00  0.00    +0.125 C 
ATOM      2  C   UNL     1       8.492  -0.501  23.336  0.00  0.00    +0.104 C 
ATOM      3  N   UNL     1       7.986   0.358  24.444  0.00  0.00    -0.260 N 
ATOM      4  C   UNL     1       7.969  -0.391  25.611  0.00  0.00    +0.131 C 
ATOM      5  C   UNL     1       8.337  -1.671  25.397  0.00  0.00    +0.019 C 
ATOM      6  C   UNL     1       8.663  -1.899  23.938  0.00  0.00    +0.046 C 
ATOM      7  C   UNL     1      10.032  -2.486  23.626  0.00  0.00    +0.015 C 
ATOM      8  C   UNL     1       8.928   1.329  24.264  0.00  0.00    +0.228 C 
ATOM      9  O   UNL     1       9.068   2.366  24.874  0.00  0.00    -0.275 OA
ENDROOT
BRANCH   4  10
ATOM     10  C   UNL     1       7.548   0.249  26.900  0.00  0.00    +0.352 C 
ATOM     11  O   UNL     1       6.512   0.872  27.074  0.00  0.00    -0.244 OA
BRANCH  10  12
ATOM     12  O   UNL     1       8.477   0.155  27.879  0.00  0.00    -0.476 OA
ATOM     13  H   UNL     1       8.127  -0.238  28.707  0.00  0.00    +0.295 HD
ENDBRANCH  10  12
ENDBRANCH   4  10
BRANCH   1  14
ATOM     14  C   UNL     1       9.717   1.220  21.800  0.00  0.00    +0.125 C 
ATOM     15  C   UNL     1       8.321   1.459  21.244  0.00  0.00    +0.038 C 
BRANCH  14  16
ATOM     16  O   UNL     1      10.344   2.492  21.965  0.00  0.00    -0.391 OA
ATOM     17  H   UNL     1      11.207   2.357  22.392  0.00  0.00    +0.210 HD
ENDBRANCH  14  16
ENDBRANCH   1  14
BRANCH   5  18
ATOM     18  S   UNL     1       8.550  -2.928  26.551  0.00  0.00    -0.122 S 
BRANCH  18  19
ATOM     19  C   UNL     1       6.873  -3.607  26.842  0.00  0.00    +0.067 C 
ATOM     20  C   UNL     1       5.988  -3.593  25.603  0.00  0.00    +0.044 C 
ATOM     21  C   UNL     1       5.894  -5.043  25.117  0.00  0.00    +0.142 C 
ATOM     22  N   UNL     1       6.667  -5.834  26.104  0.00  0.00    -0.305 NA
ATOM     23  H   UNL     1       6.259  -6.754  26.243  0.00  0.00    +0.123 HD
ATOM     24  C   UNL     1       6.775  -5.048  27.324  0.00  0.00    +0.096 C 
BRANCH  21  25
ATOM     25  C   UNL     1       6.442  -5.312  23.685  0.00  0.00    +0.232 C 
ATOM     26  N   UNL     1       5.548  -5.657  22.676  0.00  0.00    -0.306 N 
ATOM     27  C   UNL     1       6.051  -5.862  21.325  0.00  0.00    +0.131 C 
ATOM     28  C   UNL     1       4.117  -5.857  22.835  0.00  0.00    +0.131 C 
ATOM     29  O   UNL     1       7.657  -5.265  23.455  0.00  0.00    -0.274 OA
ENDBRANCH  21  25
ENDBRANCH  18  19
ENDBRANCH   5  18
TORSDOF 7
ENDMDL
MODEL 7
REMARK VINA RESULT:      -6.8      2.416      7.750
REMARK  Name = 
REMARK  11 active torsions:
REMARK  status: ('A' for Active; 'I' for Inactive)
REMARK    1  A    between atoms: C_2  and  C_3
REMARK    2  A    between atoms: C_3  and  C_5
REMARK    3  A    between atoms: C_3  and  O_6
REMARK    4  A    between atoms: C_10  and  C_11
REMARK    5  A    between atoms: C_11  and  O_12
REMARK    6  A    between atoms: C_14  and  S_15
REMARK    7  A    between atoms: S_15  and  C_16
REMARK    8  A    between atoms: C_20  and  C_23
REMARK    9  A    between atoms: N_25  and  C_26
REMARK   10  A    between atoms: N_25  and  C_27
REMARK   11  A    between atoms: C_28  and  C_30
REMARK                            x       y       z     vdW  Elec       q    Type
REMARK                         _______ _______ _______ _____ _____    ______ ____
ROOT
ATOM      1  C   UNL     1       8.461   2.822  23.196  0.00  0.00    +0.125 C 
ATOM      2  C   UNL     1       8.371   1.694  24.274  0.00  0.00    +0.104 C 
ATOM      3  N   UNL     1       9.421   0.973  23.501  0.00  0.00    -0.260 N 
ATOM      4  C   UNL     1       8.916  -0.258  23.110  0.00  0.00    +0.131 C 
ATOM      5  C   UNL     1       7.674  -0.473  23.594  0.00  0.00    +0.019 C 
ATOM      6  C   UNL     1       7.208   0.707  24.417  0.00  0.00    +0.046 C 
ATOM      7  C   UNL     1       5.880   1.336  24.021  0.00  0.00    +0.015 C 
ATOM      8  C   UNL     1       9.584   1.971  22.585  0.00  0.00    +0.228 C 
ATOM      9  O   UNL     1      10.342   2.013  21.642  0.00  0.00    -0.275 OA
ENDROOT
BRANCH   4  10
ATOM     10  C   UNL     1       9.753  -1.174  22.269  0.00  0.00    +0.352 C 
ATOM     11  O   UNL     1      10.575  -1.971  22.695  0.00  0.00    -0.244 OA
BRANCH  10  12
ATOM     12  O   UNL     1       9.588  -0.988  20.939  0.00  0.00    -0.476 OA
ATOM     13  H   UNL     1       8.896  -1.566  20.551  0.00  0.00    +0.295 HD
ENDBRANCH  10  12
ENDBRANCH   4  10
BRANCH   1  14
ATOM     14  C   UNL     1       8.863   4.194  23.701  0.00  0.00    +0.125 C 
ATOM     15  C   UNL     1       8.562   4.325  25.186  0.00  0.00    +0.038 C 
BRANCH  14  16
ATOM     16  O   UNL     1      10.272   4.344  23.528  0.00  0.00    -0.391 OA
ATOM     17  H   UNL     1      10.630   4.811  24.302  0.00  0.00    +0.210 HD
ENDBRANCH  14  16
ENDBRANCH   1  14
BRANCH   5  18
ATOM     18  S   UNL     1       6.628  -1.805  23.296  0.00  0.00    -0.122 S 
BRANCH  18  19
ATOM     19  C   UNL     1       7.218  -3.139  24.405  0.00  0.00    +0.067 C 
ATOM     20  C   UNL     1       6.093  -3.951  25.032  0.00  0.00    +0.044 C 
ATOM     21  C   UNL     1       6.078  -5.304  24.313  0.00  0.00    +0.142 C 
ATOM     22  N   UNL     1       7.206  -5.247  23.354  0.00  0.00    -0.305 NA
ATOM     23  H   UNL     1       7.645  -6.157  23.242  0.00  0.00    +0.123 HD
ATOM     24  C   UNL     1       8.121  -4.205  23.797  0.00  0.00    +0.096 C 
BRANCH  21  25
ATOM     25  C   UNL     1       4.763  -5.652  23.555  0.00  0.00    +0.232 C 
ATOM     26  N   UNL     1       3.852  -6.517  24.150  0.00  0.00    -0.306 N 
ATOM     27  C   UNL     1       2.599  -6.807  23.465  0.00  0.00    +0.131 C 
ATOM     28  C   UNL     1       4.028  -7.202  25.420  0.00  0.00    +0.131 C 
ATOM     29  O   UNL     1       4.550  -5.202  22.421  0.00  0.00    -0.274 OA
ENDBRANCH  21  25
ENDBRANCH  18  19
ENDBRANCH   5  18
TORSDOF 7
ENDMDL
MODEL 8
REMARK VINA RESULT:      -6.7      2.391      3.543
REMARK  Name = 
REMARK  11 active torsions:
REMARK  status: ('A' for Active; 'I' for Inactive)
REMARK    1  A    between atoms: C_2  and  C_3
REMARK    2  A    between atoms: C_3  and  C_5
REMARK    3  A    between atoms: C_3  and  O_6
REMARK    4  A    between atoms: C_10  and  C_11
REMARK    5  A    between atoms: C_11  and  O_12
REMARK    6  A    between atoms: C_14  and  S_15
REMARK    7  A    between atoms: S_15  and  C_16
REMARK    8  A    between atoms: C_20  and  C_23
REMARK    9  A    between atoms: N_25  and  C_26
REMARK   10  A    between atoms: N_25  and  C_27
REMARK   11  A    between atoms: C_28  and  C_30
REMARK                            x       y       z     vdW  Elec       q    Type
REMARK                         _______ _______ _______ _____ _____    ______ ____
ROOT
ATOM      1  C   UNL     1       6.483  -4.421  26.492  0.00  0.00    +0.125 C 
ATOM      2  C   UNL     1       7.853  -3.846  26.004  0.00  0.00    +0.104 C 
ATOM      3  N   UNL     1       7.278  -2.489  26.226  0.00  0.00    -0.260 N 
ATOM      4  C   UNL     1       7.300  -1.797  25.024  0.00  0.00    +0.131 C 
ATOM      5  C   UNL     1       7.888  -2.510  24.041  0.00  0.00    +0.019 C 
ATOM      6  C   UNL     1       8.344  -3.858  24.553  0.00  0.00    +0.046 C 
ATOM      7  C   UNL     1       7.846  -5.081  23.797  0.00  0.00    +0.015 C 
ATOM      8  C   UNL     1       6.099  -2.954  26.731  0.00  0.00    +0.228 C 
ATOM      9  O   UNL     1       5.149  -2.320  27.134  0.00  0.00    -0.275 OA
ENDROOT
BRANCH   4  10
ATOM     10  C   UNL     1       6.729  -0.413  24.951  0.00  0.00    +0.352 C 
ATOM     11  O   UNL     1       7.242   0.589  25.426  0.00  0.00    -0.244 OA
BRANCH  10  12
ATOM     12  O   UNL     1       5.508  -0.361  24.370  0.00  0.00    -0.476 OA
ATOM     13  H   UNL     1       4.911  -1.082  24.662  0.00  0.00    +0.295 HD
ENDBRANCH  10  12
ENDBRANCH   4  10
BRANCH   1  14
ATOM     14  C   UNL     1       6.534  -5.307  27.721  0.00  0.00    +0.125 C 
ATOM     15  C   UNL     1       5.387  -6.306  27.706  0.00  0.00    +0.038 C 
BRANCH  14  16
ATOM     16  O   UNL     1       7.756  -6.046  27.695  0.00  0.00    -0.391 OA
ATOM     17  H   UNL     1       8.493  -5.428  27.840  0.00  0.00    +0.210 HD
ENDBRANCH  14  16
ENDBRANCH   1  14
BRANCH   5  18
ATOM     18  S   UNL     1       8.056  -2.098  22.379  0.00  0.00    -0.122 S 
BRANCH  18  19
ATOM     19  C   UNL     1       9.664  -1.228  22.257  0.00  0.00    +0.067 C 
ATOM     20  C   UNL     1       9.596   0.066  21.457  0.00  0.00    +0.044 C 
ATOM     21  C   UNL     1       9.675   1.212  22.471  0.00  0.00    +0.142 C 
ATOM     22  N   UNL     1       9.837   0.553  23.789  0.00  0.00    -0.305 NA
ATOM     23  H   UNL     1      10.426   1.102  24.409  0.00  0.00    +0.123 HD
ATOM     24  C   UNL     1      10.327  -0.798  23.558  0.00  0.00    +0.096 C 
BRANCH  21  25
ATOM     25  C   UNL     1       8.445   2.165  22.510  0.00  0.00    +0.232 C 
ATOM     26  N   UNL     1       8.590   3.428  23.073  0.00  0.00    -0.306 N 
ATOM     27  C   UNL     1       7.455   4.341  23.068  0.00  0.00    +0.131 C 
ATOM     28  C   UNL     1       9.792   3.949  23.704  0.00  0.00    +0.131 C 
ATOM     29  O   UNL     1       7.343   1.792  22.089  0.00  0.00    -0.274 OA
ENDBRANCH  21  25
ENDBRANCH  18  19
ENDBRANCH   5  18
TORSDOF 7
ENDMDL
MODEL 9
REMARK VINA RESULT:      -6.6      2.406      8.103
REMARK  Name = 
REMARK  11 active torsions:
REMARK  status: ('A' for Active; 'I' for Inactive)
REMARK    1  A    between atoms: C_2  and  C_3
REMARK    2  A    between atoms: C_3  and  C_5
REMARK    3  A    between atoms: C_3  and  O_6
REMARK    4  A    between atoms: C_10  and  C_11
REMARK    5  A    between atoms: C_11  and  O_12
REMARK    6  A    between atoms: C_14  and  S_15
REMARK    7  A    between atoms: S_15  and  C_16
REMARK    8  A    between atoms: C_20  and  C_23
REMARK    9  A    between atoms: N_25  and  C_26
REMARK   10  A    between atoms: N_25  and  C_27
REMARK   11  A    between atoms: C_28  and  C_30
REMARK                            x       y       z     vdW  Elec       q    Type
REMARK                         _______ _______ _______ _____ _____    ______ ____
ROOT
ATOM      1  C   UNL     1       9.311   4.048  24.048  0.00  0.00    +0.125 C 
ATOM      2  C   UNL     1       8.398   3.441  22.934  0.00  0.00    +0.104 C 
ATOM      3  N   UNL     1       7.380   3.210  23.998  0.00  0.00    -0.260 N 
ATOM      4  C   UNL     1       7.102   1.852  24.056  0.00  0.00    +0.131 C 
ATOM      5  C   UNL     1       7.763   1.159  23.106  0.00  0.00    +0.019 C 
ATOM      6  C   UNL     1       8.616   2.081  22.264  0.00  0.00    +0.046 C 
ATOM      7  C   UNL     1      10.094   1.734  22.154  0.00  0.00    +0.015 C 
ATOM      8  C   UNL     1       8.116   3.804  24.981  0.00  0.00    +0.228 C 
ATOM      9  O   UNL     1       7.829   3.961  26.146  0.00  0.00    -0.275 OA
ENDROOT
BRANCH   4  10
ATOM     10  C   UNL     1       6.140   1.332  25.082  0.00  0.00    +0.352 C 
ATOM     11  O   UNL     1       6.438   0.965  26.208  0.00  0.00    -0.244 OA
BRANCH  10  12
ATOM     12  O   UNL     1       4.872   1.214  24.624  0.00  0.00    -0.476 OA
ATOM     13  H   UNL     1       4.472   2.073  24.369  0.00  0.00    +0.295 HD
ENDBRANCH  10  12
ENDBRANCH   4  10
BRANCH   1  14
ATOM     14  C   UNL     1       9.723   5.495  23.855  0.00  0.00    +0.125 C 
ATOM     15  C   UNL     1      11.227   5.599  23.653  0.00  0.00    +0.038 C 
BRANCH  14  16
ATOM     16  O   UNL     1       9.089   5.991  22.676  0.00  0.00    -0.391 OA
ATOM     17  H   UNL     1       9.430   5.496  21.912  0.00  0.00    +0.210 HD
ENDBRANCH  14  16
ENDBRANCH   1  14
BRANCH   5  18
ATOM     18  S   UNL     1       7.799  -0.543  22.857  0.00  0.00    -0.122 S 
BRANCH  18  19
ATOM     19  C   UNL     1       8.927  -1.195  24.146  0.00  0.00    +0.067 C 
ATOM     20  C   UNL     1       8.210  -1.945  25.260  0.00  0.00    +0.044 C 
ATOM     21  C   UNL     1       8.491  -3.434  25.035  0.00  0.00    +0.142 C 
ATOM     22  N   UNL     1       9.388  -3.487  23.857  0.00  0.00    -0.305 NA
ATOM     23  H   UNL     1      10.057  -4.248  23.932  0.00  0.00    +0.123 HD
ATOM     24  C   UNL     1      10.003  -2.177  23.702  0.00  0.00    +0.096 C 
BRANCH  21  25
ATOM     25  C   UNL     1       7.241  -4.328  24.783  0.00  0.00    +0.232 C 
ATOM     26  N   UNL     1       6.769  -5.131  25.815  0.00  0.00    -0.306 N 
ATOM     27  C   UNL     1       5.571  -5.932  25.598  0.00  0.00    +0.131 C 
ATOM     28  C   UNL     1       7.372  -5.276  27.130  0.00  0.00    +0.131 C 
ATOM     29  O   UNL     1       6.702  -4.359  23.669  0.00  0.00    -0.274 OA
ENDBRANCH  21  25
ENDBRANCH  18  19
ENDBRANCH   5  18
TORSDOF 7
ENDMDL
