MODEL 1
REMARK VINA RESULT:      -4.6      0.000      0.000
REMARK  Name = 
REMARK  11 active torsions:
REMARK  status: ('A' for Active; 'I' for Inactive)
REMARK    1  A    between atoms: C_1  and  N_2
REMARK    2  A    between atoms: N_2  and  C_3
REMARK    3  A    between atoms: N_2  and  C_4
REMARK    4  A    between atoms: N_2  and  C_5
REMARK    5  A    between atoms: C_5  and  C_6
REMARK    6  A    between atoms: C_6  and  C_7
REMARK    7  A    between atoms: C_7  and  C_8
REMARK    8  A    between atoms: C_8  and  C_9
REMARK    9  A    between atoms: C_9  and  N_11
REMARK   10  A    between atoms: C_9  and  C_12
REMARK   11  A    between atoms: C_12  and  O_13
REMARK                            x       y       z     vdW  Elec       q    Type
REMARK                         _______ _______ _______ _____ _____    ______ ____
ROOT
ATOM      1  C   UNK     1       8.414  -4.129  24.352  0.00  0.00    +0.030 C 
ENDROOT
BRANCH   1   2
ATOM      2  C   UNK     1       9.545  -3.127  24.106  0.00  0.00    +0.007 C 
BRANCH   2   3
ATOM      3  C   UNK     1       9.200  -2.097  23.017  0.00  0.00    +0.051 C 
BRANCH   3   4
ATOM      4  C   UNK     1      10.299  -1.044  22.845  0.00  0.00    +0.132 C 
BRANCH   4   6
ATOM      5  C   UNK     1       9.967   1.275  22.050  0.00  0.00    +0.192 C 
ATOM      6  N   UNK     1       9.890   0.369  23.286  0.00  0.00    +0.237 N 
ATOM      7  C   UNK     1       8.464   0.406  23.815  0.00  0.00    +0.192 C 
ATOM      8  C   UNK     1      10.846   0.923  24.337  0.00  0.00    +0.192 C 
ENDBRANCH   4   6
ENDBRANCH   3   4
ENDBRANCH   2   3
ENDBRANCH   1   2
BRANCH   1   9
ATOM      9  C   UNK     1       8.776  -5.273  25.310  0.00  0.00    +0.161 C 
BRANCH   9  10
ATOM     10  N   UNK     1      10.252  -5.401  25.448  0.00  0.00    -0.318 NA
ATOM     11  H   UNK     1      10.658  -4.465  25.312  0.00  0.00    +0.119 HD
ATOM     12  H   UNK     1      10.468  -5.596  26.431  0.00  0.00    +0.119 HD
ENDBRANCH   9  10
BRANCH   9  13
ATOM     13  C   UNK     1       8.184  -4.914  26.684  0.00  0.00    +0.322 C 
ATOM     14  O   UNK     1       7.975  -3.781  27.076  0.00  0.00    -0.249 OA
BRANCH  13  15
ATOM     15  O   UNK     1       8.014  -6.022  27.450  0.00  0.00    -0.480 OA
ATOM     16  H   UNK     1       7.537  -5.744  28.267  0.00  0.00    +0.295 HD
ENDBRANCH  13  15
ENDBRANCH   9  13
ENDBRANCH   1   9
TORSDOF 8
ENDMDL
MODEL 2
REMARK VINA RESULT:      -4.6      1.938      2.348
REMARK  Name = 
REMARK  11 active torsions:
REMARK  status: ('A' for Active; 'I' for Inactive)
REMARK    1  A    between atoms: C_1  and  N_2
REMARK    2  A    between atoms: N_2  and  C_3
REMARK    3  A    between atoms: N_2  and  C_4
REMARK    4  A    between atoms: N_2  and  C_5
REMARK    5  A    between atoms: C_5  and  C_6
REMARK    6  A    between atoms: C_6  and  C_7
REMARK    7  A    between atoms: C_7  and  C_8
REMARK    8  A    between atoms: C_8  and  C_9
REMARK    9  A    between atoms: C_9  and  N_11
REMARK   10  A    between atoms: C_9  and  C_12
REMARK   11  A    between atoms: C_12  and  O_13
REMARK                            x       y       z     vdW  Elec       q    Type
REMARK                         _______ _______ _______ _____ _____    ______ ____
ROOT
ATOM      1  C   UNK     1       7.625  -3.484  26.271  0.00  0.00    +0.030 C 
ENDROOT
BRANCH   1   2
ATOM      2  C   UNK     1       8.173  -2.055  26.230  0.00  0.00    +0.007 C 
BRANCH   2   3
ATOM      3  C   UNK     1       8.093  -1.428  24.829  0.00  0.00    +0.051 C 
BRANCH   3   4
ATOM      4  C   UNK     1       9.478  -1.183  24.222  0.00  0.00    +0.132 C 
BRANCH   4   6
ATOM      5  C   UNK     1      11.007   0.746  24.474  0.00  0.00    +0.192 C 
ATOM      6  N   UNK     1       9.724   0.267  23.781  0.00  0.00    +0.237 N 
ATOM      7  C   UNK     1       9.927   0.373  22.277  0.00  0.00    +0.192 C 
ATOM      8  C   UNK     1       8.584   1.182  24.215  0.00  0.00    +0.192 C 
ENDBRANCH   4   6
ENDBRANCH   3   4
ENDBRANCH   2   3
ENDBRANCH   1   2
BRANCH   1   9
ATOM      9  C   UNK     1       8.672  -4.558  26.598  0.00  0.00    +0.161 C 
BRANCH   9  10
ATOM     10  N   UNK     1       8.035  -5.743  27.232  0.00  0.00    -0.318 NA
ATOM     11  H   UNK     1       8.233  -6.558  26.636  0.00  0.00    +0.119 HD
ATOM     12  H   UNK     1       8.550  -5.965  28.090  0.00  0.00    +0.119 HD
ENDBRANCH   9  10
BRANCH   9  13
ATOM     13  C   UNK     1       9.301  -4.994  25.264  0.00  0.00    +0.322 C 
ATOM     14  O   UNK     1       8.739  -4.956  24.185  0.00  0.00    -0.249 OA
BRANCH  13  15
ATOM     15  O   UNK     1      10.538  -5.522  25.453  0.00  0.00    -0.480 OA
ATOM     16  H   UNK     1      10.767  -5.401  26.405  0.00  0.00    +0.295 HD
ENDBRANCH  13  15
ENDBRANCH   9  13
ENDBRANCH   1   9
TORSDOF 8
ENDMDL
MODEL 3
REMARK VINA RESULT:      -4.4      4.032      6.281
REMARK  Name = 
REMARK  11 active torsions:
REMARK  status: ('A' for Active; 'I' for Inactive)
REMARK    1  A    between atoms: C_1  and  N_2
REMARK    2  A    between atoms: N_2  and  C_3
REMARK    3  A    between atoms: N_2  and  C_4
REMARK    4  A    between atoms: N_2  and  C_5
REMARK    5  A    between atoms: C_5  and  C_6
REMARK    6  A    between atoms: C_6  and  C_7
REMARK    7  A    between atoms: C_7  and  C_8
REMARK    8  A    between atoms: C_8  and  C_9
REMARK    9  A    between atoms: C_9  and  N_11
REMARK   10  A    between atoms: C_9  and  C_12
REMARK   11  A    between atoms: C_12  and  O_13
REMARK                            x       y       z     vdW  Elec       q    Type
REMARK                         _______ _______ _______ _____ _____    ______ ____
ROOT
ATOM      1  C   UNK     1       9.186   1.881  24.542  0.00  0.00    +0.030 C 
ENDROOT
BRANCH   1   2
ATOM      2  C   UNK     1      10.479   1.061  24.554  0.00  0.00    +0.007 C 
BRANCH   2   3
ATOM      3  C   UNK     1      10.234  -0.439  24.326  0.00  0.00    +0.051 C 
BRANCH   3   4
ATOM      4  C   UNK     1       8.745  -0.797  24.368  0.00  0.00    +0.132 C 
BRANCH   4   6
ATOM      5  C   UNK     1       6.804  -1.461  22.984  0.00  0.00    +0.192 C 
ATOM      6  N   UNK     1       8.291  -1.737  23.241  0.00  0.00    +0.237 N 
ATOM      7  C   UNK     1       9.054  -1.479  21.950  0.00  0.00    +0.192 C 
ATOM      8  C   UNK     1       8.437  -3.200  23.644  0.00  0.00    +0.192 C 
ENDBRANCH   4   6
ENDBRANCH   3   4
ENDBRANCH   2   3
ENDBRANCH   1   2
BRANCH   1   9
ATOM      9  C   UNK     1       9.121   2.948  23.439  0.00  0.00    +0.161 C 
BRANCH   9  10
ATOM     10  N   UNK     1      10.466   3.531  23.187  0.00  0.00    -0.318 NA
ATOM     11  H   UNK     1      10.589   4.318  23.838  0.00  0.00    +0.119 HD
ATOM     12  H   UNK     1      11.173   2.863  23.511  0.00  0.00    +0.119 HD
ENDBRANCH   9  10
BRANCH   9  13
ATOM     13  C   UNK     1       8.644   2.244  22.158  0.00  0.00    +0.322 C 
ATOM     14  O   UNK     1       7.503   1.871  21.953  0.00  0.00    -0.249 OA
BRANCH  13  15
ATOM     15  O   UNK     1       9.681   2.000  21.316  0.00  0.00    -0.480 OA
ATOM     16  H   UNK     1       9.695   1.028  21.141  0.00  0.00    +0.295 HD
ENDBRANCH  13  15
ENDBRANCH   9  13
ENDBRANCH   1   9
TORSDOF 8
ENDMDL
MODEL 4
REMARK VINA RESULT:      -4.3      3.533      6.206
REMARK  Name = 
REMARK  11 active torsions:
REMARK  status: ('A' for Active; 'I' for Inactive)
REMARK    1  A    between atoms: C_1  and  N_2
REMARK    2  A    between atoms: N_2  and  C_3
REMARK    3  A    between atoms: N_2  and  C_4
REMARK    4  A    between atoms: N_2  and  C_5
REMARK    5  A    between atoms: C_5  and  C_6
REMARK    6  A    between atoms: C_6  and  C_7
REMARK    7  A    between atoms: C_7  and  C_8
REMARK    8  A    between atoms: C_8  and  C_9
REMARK    9  A    between atoms: C_9  and  N_11
REMARK   10  A    between atoms: C_9  and  C_12
REMARK   11  A    between atoms: C_12  and  O_13
REMARK                            x       y       z     vdW  Elec       q    Type
REMARK                         _______ _______ _______ _____ _____    ______ ____
ROOT
ATOM      1  C   UNK     1      10.393  -0.126  24.024  0.00  0.00    +0.030 C 
ENDROOT
BRANCH   1   2
ATOM      2  C   UNK     1       9.533  -1.258  24.593  0.00  0.00    +0.007 C 
BRANCH   2   3
ATOM      3  C   UNK     1       9.582  -2.531  23.733  0.00  0.00    +0.051 C 
BRANCH   3   4
ATOM      4  C   UNK     1       8.261  -2.788  23.001  0.00  0.00    +0.132 C 
BRANCH   4   6
ATOM      5  C   UNK     1       7.133  -4.844  22.212  0.00  0.00    +0.192 C 
ATOM      6  N   UNK     1       7.519  -4.050  23.466  0.00  0.00    +0.237 N 
ATOM      7  C   UNK     1       8.399  -4.934  24.338  0.00  0.00    +0.192 C 
ATOM      8  C   UNK     1       6.238  -3.698  24.215  0.00  0.00    +0.192 C 
ENDBRANCH   4   6
ENDBRANCH   3   4
ENDBRANCH   2   3
ENDBRANCH   1   2
BRANCH   1   9
ATOM      9  C   UNK     1       9.596   1.074  23.495  0.00  0.00    +0.161 C 
BRANCH   9  10
ATOM     10  N   UNK     1      10.160   2.352  24.009  0.00  0.00    -0.318 NA
ATOM     11  H   UNK     1       9.545   2.679  24.767  0.00  0.00    +0.119 HD
ATOM     12  H   UNK     1      11.032   2.143  24.505  0.00  0.00    +0.119 HD
ENDBRANCH   9  10
BRANCH   9  13
ATOM     13  C   UNK     1       9.727   1.062  21.962  0.00  0.00    +0.322 C 
ATOM     14  O   UNK     1       9.517   0.094  21.254  0.00  0.00    -0.249 OA
BRANCH  13  15
ATOM     15  O   UNK     1      10.202   2.247  21.500  0.00  0.00    -0.480 OA
ATOM     16  H   UNK     1       9.669   2.489  20.706  0.00  0.00    +0.295 HD
ENDBRANCH  13  15
ENDBRANCH   9  13
ENDBRANCH   1   9
TORSDOF 8
ENDMDL
MODEL 5
REMARK VINA RESULT:      -4.3      2.949      5.839
REMARK  Name = 
REMARK  11 active torsions:
REMARK  status: ('A' for Active; 'I' for Inactive)
REMARK    1  A    between atoms: C_1  and  N_2
REMARK    2  A    between atoms: N_2  and  C_3
REMARK    3  A    between atoms: N_2  and  C_4
REMARK    4  A    between atoms: N_2  and  C_5
REMARK    5  A    between atoms: C_5  and  C_6
REMARK    6  A    between atoms: C_6  and  C_7
REMARK    7  A    between atoms: C_7  and  C_8
REMARK    8  A    between atoms: C_8  and  C_9
REMARK    9  A    between atoms: C_9  and  N_11
REMARK   10  A    between atoms: C_9  and  C_12
REMARK   11  A    between atoms: C_12  and  O_13
REMARK                            x       y       z     vdW  Elec       q    Type
REMARK                         _______ _______ _______ _____ _____    ______ ____
ROOT
ATOM      1  C   UNK     1       9.117   0.098  22.148  0.00  0.00    +0.030 C 
ENDROOT
BRANCH   1   2
ATOM      2  C   UNK     1       9.636  -1.340  22.071  0.00  0.00    +0.007 C 
BRANCH   2   3
ATOM      3  C   UNK     1       8.816  -2.315  22.930  0.00  0.00    +0.051 C 
BRANCH   3   4
ATOM      4  C   UNK     1       9.612  -2.845  24.127  0.00  0.00    +0.132 C 
BRANCH   4   6
ATOM      5  C   UNK     1       7.771  -4.497  24.065  0.00  0.00    +0.192 C 
ATOM      6  N   UNK     1       8.872  -3.906  24.955  0.00  0.00    +0.237 N 
ATOM      7  C   UNK     1       9.797  -5.035  25.383  0.00  0.00    +0.192 C 
ATOM      8  C   UNK     1       8.206  -3.290  26.182  0.00  0.00    +0.192 C 
ENDBRANCH   4   6
ENDBRANCH   3   4
ENDBRANCH   2   3
ENDBRANCH   1   2
BRANCH   1   9
ATOM      9  C   UNK     1      10.142   1.118  22.663  0.00  0.00    +0.161 C 
BRANCH   9  10
ATOM     10  N   UNK     1      10.198   2.308  21.771  0.00  0.00    -0.318 NA
ATOM     11  H   UNK     1      10.164   1.970  20.800  0.00  0.00    +0.119 HD
ATOM     12  H   UNK     1       9.313   2.818  21.859  0.00  0.00    +0.119 HD
ENDBRANCH   9  10
BRANCH   9  13
ATOM     13  C   UNK     1       9.669   1.570  24.055  0.00  0.00    +0.322 C 
ATOM     14  O   UNK     1       8.859   2.456  24.260  0.00  0.00    -0.249 OA
BRANCH  13  15
ATOM     15  O   UNK     1      10.343   0.920  25.038  0.00  0.00    -0.480 OA
ATOM     16  H   UNK     1      10.708   0.091  24.646  0.00  0.00    +0.295 HD
ENDBRANCH  13  15
ENDBRANCH   9  13
ENDBRANCH   1   9
TORSDOF 8
ENDMDL
MODEL 6
REMARK VINA RESULT:      -4.2      3.101      6.010
REMARK  Name = 
REMARK  11 active torsions:
REMARK  status: ('A' for Active; 'I' for Inactive)
REMARK    1  A    between atoms: C_1  and  N_2
REMARK    2  A    between atoms: N_2  and  C_3
REMARK    3  A    between atoms: N_2  and  C_4
REMARK    4  A    between atoms: N_2  and  C_5
REMARK    5  A    between atoms: C_5  and  C_6
REMARK    6  A    between atoms: C_6  and  C_7
REMARK    7  A    between atoms: C_7  and  C_8
REMARK    8  A    between atoms: C_8  and  C_9
REMARK    9  A    between atoms: C_9  and  N_11
REMARK   10  A    between atoms: C_9  and  C_12
REMARK   11  A    between atoms: C_12  and  O_13
REMARK                            x       y       z     vdW  Elec       q    Type
REMARK                         _______ _______ _______ _____ _____    ______ ____
ROOT
ATOM      1  C   UNK     1       9.272  -0.087  22.324  0.00  0.00    +0.030 C 
ENDROOT
BRANCH   1   2
ATOM      2  C   UNK     1       9.855  -1.498  22.423  0.00  0.00    +0.007 C 
BRANCH   2   3
ATOM      3  C   UNK     1       9.029  -2.421  23.333  0.00  0.00    +0.051 C 
BRANCH   3   4
ATOM      4  C   UNK     1       7.876  -3.095  22.584  0.00  0.00    +0.132 C 
BRANCH   4   6
ATOM      5  C   UNK     1       6.057  -4.113  23.918  0.00  0.00    +0.192 C 
ATOM      6  N   UNK     1       7.392  -4.406  23.221  0.00  0.00    +0.237 N 
ATOM      7  C   UNK     1       7.158  -5.489  22.178  0.00  0.00    +0.192 C 
ATOM      8  C   UNK     1       8.374  -4.908  24.275  0.00  0.00    +0.192 C 
ENDBRANCH   4   6
ENDBRANCH   3   4
ENDBRANCH   2   3
ENDBRANCH   1   2
BRANCH   1   9
ATOM      9  C   UNK     1      10.252   1.034  22.700  0.00  0.00    +0.161 C 
BRANCH   9  10
ATOM     10  N   UNK     1      10.111   2.192  21.776  0.00  0.00    -0.318 NA
ATOM     11  H   UNK     1      10.118   1.824  20.815  0.00  0.00    +0.119 HD
ATOM     12  H   UNK     1       9.158   2.561  21.866  0.00  0.00    +0.119 HD
ENDBRANCH   9  10
BRANCH   9  13
ATOM     13  C   UNK     1       9.888   1.494  24.122  0.00  0.00    +0.322 C 
ATOM     14  O   UNK     1       9.152   2.428  24.383  0.00  0.00    -0.249 OA
BRANCH  13  15
ATOM     15  O   UNK     1      10.570   0.785  25.058  0.00  0.00    -0.480 OA
ATOM     16  H   UNK     1      11.433   1.241  25.201  0.00  0.00    +0.295 HD
ENDBRANCH  13  15
ENDBRANCH   9  13
ENDBRANCH   1   9
TORSDOF 8
ENDMDL
MODEL 7
REMARK VINA RESULT:      -4.2      3.504      4.180
REMARK  Name = 
REMARK  11 active torsions:
REMARK  status: ('A' for Active; 'I' for Inactive)
REMARK    1  A    between atoms: C_1  and  N_2
REMARK    2  A    between atoms: N_2  and  C_3
REMARK    3  A    between atoms: N_2  and  C_4
REMARK    4  A    between atoms: N_2  and  C_5
REMARK    5  A    between atoms: C_5  and  C_6
REMARK    6  A    between atoms: C_6  and  C_7
REMARK    7  A    between atoms: C_7  and  C_8
REMARK    8  A    between atoms: C_8  and  C_9
REMARK    9  A    between atoms: C_9  and  N_11
REMARK   10  A    between atoms: C_9  and  C_12
REMARK   11  A    between atoms: C_12  and  O_13
REMARK                            x       y       z     vdW  Elec       q    Type
REMARK                         _______ _______ _______ _____ _____    ______ ____
ROOT
ATOM      1  C   UNK     1       5.930  -6.113  22.394  0.00  0.00    +0.030 C 
ENDROOT
BRANCH   1   2
ATOM      2  C   UNK     1       7.034  -5.186  21.879  0.00  0.00    +0.007 C 
BRANCH   2   3
ATOM      3  C   UNK     1       7.602  -4.272  22.977  0.00  0.00    +0.051 C 
BRANCH   3   4
ATOM      4  C   UNK     1       7.889  -2.857  22.464  0.00  0.00    +0.132 C 
BRANCH   4   6
ATOM      5  C   UNK     1       9.563  -3.087  24.272  0.00  0.00    +0.192 C 
ATOM      6  N   UNK     1       8.944  -2.094  23.279  0.00  0.00    +0.237 N 
ATOM      7  C   UNK     1      10.055  -1.550  22.394  0.00  0.00    +0.192 C 
ATOM      8  C   UNK     1       8.315  -0.958  24.078  0.00  0.00    +0.192 C 
ENDBRANCH   4   6
ENDBRANCH   3   4
ENDBRANCH   2   3
ENDBRANCH   1   2
BRANCH   1   9
ATOM      9  C   UNK     1       5.025  -5.491  23.466  0.00  0.00    +0.161 C 
BRANCH   9  10
ATOM     10  N   UNK     1       3.705  -5.114  22.891  0.00  0.00    -0.318 NA
ATOM     11  H   UNK     1       3.164  -4.651  23.634  0.00  0.00    +0.119 HD
ATOM     12  H   UNK     1       3.852  -4.355  22.218  0.00  0.00    +0.119 HD
ENDBRANCH   9  10
BRANCH   9  13
ATOM     13  C   UNK     1       4.801  -6.563  24.546  0.00  0.00    +0.322 C 
ATOM     14  O   UNK     1       5.187  -6.481  25.698  0.00  0.00    -0.249 OA
BRANCH  13  15
ATOM     15  O   UNK     1       4.199  -7.664  24.027  0.00  0.00    -0.480 OA
ATOM     16  H   UNK     1       3.830  -7.411  23.148  0.00  0.00    +0.295 HD
ENDBRANCH  13  15
ENDBRANCH   9  13
ENDBRANCH   1   9
TORSDOF 8
ENDMDL
MODEL 8
REMARK VINA RESULT:      -4.2      3.931      6.269
REMARK  Name = 
REMARK  11 active torsions:
REMARK  status: ('A' for Active; 'I' for Inactive)
REMARK    1  A    between atoms: C_1  and  N_2
REMARK    2  A    between atoms: N_2  and  C_3
REMARK    3  A    between atoms: N_2  and  C_4
REMARK    4  A    between atoms: N_2  and  C_5
REMARK    5  A    between atoms: C_5  and  C_6
REMARK    6  A    between atoms: C_6  and  C_7
REMARK    7  A    between atoms: C_7  and  C_8
REMARK    8  A    between atoms: C_8  and  C_9
REMARK    9  A    between atoms: C_9  and  N_11
REMARK   10  A    between atoms: C_9  and  C_12
REMARK   11  A    between atoms: C_12  and  O_13
REMARK                            x       y       z     vdW  Elec       q    Type
REMARK                         _______ _______ _______ _____ _____    ______ ____
ROOT
ATOM      1  C   UNK     1      10.650   0.117  23.416  0.00  0.00    +0.030 C 
ENDROOT
BRANCH   1   2
ATOM      2  C   UNK     1      10.266  -1.199  22.736  0.00  0.00    +0.007 C 
BRANCH   2   3
ATOM      3  C   UNK     1       9.815  -2.275  23.737  0.00  0.00    +0.051 C 
BRANCH   3   4
ATOM      4  C   UNK     1       8.457  -2.880  23.367  0.00  0.00    +0.132 C 
BRANCH   4   6
ATOM      5  C   UNK     1       9.292  -4.515  25.025  0.00  0.00    +0.192 C 
ATOM      6  N   UNK     1       8.059  -4.098  24.213  0.00  0.00    +0.237 N 
ATOM      7  C   UNK     1       6.937  -3.768  25.186  0.00  0.00    +0.192 C 
ATOM      8  C   UNK     1       7.652  -5.277  23.335  0.00  0.00    +0.192 C 
ENDBRANCH   4   6
ENDBRANCH   3   4
ENDBRANCH   2   3
ENDBRANCH   1   2
BRANCH   1   9
ATOM      9  C   UNK     1       9.474   1.073  23.661  0.00  0.00    +0.161 C 
BRANCH   9  10
ATOM     10  N   UNK     1       9.298   1.334  25.116  0.00  0.00    -0.318 NA
ATOM     11  H   UNK     1       9.181   2.349  25.236  0.00  0.00    +0.119 HD
ATOM     12  H   UNK     1       8.384   0.970  25.400  0.00  0.00    +0.119 HD
ENDBRANCH   9  10
BRANCH   9  13
ATOM     13  C   UNK     1       9.818   2.400  22.963  0.00  0.00    +0.322 C 
ATOM     14  O   UNK     1       9.760   3.497  23.488  0.00  0.00    -0.249 OA
BRANCH  13  15
ATOM     15  O   UNK     1      10.102   2.205  21.650  0.00  0.00    -0.480 OA
ATOM     16  H   UNK     1      10.660   1.393  21.587  0.00  0.00    +0.295 HD
ENDBRANCH  13  15
ENDBRANCH   9  13
ENDBRANCH   1   9
TORSDOF 8
ENDMDL
MODEL 9
REMARK VINA RESULT:      -4.2      3.755      6.030
REMARK  Name = 
REMARK  11 active torsions:
REMARK  status: ('A' for Active; 'I' for Inactive)
REMARK    1  A    between atoms: C_1  and  N_2
REMARK    2  A    between atoms: N_2  and  C_3
REMARK    3  A    between atoms: N_2  and  C_4
REMARK    4  A    between atoms: N_2  and  C_5
REMARK    5  A    between atoms: C_5  and  C_6
REMARK    6  A    between atoms: C_6  and  C_7
REMARK    7  A    between atoms: C_7  and  C_8
REMARK    8  A    between atoms: C_8  and  C_9
REMARK    9  A    between atoms: C_9  and  N_11
REMARK   10  A    between atoms: C_9  and  C_12
REMARK   11  A    between atoms: C_12  and  O_13
REMARK                            x       y       z     vdW  Elec       q    Type
REMARK                         _______ _______ _______ _____ _____    ______ ____
ROOT
ATOM      1  C   UNK     1       9.682  -1.183  23.853  0.00  0.00    +0.030 C 
ENDROOT
BRANCH   1   2
ATOM      2  C   UNK     1       9.560  -2.705  23.962  0.00  0.00    +0.007 C 
BRANCH   2   3
ATOM      3  C   UNK     1       8.104  -3.175  24.118  0.00  0.00    +0.051 C 
BRANCH   3   4
ATOM      4  C   UNK     1       7.900  -4.608  23.616  0.00  0.00    +0.132 C 
BRANCH   4   6
ATOM      5  C   UNK     1       7.063  -5.780  21.604  0.00  0.00    +0.192 C 
ATOM      6  N   UNK     1       6.674  -4.787  22.708  0.00  0.00    +0.237 N 
ATOM      7  C   UNK     1       5.487  -5.361  23.468  0.00  0.00    +0.192 C 
ATOM      8  C   UNK     1       6.277  -3.474  22.043  0.00  0.00    +0.192 C 
ENDBRANCH   4   6
ENDBRANCH   3   4
ENDBRANCH   2   3
ENDBRANCH   1   2
BRANCH   1   9
ATOM      9  C   UNK     1      10.368  -0.691  22.571  0.00  0.00    +0.161 C 
BRANCH   9  10
ATOM     10  N   UNK     1       9.901  -1.466  21.390  0.00  0.00    -0.318 NA
ATOM     11  H   UNK     1      10.550  -1.271  20.615  0.00  0.00    +0.119 HD
ATOM     12  H   UNK     1      10.066  -2.461  21.572  0.00  0.00    +0.119 HD
ENDBRANCH   9  10
BRANCH   9  13
ATOM     13  C   UNK     1       9.965   0.782  22.381  0.00  0.00    +0.322 C 
ATOM     14  O   UNK     1      10.106   1.654  23.219  0.00  0.00    -0.249 OA
BRANCH  13  15
ATOM     15  O   UNK     1       9.340   0.971  21.191  0.00  0.00    -0.480 OA
ATOM     16  H   UNK     1       8.451   0.548  21.256  0.00  0.00    +0.295 HD
ENDBRANCH  13  15
ENDBRANCH   9  13
ENDBRANCH   1   9
TORSDOF 8
ENDMDL
