MODEL 1
REMARK VINA RESULT:      -4.7      0.000      0.000
REMARK  Name = 
REMARK  6 active torsions:
REMARK  status: ('A' for Active; 'I' for Inactive)
REMARK    1  A    between atoms: O_1  and  C_2
REMARK    2  A    between atoms: C_2  and  C_3
REMARK    3  A    between atoms: C_6  and  O_8
REMARK    4  A    between atoms: C_9  and  O_11
REMARK    5  A    between atoms: C_12  and  O_14
REMARK    6  A    between atoms: C_15  and  O_17
REMARK                            x       y       z     vdW  Elec       q    Type
REMARK                         _______ _______ _______ _____ _____    ______ ____
ROOT
ATOM      1  C   UNL     1       9.485  -2.181  23.628  0.00  0.00    +0.178 C 
ATOM      2  C   UNL     1       8.154  -2.533  22.946  0.00  0.00    +0.177 C 
ATOM      3  C   UNL     1       7.340  -3.479  23.832  0.00  0.00    +0.179 C 
ATOM      4  C   UNL     1       8.171  -4.672  24.295  0.00  0.00    +0.201 C 
ATOM      5  C   UNL     1       9.491  -4.172  24.899  0.00  0.00    +0.279 C 
ATOM      6  O   UNL     1      10.203  -3.384  23.962  0.00  0.00    -0.341 OA
ENDROOT
BRANCH   2   7
ATOM      7  O   UNL     1       7.382  -1.353  22.703  0.00  0.00    -0.386 OA
ATOM      8  H   UNL     1       7.982  -0.741  22.229  0.00  0.00    +0.210 HD
ENDBRANCH   2   7
BRANCH   3   9
ATOM      9  O   UNL     1       6.185  -3.926  23.105  0.00  0.00    -0.386 OA
ATOM     10  H   UNL     1       5.872  -3.140  22.609  0.00  0.00    +0.210 HD
ENDBRANCH   3   9
BRANCH   4  11
ATOM     11  O   UNL     1       7.405  -5.422  25.252  0.00  0.00    -0.384 OA
ATOM     12  H   UNL     1       6.536  -5.565  24.824  0.00  0.00    +0.210 HD
ENDBRANCH   4  11
BRANCH   5  13
ATOM     13  O   UNL     1      10.286  -5.303  25.221  0.00  0.00    -0.365 OA
ATOM     14  H   UNL     1      11.075  -5.193  24.661  0.00  0.00    +0.213 HD
ENDBRANCH   5  13
BRANCH   1  15
ATOM     15  C   UNL     1      10.371  -1.319  22.719  0.00  0.00    +0.190 C 
BRANCH  15  16
ATOM     16  O   UNL     1      10.022  -1.554  21.352  0.00  0.00    -0.392 OA
ATOM     17  H   UNL     1      10.310  -0.771  20.851  0.00  0.00    +0.210 HD
ENDBRANCH  15  16
ENDBRANCH   1  15
TORSDOF 6
ENDMDL
MODEL 2
REMARK VINA RESULT:      -4.6      1.861      4.964
REMARK  Name = 
REMARK  6 active torsions:
REMARK  status: ('A' for Active; 'I' for Inactive)
REMARK    1  A    between atoms: O_1  and  C_2
REMARK    2  A    between atoms: C_2  and  C_3
REMARK    3  A    between atoms: C_6  and  O_8
REMARK    4  A    between atoms: C_9  and  O_11
REMARK    5  A    between atoms: C_12  and  O_14
REMARK    6  A    between atoms: C_15  and  O_17
REMARK                            x       y       z     vdW  Elec       q    Type
REMARK                         _______ _______ _______ _____ _____    ______ ____
ROOT
ATOM      1  C   UNL     1       6.577  -4.541  25.972  0.00  0.00    +0.178 C 
ATOM      2  C   UNL     1       7.814  -5.432  26.168  0.00  0.00    +0.177 C 
ATOM      3  C   UNL     1       9.078  -4.684  25.737  0.00  0.00    +0.179 C 
ATOM      4  C   UNL     1       8.926  -4.076  24.346  0.00  0.00    +0.201 C 
ATOM      5  C   UNL     1       7.624  -3.265  24.282  0.00  0.00    +0.279 C 
ATOM      6  O   UNL     1       6.512  -4.079  24.609  0.00  0.00    -0.341 OA
ENDROOT
BRANCH   2   7
ATOM      7  O   UNL     1       7.951  -5.812  27.541  0.00  0.00    -0.386 OA
ATOM      8  H   UNL     1       7.219  -5.361  28.011  0.00  0.00    +0.210 HD
ENDBRANCH   2   7
BRANCH   3   9
ATOM      9  O   UNL     1      10.192  -5.589  25.770  0.00  0.00    -0.386 OA
ATOM     10  H   UNL     1      10.978  -5.038  25.572  0.00  0.00    +0.210 HD
ENDBRANCH   3   9
BRANCH   4  11
ATOM     11  O   UNL     1      10.072  -3.253  24.077  0.00  0.00    -0.384 OA
ATOM     12  H   UNL     1      10.559  -3.212  24.925  0.00  0.00    +0.210 HD
ENDBRANCH   4  11
BRANCH   5  13
ATOM     13  O   UNL     1       7.457  -2.804  22.950  0.00  0.00    -0.365 OA
ATOM     14  H   UNL     1       8.346  -2.493  22.704  0.00  0.00    +0.213 HD
ENDBRANCH   5  13
BRANCH   1  15
ATOM     15  C   UNL     1       5.283  -5.299  26.294  0.00  0.00    +0.190 C 
BRANCH  15  16
ATOM     16  O   UNL     1       5.575  -6.687  26.473  0.00  0.00    -0.392 OA
ATOM     17  H   UNL     1       4.762  -7.175  26.256  0.00  0.00    +0.210 HD
ENDBRANCH  15  16
ENDBRANCH   1  15
TORSDOF 6
ENDMDL
MODEL 3
REMARK VINA RESULT:      -4.6      2.727      3.713
REMARK  Name = 
REMARK  6 active torsions:
REMARK  status: ('A' for Active; 'I' for Inactive)
REMARK    1  A    between atoms: O_1  and  C_2
REMARK    2  A    between atoms: C_2  and  C_3
REMARK    3  A    between atoms: C_6  and  O_8
REMARK    4  A    between atoms: C_9  and  O_11
REMARK    5  A    between atoms: C_12  and  O_14
REMARK    6  A    between atoms: C_15  and  O_17
REMARK                            x       y       z     vdW  Elec       q    Type
REMARK                         _______ _______ _______ _____ _____    ______ ____
ROOT
ATOM      1  C   UNL     1       7.084  -4.915  23.319  0.00  0.00    +0.178 C 
ATOM      2  C   UNL     1       6.198  -5.661  24.329  0.00  0.00    +0.177 C 
ATOM      3  C   UNL     1       6.655  -5.359  25.758  0.00  0.00    +0.179 C 
ATOM      4  C   UNL     1       8.157  -5.572  25.927  0.00  0.00    +0.201 C 
ATOM      5  C   UNL     1       8.907  -4.818  24.819  0.00  0.00    +0.279 C 
ATOM      6  O   UNL     1       8.469  -5.242  23.541  0.00  0.00    -0.341 OA
ENDROOT
BRANCH   2   7
ATOM      7  O   UNL     1       4.830  -5.265  24.191  0.00  0.00    -0.386 OA
ATOM      8  H   UNL     1       4.336  -5.798  24.849  0.00  0.00    +0.210 HD
ENDBRANCH   2   7
BRANCH   3   9
ATOM      9  O   UNL     1       5.926  -6.195  26.670  0.00  0.00    -0.386 OA
ATOM     10  H   UNL     1       5.274  -6.674  26.117  0.00  0.00    +0.210 HD
ENDBRANCH   3   9
BRANCH   4  11
ATOM     11  O   UNL     1       8.543  -5.112  27.231  0.00  0.00    -0.384 OA
ATOM     12  H   UNL     1       8.008  -4.306  27.383  0.00  0.00    +0.210 HD
ENDBRANCH   4  11
BRANCH   5  13
ATOM     13  O   UNL     1      10.288  -5.122  24.937  0.00  0.00    -0.365 OA
ATOM     14  H   UNL     1      10.510  -4.827  25.838  0.00  0.00    +0.213 HD
ENDBRANCH   5  13
BRANCH   1  15
ATOM     15  C   UNL     1       6.719  -5.279  21.875  0.00  0.00    +0.190 C 
BRANCH  15  16
ATOM     16  O   UNL     1       6.077  -6.557  21.854  0.00  0.00    -0.392 OA
ATOM     17  H   UNL     1       5.140  -6.404  22.067  0.00  0.00    +0.210 HD
ENDBRANCH  15  16
ENDBRANCH   1  15
TORSDOF 6
ENDMDL
MODEL 4
REMARK VINA RESULT:      -4.6      2.976      5.318
REMARK  Name = 
REMARK  6 active torsions:
REMARK  status: ('A' for Active; 'I' for Inactive)
REMARK    1  A    between atoms: O_1  and  C_2
REMARK    2  A    between atoms: C_2  and  C_3
REMARK    3  A    between atoms: C_6  and  O_8
REMARK    4  A    between atoms: C_9  and  O_11
REMARK    5  A    between atoms: C_12  and  O_14
REMARK    6  A    between atoms: C_15  and  O_17
REMARK                            x       y       z     vdW  Elec       q    Type
REMARK                         _______ _______ _______ _____ _____    ______ ____
ROOT
ATOM      1  C   UNL     1       9.639  -0.676  23.858  0.00  0.00    +0.178 C 
ATOM      2  C   UNL     1       9.179  -0.426  22.413  0.00  0.00    +0.177 C 
ATOM      3  C   UNL     1       9.412   1.038  22.029  0.00  0.00    +0.179 C 
ATOM      4  C   UNL     1       8.835   1.992  23.071  0.00  0.00    +0.201 C 
ATOM      5  C   UNL     1       9.332   1.587  24.466  0.00  0.00    +0.279 C 
ATOM      6  O   UNL     1       8.982   0.244  24.751  0.00  0.00    -0.341 OA
ENDROOT
BRANCH   2   7
ATOM      7  O   UNL     1       9.901  -1.260  21.501  0.00  0.00    -0.386 OA
ATOM      8  H   UNL     1      10.782  -0.842  21.407  0.00  0.00    +0.210 HD
ENDBRANCH   2   7
BRANCH   3   9
ATOM      9  O   UNL     1       8.823   1.285  20.743  0.00  0.00    -0.386 OA
ATOM     10  H   UNL     1       9.264   2.093  20.408  0.00  0.00    +0.210 HD
ENDBRANCH   3   9
BRANCH   4  11
ATOM     11  O   UNL     1       9.235   3.331  22.738  0.00  0.00    -0.384 OA
ATOM     12  H   UNL     1       9.837   3.232  21.973  0.00  0.00    +0.210 HD
ENDBRANCH   4  11
BRANCH   5  13
ATOM     13  O   UNL     1       8.696   2.422  25.421  0.00  0.00    -0.365 OA
ATOM     14  H   UNL     1       8.257   1.791  26.018  0.00  0.00    +0.213 HD
ENDBRANCH   5  13
BRANCH   1  15
ATOM     15  C   UNL     1       9.321  -2.107  24.308  0.00  0.00    +0.190 C 
BRANCH  15  16
ATOM     16  O   UNL     1      10.302  -3.002  23.779  0.00  0.00    -0.392 OA
ATOM     17  H   UNL     1      11.169  -2.579  23.910  0.00  0.00    +0.210 HD
ENDBRANCH  15  16
ENDBRANCH   1  15
TORSDOF 6
ENDMDL
MODEL 5
REMARK VINA RESULT:      -4.6      3.421      4.655
REMARK  Name = 
REMARK  6 active torsions:
REMARK  status: ('A' for Active; 'I' for Inactive)
REMARK    1  A    between atoms: O_1  and  C_2
REMARK    2  A    between atoms: C_2  and  C_3
REMARK    3  A    between atoms: C_6  and  O_8
REMARK    4  A    between atoms: C_9  and  O_11
REMARK    5  A    between atoms: C_12  and  O_14
REMARK    6  A    between atoms: C_15  and  O_17
REMARK                            x       y       z     vdW  Elec       q    Type
REMARK                         _______ _______ _______ _____ _____    ______ ____
ROOT
ATOM      1  C   UNL     1       9.323   2.164  23.662  0.00  0.00    +0.178 C 
ATOM      2  C   UNL     1       9.854   1.366  22.461  0.00  0.00    +0.177 C 
ATOM      3  C   UNL     1       9.385  -0.089  22.543  0.00  0.00    +0.179 C 
ATOM      4  C   UNL     1       9.677  -0.698  23.911  0.00  0.00    +0.201 C 
ATOM      5  C   UNL     1       9.142   0.232  25.009  0.00  0.00    +0.279 C 
ATOM      6  O   UNL     1       9.712   1.523  24.892  0.00  0.00    -0.341 OA
ENDROOT
BRANCH   2   7
ATOM      7  O   UNL     1       9.387   1.931  21.232  0.00  0.00    -0.386 OA
ATOM      8  H   UNL     1       8.433   2.107  21.372  0.00  0.00    +0.210 HD
ENDBRANCH   2   7
BRANCH   3   9
ATOM      9  O   UNL     1      10.030  -0.848  21.509  0.00  0.00    -0.386 OA
ATOM     10  H   UNL     1       9.509  -0.674  20.697  0.00  0.00    +0.210 HD
ENDBRANCH   3   9
BRANCH   4  11
ATOM     11  O   UNL     1       9.064  -1.996  23.976  0.00  0.00    -0.384 OA
ATOM     12  H   UNL     1       9.807  -2.621  24.096  0.00  0.00    +0.210 HD
ENDBRANCH   4  11
BRANCH   5  13
ATOM     13  O   UNL     1       9.522  -0.306  26.266  0.00  0.00    -0.365 OA
ATOM     14  H   UNL     1      10.090   0.387  26.648  0.00  0.00    +0.213 HD
ENDBRANCH   5  13
BRANCH   1  15
ATOM     15  C   UNL     1       9.862   3.599  23.666  0.00  0.00    +0.190 C 
BRANCH  15  16
ATOM     16  O   UNL     1      11.086   3.651  22.927  0.00  0.00    -0.392 OA
ATOM     17  H   UNL     1      11.354   4.586  22.892  0.00  0.00    +0.210 HD
ENDBRANCH  15  16
ENDBRANCH   1  15
TORSDOF 6
ENDMDL
MODEL 6
REMARK VINA RESULT:      -4.5      1.825      3.656
REMARK  Name = 
REMARK  6 active torsions:
REMARK  status: ('A' for Active; 'I' for Inactive)
REMARK    1  A    between atoms: O_1  and  C_2
REMARK    2  A    between atoms: C_2  and  C_3
REMARK    3  A    between atoms: C_6  and  O_8
REMARK    4  A    between atoms: C_9  and  O_11
REMARK    5  A    between atoms: C_12  and  O_14
REMARK    6  A    between atoms: C_15  and  O_17
REMARK                            x       y       z     vdW  Elec       q    Type
REMARK                         _______ _______ _______ _____ _____    ______ ____
ROOT
ATOM      1  C   UNL     1       6.455  -4.477  24.407  0.00  0.00    +0.178 C 
ATOM      2  C   UNL     1       7.605  -3.564  23.950  0.00  0.00    +0.177 C 
ATOM      3  C   UNL     1       8.953  -4.196  24.304  0.00  0.00    +0.179 C 
ATOM      4  C   UNL     1       9.006  -4.630  25.766  0.00  0.00    +0.201 C 
ATOM      5  C   UNL     1       7.771  -5.482  26.091  0.00  0.00    +0.279 C 
ATOM      6  O   UNL     1       6.582  -4.766  25.812  0.00  0.00    -0.341 OA
ENDROOT
BRANCH   2   7
ATOM      7  O   UNL     1       7.553  -3.355  22.536  0.00  0.00    -0.386 OA
ATOM      8  H   UNL     1       6.750  -3.827  22.231  0.00  0.00    +0.210 HD
ENDBRANCH   2   7
BRANCH   3   9
ATOM      9  O   UNL     1      10.000  -3.255  24.023  0.00  0.00    -0.386 OA
ATOM     10  H   UNL     1       9.660  -2.701  23.290  0.00  0.00    +0.210 HD
ENDBRANCH   3   9
BRANCH   4  11
ATOM     11  O   UNL     1      10.222  -5.362  25.985  0.00  0.00    -0.384 OA
ATOM     12  H   UNL     1      10.632  -4.942  26.769  0.00  0.00    +0.210 HD
ENDBRANCH   4  11
BRANCH   5  13
ATOM     13  O   UNL     1       7.793  -5.779  27.479  0.00  0.00    -0.365 OA
ATOM     14  H   UNL     1       7.068  -5.236  27.839  0.00  0.00    +0.213 HD
ENDBRANCH   5  13
BRANCH   1  15
ATOM     15  C   UNL     1       5.089  -3.824  24.162  0.00  0.00    +0.190 C 
BRANCH  15  16
ATOM     16  O   UNL     1       4.725  -3.979  22.788  0.00  0.00    -0.392 OA
ATOM     17  H   UNL     1       4.264  -3.164  22.526  0.00  0.00    +0.210 HD
ENDBRANCH  15  16
ENDBRANCH   1  15
TORSDOF 6
ENDMDL
MODEL 7
REMARK VINA RESULT:      -4.5      3.104      5.587
REMARK  Name = 
REMARK  6 active torsions:
REMARK  status: ('A' for Active; 'I' for Inactive)
REMARK    1  A    between atoms: O_1  and  C_2
REMARK    2  A    between atoms: C_2  and  C_3
REMARK    3  A    between atoms: C_6  and  O_8
REMARK    4  A    between atoms: C_9  and  O_11
REMARK    5  A    between atoms: C_12  and  O_14
REMARK    6  A    between atoms: C_15  and  O_17
REMARK                            x       y       z     vdW  Elec       q    Type
REMARK                         _______ _______ _______ _____ _____    ______ ____
ROOT
ATOM      1  C   UNL     1       9.654  -0.261  24.951  0.00  0.00    +0.178 C 
ATOM      2  C   UNL     1       9.451  -0.911  23.573  0.00  0.00    +0.177 C 
ATOM      3  C   UNL     1      10.057  -0.029  22.479  0.00  0.00    +0.179 C 
ATOM      4  C   UNL     1       9.585   1.418  22.594  0.00  0.00    +0.201 C 
ATOM      5  C   UNL     1       9.796   1.911  24.032  0.00  0.00    +0.279 C 
ATOM      6  O   UNL     1       9.116   1.075  24.952  0.00  0.00    -0.341 OA
ENDROOT
BRANCH   2   7
ATOM      7  O   UNL     1      10.074  -2.198  23.524  0.00  0.00    -0.386 OA
ATOM      8  H   UNL     1      10.936  -2.053  23.078  0.00  0.00    +0.210 HD
ENDBRANCH   2   7
BRANCH   3   9
ATOM      9  O   UNL     1       9.708  -0.569  21.195  0.00  0.00    -0.386 OA
ATOM     10  H   UNL     1      10.236  -1.390  21.108  0.00  0.00    +0.210 HD
ENDBRANCH   3   9
BRANCH   4  11
ATOM     11  O   UNL     1      10.317   2.217  21.651  0.00  0.00    -0.384 OA
ATOM     12  H   UNL     1      11.223   1.847  21.656  0.00  0.00    +0.210 HD
ENDBRANCH   4  11
BRANCH   5  13
ATOM     13  O   UNL     1       9.249   3.217  24.136  0.00  0.00    -0.365 OA
ATOM     14  H   UNL     1       8.289   3.067  24.072  0.00  0.00    +0.213 HD
ENDBRANCH   5  13
BRANCH   1  15
ATOM     15  C   UNL     1       8.966  -1.067  26.059  0.00  0.00    +0.190 C 
BRANCH  15  16
ATOM     16  O   UNL     1       9.157  -0.412  27.315  0.00  0.00    -0.392 OA
ATOM     17  H   UNL     1       8.786  -0.998  27.998  0.00  0.00    +0.210 HD
ENDBRANCH  15  16
ENDBRANCH   1  15
TORSDOF 6
ENDMDL
MODEL 8
REMARK VINA RESULT:      -4.4      2.650      3.788
REMARK  Name = 
REMARK  6 active torsions:
REMARK  status: ('A' for Active; 'I' for Inactive)
REMARK    1  A    between atoms: O_1  and  C_2
REMARK    2  A    between atoms: C_2  and  C_3
REMARK    3  A    between atoms: C_6  and  O_8
REMARK    4  A    between atoms: C_9  and  O_11
REMARK    5  A    between atoms: C_12  and  O_14
REMARK    6  A    between atoms: C_15  and  O_17
REMARK                            x       y       z     vdW  Elec       q    Type
REMARK                         _______ _______ _______ _____ _____    ______ ____
ROOT
ATOM      1  C   UNL     1       9.373   0.702  23.332  0.00  0.00    +0.178 C 
ATOM      2  C   UNL     1      10.102  -0.630  23.095  0.00  0.00    +0.177 C 
ATOM      3  C   UNL     1       9.402  -1.758  23.856  0.00  0.00    +0.179 C 
ATOM      4  C   UNL     1       9.169  -1.393  25.319  0.00  0.00    +0.201 C 
ATOM      5  C   UNL     1       8.489  -0.019  25.401  0.00  0.00    +0.279 C 
ATOM      6  O   UNL     1       9.269   0.965  24.744  0.00  0.00    -0.341 OA
ENDROOT
BRANCH   2   7
ATOM      7  O   UNL     1      10.120  -0.957  21.703  0.00  0.00    -0.386 OA
ATOM      8  H   UNL     1      10.780  -1.676  21.612  0.00  0.00    +0.210 HD
ENDBRANCH   2   7
BRANCH   3   9
ATOM      9  O   UNL     1      10.194  -2.952  23.758  0.00  0.00    -0.386 OA
ATOM     10  H   UNL     1       9.646  -3.585  23.248  0.00  0.00    +0.210 HD
ENDBRANCH   3   9
BRANCH   4  11
ATOM     11  O   UNL     1       8.364  -2.415  25.926  0.00  0.00    -0.384 OA
ATOM     12  H   UNL     1       7.534  -2.426  25.407  0.00  0.00    +0.210 HD
ENDBRANCH   4  11
BRANCH   5  13
ATOM     13  O   UNL     1       8.385   0.341  26.770  0.00  0.00    -0.365 OA
ATOM     14  H   UNL     1       7.471   0.668  26.850  0.00  0.00    +0.213 HD
ENDBRANCH   5  13
BRANCH   1  15
ATOM     15  C   UNL     1      10.111   1.872  22.669  0.00  0.00    +0.190 C 
BRANCH  15  16
ATOM     16  O   UNL     1       9.670   2.009  21.316  0.00  0.00    -0.392 OA
ATOM     17  H   UNL     1       9.118   1.231  21.120  0.00  0.00    +0.210 HD
ENDBRANCH  15  16
ENDBRANCH   1  15
TORSDOF 6
ENDMDL
MODEL 9
REMARK VINA RESULT:      -4.4      1.541      2.146
REMARK  Name = 
REMARK  6 active torsions:
REMARK  status: ('A' for Active; 'I' for Inactive)
REMARK    1  A    between atoms: O_1  and  C_2
REMARK    2  A    between atoms: C_2  and  C_3
REMARK    3  A    between atoms: C_6  and  O_8
REMARK    4  A    between atoms: C_9  and  O_11
REMARK    5  A    between atoms: C_12  and  O_14
REMARK    6  A    between atoms: C_15  and  O_17
REMARK                            x       y       z     vdW  Elec       q    Type
REMARK                         _______ _______ _______ _____ _____    ______ ____
ROOT
ATOM      1  C   UNL     1       8.199  -3.227  24.063  0.00  0.00    +0.178 C 
ATOM      2  C   UNL     1       6.824  -3.835  24.379  0.00  0.00    +0.177 C 
ATOM      3  C   UNL     1       6.825  -4.441  25.785  0.00  0.00    +0.179 C 
ATOM      4  C   UNL     1       8.014  -5.373  25.996  0.00  0.00    +0.201 C 
ATOM      5  C   UNL     1       9.307  -4.654  25.586  0.00  0.00    +0.279 C 
ATOM      6  O   UNL     1       9.230  -4.217  24.241  0.00  0.00    -0.341 OA
ENDROOT
BRANCH   2   7
ATOM      7  O   UNL     1       5.801  -2.837  24.310  0.00  0.00    -0.386 OA
ATOM      8  H   UNL     1       6.057  -2.252  23.567  0.00  0.00    +0.210 HD
ENDBRANCH   2   7
BRANCH   3   9
ATOM      9  O   UNL     1       5.592  -5.148  25.991  0.00  0.00    -0.386 OA
ATOM     10  H   UNL     1       5.491  -5.727  25.207  0.00  0.00    +0.210 HD
ENDBRANCH   3   9
BRANCH   4  11
ATOM     11  O   UNL     1       8.048  -5.770  27.377  0.00  0.00    -0.384 OA
ATOM     12  H   UNL     1       8.829  -5.313  27.752  0.00  0.00    +0.210 HD
ENDBRANCH   4  11
BRANCH   5  13
ATOM     13  O   UNL     1      10.379  -5.578  25.691  0.00  0.00    -0.365 OA
ATOM     14  H   UNL     1      10.227  -6.187  24.947  0.00  0.00    +0.213 HD
ENDBRANCH   5  13
BRANCH   1  15
ATOM     15  C   UNL     1       8.264  -2.706  22.622  0.00  0.00    +0.190 C 
BRANCH  15  16
ATOM     16  O   UNL     1       7.727  -1.382  22.569  0.00  0.00    -0.392 OA
ATOM     17  H   UNL     1       6.784  -1.470  22.346  0.00  0.00    +0.210 HD
ENDBRANCH  15  16
ENDBRANCH   1  15
TORSDOF 6
ENDMDL
