MODEL 1
REMARK VINA RESULT:      -5.0      0.000      0.000
REMARK  Name = 
REMARK  5 active torsions:
REMARK  status: ('A' for Active; 'I' for Inactive)
REMARK    1  A    between atoms: N_1  and  CA_2
REMARK    2  A    between atoms: CA_2  and  C_4
REMARK    3  A    between atoms: CA_2  and  C_7
REMARK    4  A    between atoms: C_4  and  O_5
REMARK    5  A    between atoms: C_10  and  O_11
REMARK                            x       y       z     vdW  Elec       q    Type
REMARK                         _______ _______ _______ _____ _____    ______ ____
ROOT
ATOM      1  CA  UNL     1       8.964  -4.669  25.300  0.00  0.00    +0.191 C 
ENDROOT
BRANCH   1   2
ATOM      2  C   UNL     1       8.124  -4.466  24.047  0.00  0.00    -0.020 A 
ATOM      3  C   UNL     1       7.715  -5.537  23.236  0.00  0.00    +0.009 A 
ATOM      4  C   UNL     1       6.899  -5.317  22.124  0.00  0.00    +0.046 A 
ATOM      5  C   UNL     1       6.475  -4.030  21.820  0.00  0.00    +0.117 A 
ATOM      6  C   UNL     1       6.865  -2.951  22.604  0.00  0.00    +0.046 A 
ATOM      7  C   UNL     1       7.687  -3.170  23.713  0.00  0.00    +0.009 A 
BRANCH   5   8
ATOM      8  O   UNL     1       5.663  -3.868  20.739  0.00  0.00    -0.507 OA
ATOM      9  H   UNL     1       5.533  -4.729  20.309  0.00  0.00    +0.292 HD
ENDBRANCH   5   8
ENDBRANCH   1   2
BRANCH   1  10
ATOM     10  N   UNL     1       9.924  -5.787  25.157  0.00  0.00    -0.315 NA
ATOM     11  H1  UNL     1       9.963  -6.018  24.159  0.00  0.00    +0.119 HD
ATOM     12  H2  UNL     1      10.862  -5.443  25.360  0.00  0.00    +0.119 HD
ENDBRANCH   1  10
BRANCH   1  13
ATOM     13  C   UNL     1       8.162  -4.846  26.612  0.00  0.00    +0.326 C 
ATOM     14  OXT UNL     1       7.601  -3.903  27.165  0.00  0.00    -0.249 OA
BRANCH  13  15
ATOM     15  O   UNL     1       8.109  -6.089  27.140  0.00  0.00    -0.479 OA
ATOM     16  H   UNL     1       8.969  -6.460  27.418  0.00  0.00    +0.295 HD
ENDBRANCH  13  15
ENDBRANCH   1  13
TORSDOF 5
ENDMDL
MODEL 2
REMARK VINA RESULT:      -5.0      2.320      4.911
REMARK  Name = 
REMARK  5 active torsions:
REMARK  status: ('A' for Active; 'I' for Inactive)
REMARK    1  A    between atoms: N_1  and  CA_2
REMARK    2  A    between atoms: CA_2  and  C_4
REMARK    3  A    between atoms: CA_2  and  C_7
REMARK    4  A    between atoms: C_4  and  O_5
REMARK    5  A    between atoms: C_10  and  O_11
REMARK                            x       y       z     vdW  Elec       q    Type
REMARK                         _______ _______ _______ _____ _____    ______ ____
ROOT
ATOM      1  CA  UNL     1       6.485  -4.436  22.201  0.00  0.00    +0.191 C 
ENDROOT
BRANCH   1   2
ATOM      2  C   UNL     1       6.848  -4.746  23.646  0.00  0.00    -0.020 A 
ATOM      3  C   UNL     1       5.874  -4.996  24.627  0.00  0.00    +0.009 A 
ATOM      4  C   UNL     1       6.246  -5.331  25.931  0.00  0.00    +0.046 A 
ATOM      5  C   UNL     1       7.590  -5.431  26.263  0.00  0.00    +0.117 A 
ATOM      6  C   UNL     1       8.576  -5.189  25.314  0.00  0.00    +0.046 A 
ATOM      7  C   UNL     1       8.204  -4.847  24.010  0.00  0.00    +0.009 A 
BRANCH   5   8
ATOM      8  O   UNL     1       7.904  -5.781  27.541  0.00  0.00    -0.507 OA
ATOM      9  H   UNL     1       8.867  -5.721  27.658  0.00  0.00    +0.292 HD
ENDBRANCH   5   8
ENDBRANCH   1   2
BRANCH   1  10
ATOM     10  N   UNL     1       5.330  -3.517  22.097  0.00  0.00    -0.315 NA
ATOM     11  H1  UNL     1       4.839  -3.754  21.229  0.00  0.00    +0.119 HD
ATOM     12  H2  UNL     1       4.656  -3.752  22.825  0.00  0.00    +0.119 HD
ENDBRANCH   1  10
BRANCH   1  13
ATOM     13  C   UNL     1       6.240  -5.672  21.301  0.00  0.00    +0.326 C 
ATOM     14  OXT UNL     1       5.976  -5.566  20.106  0.00  0.00    -0.249 OA
BRANCH  13  15
ATOM     15  O   UNL     1       6.319  -6.887  21.887  0.00  0.00    -0.479 OA
ATOM     16  H   UNL     1       6.844  -7.551  21.398  0.00  0.00    +0.295 HD
ENDBRANCH  13  15
ENDBRANCH   1  13
TORSDOF 5
ENDMDL
MODEL 3
REMARK VINA RESULT:      -4.9      7.197      8.174
REMARK  Name = 
REMARK  5 active torsions:
REMARK  status: ('A' for Active; 'I' for Inactive)
REMARK    1  A    between atoms: N_1  and  CA_2
REMARK    2  A    between atoms: CA_2  and  C_4
REMARK    3  A    between atoms: CA_2  and  C_7
REMARK    4  A    between atoms: C_4  and  O_5
REMARK    5  A    between atoms: C_10  and  O_11
REMARK                            x       y       z     vdW  Elec       q    Type
REMARK                         _______ _______ _______ _____ _____    ______ ____
ROOT
ATOM      1  CA  UNL     1       9.799   3.638  23.679  0.00  0.00    +0.191 C 
ENDROOT
BRANCH   1   2
ATOM      2  C   UNL     1       9.961   2.199  23.210  0.00  0.00    -0.020 A 
ATOM      3  C   UNL     1      10.547   1.208  24.015  0.00  0.00    +0.009 A 
ATOM      4  C   UNL     1      10.630  -0.113  23.571  0.00  0.00    +0.046 A 
ATOM      5  C   UNL     1      10.118  -0.459  22.327  0.00  0.00    +0.117 A 
ATOM      6  C   UNL     1       9.535   0.500  21.508  0.00  0.00    +0.046 A 
ATOM      7  C   UNL     1       9.458   1.824  21.949  0.00  0.00    +0.009 A 
BRANCH   5   8
ATOM      8  O   UNL     1      10.203  -1.763  21.946  0.00  0.00    -0.507 OA
ATOM      9  H   UNL     1      10.863  -2.213  22.500  0.00  0.00    +0.292 HD
ENDBRANCH   5   8
ENDBRANCH   1   2
BRANCH   1  10
ATOM     10  N   UNL     1       8.565   4.263  23.154  0.00  0.00    -0.315 NA
ATOM     11  H1  UNL     1       7.793   3.624  23.371  0.00  0.00    +0.119 HD
ATOM     12  H2  UNL     1       8.354   5.091  23.709  0.00  0.00    +0.119 HD
ENDBRANCH   1  10
BRANCH   1  13
ATOM     13  C   UNL     1      11.006   4.566  23.394  0.00  0.00    +0.326 C 
ATOM     14  OXT UNL     1      12.164   4.157  23.424  0.00  0.00    -0.249 OA
BRANCH  13  15
ATOM     15  O   UNL     1      10.736   5.860  23.117  0.00  0.00    -0.479 OA
ATOM     16  H   UNL     1      10.852   6.118  22.181  0.00  0.00    +0.295 HD
ENDBRANCH  13  15
ENDBRANCH   1  13
TORSDOF 5
ENDMDL
MODEL 4
REMARK VINA RESULT:      -4.9      5.251      6.115
REMARK  Name = 
REMARK  5 active torsions:
REMARK  status: ('A' for Active; 'I' for Inactive)
REMARK    1  A    between atoms: N_1  and  CA_2
REMARK    2  A    between atoms: CA_2  and  C_4
REMARK    3  A    between atoms: CA_2  and  C_7
REMARK    4  A    between atoms: C_4  and  O_5
REMARK    5  A    between atoms: C_10  and  O_11
REMARK                            x       y       z     vdW  Elec       q    Type
REMARK                         _______ _______ _______ _____ _____    ______ ____
ROOT
ATOM      1  CA  UNL     1      10.241  -1.576  22.738  0.00  0.00    +0.191 C 
ENDROOT
BRANCH   1   2
ATOM      2  C   UNL     1      10.231  -0.067  22.933  0.00  0.00    -0.020 A 
ATOM      3  C   UNL     1      10.751   0.544  24.086  0.00  0.00    +0.009 A 
ATOM      4  C   UNL     1      10.773   1.935  24.206  0.00  0.00    +0.046 A 
ATOM      5  C   UNL     1      10.288   2.727  23.173  0.00  0.00    +0.117 A 
ATOM      6  C   UNL     1       9.766   2.150  22.022  0.00  0.00    +0.046 A 
ATOM      7  C   UNL     1       9.738   0.758  21.904  0.00  0.00    +0.009 A 
BRANCH   5   8
ATOM      8  O   UNL     1      10.349   4.079  23.327  0.00  0.00    -0.507 OA
ATOM      9  H   UNL     1       9.485   4.462  23.104  0.00  0.00    +0.292 HD
ENDBRANCH   5   8
ENDBRANCH   1   2
BRANCH   1  10
ATOM     10  N   UNL     1       9.758  -1.972  21.396  0.00  0.00    -0.315 NA
ATOM     11  H1  UNL     1       9.043  -1.288  21.125  0.00  0.00    +0.119 HD
ATOM     12  H2  UNL     1      10.505  -1.818  20.719  0.00  0.00    +0.119 HD
ENDBRANCH   1  10
BRANCH   1  13
ATOM     13  C   UNL     1       9.482  -2.387  23.817  0.00  0.00    +0.326 C 
ATOM     14  OXT UNL     1       8.415  -2.004  24.289  0.00  0.00    -0.249 OA
BRANCH  13  15
ATOM     15  O   UNL     1      10.048  -3.542  24.231  0.00  0.00    -0.479 OA
ATOM     16  H   UNL     1      10.817  -3.841  23.706  0.00  0.00    +0.295 HD
ENDBRANCH  13  15
ENDBRANCH   1  13
TORSDOF 5
ENDMDL
MODEL 5
REMARK VINA RESULT:      -4.8      5.228      6.090
REMARK  Name = 
REMARK  5 active torsions:
REMARK  status: ('A' for Active; 'I' for Inactive)
REMARK    1  A    between atoms: N_1  and  CA_2
REMARK    2  A    between atoms: CA_2  and  C_4
REMARK    3  A    between atoms: CA_2  and  C_7
REMARK    4  A    between atoms: C_4  and  O_5
REMARK    5  A    between atoms: C_10  and  O_11
REMARK                            x       y       z     vdW  Elec       q    Type
REMARK                         _______ _______ _______ _____ _____    ______ ____
ROOT
ATOM      1  CA  UNL     1      10.163  -1.574  22.659  0.00  0.00    +0.191 C 
ENDROOT
BRANCH   1   2
ATOM      2  C   UNL     1      10.207  -0.061  22.808  0.00  0.00    -0.020 A 
ATOM      3  C   UNL     1       9.688   0.806  21.831  0.00  0.00    +0.009 A 
ATOM      4  C   UNL     1       9.697   2.188  22.028  0.00  0.00    +0.046 A 
ATOM      5  C   UNL     1      10.212   2.717  23.205  0.00  0.00    +0.117 A 
ATOM      6  C   UNL     1      10.733   1.885  24.188  0.00  0.00    +0.046 A 
ATOM      7  C   UNL     1      10.730   0.501  23.989  0.00  0.00    +0.009 A 
BRANCH   5   8
ATOM      8  O   UNL     1      10.181   4.069  23.360  0.00  0.00    -0.507 OA
ATOM      9  H   UNL     1      11.056   4.374  23.650  0.00  0.00    +0.292 HD
ENDBRANCH   5   8
ENDBRANCH   1   2
BRANCH   1  10
ATOM     10  N   UNL     1       9.559  -1.994  21.375  0.00  0.00    -0.315 NA
ATOM     11  H1  UNL     1       8.841  -1.300  21.144  0.00  0.00    +0.119 HD
ATOM     12  H2  UNL     1      10.249  -1.880  20.634  0.00  0.00    +0.119 HD
ENDBRANCH   1  10
BRANCH   1  13
ATOM     13  C   UNL     1       9.478  -2.333  23.822  0.00  0.00    +0.326 C 
ATOM     14  OXT UNL     1       8.458  -1.914  24.362  0.00  0.00    -0.249 OA
BRANCH  13  15
ATOM     15  O   UNL     1      10.056  -3.484  24.232  0.00  0.00    -0.479 OA
ATOM     16  H   UNL     1      10.776  -3.815  23.659  0.00  0.00    +0.295 HD
ENDBRANCH  13  15
ENDBRANCH   1  13
TORSDOF 5
ENDMDL
MODEL 6
REMARK VINA RESULT:      -4.7      3.955      4.710
REMARK  Name = 
REMARK  5 active torsions:
REMARK  status: ('A' for Active; 'I' for Inactive)
REMARK    1  A    between atoms: N_1  and  CA_2
REMARK    2  A    between atoms: CA_2  and  C_4
REMARK    3  A    between atoms: CA_2  and  C_7
REMARK    4  A    between atoms: C_4  and  O_5
REMARK    5  A    between atoms: C_10  and  O_11
REMARK                            x       y       z     vdW  Elec       q    Type
REMARK                         _______ _______ _______ _____ _____    ______ ____
ROOT
ATOM      1  CA  UNL     1       9.030  -2.523  24.316  0.00  0.00    +0.191 C 
ENDROOT
BRANCH   1   2
ATOM      2  C   UNL     1       9.418  -1.261  23.560  0.00  0.00    -0.020 A 
ATOM      3  C   UNL     1       9.185  -1.110  22.183  0.00  0.00    +0.009 A 
ATOM      4  C   UNL     1       9.506   0.084  21.534  0.00  0.00    +0.046 A 
ATOM      5  C   UNL     1      10.048   1.140  22.254  0.00  0.00    +0.117 A 
ATOM      6  C   UNL     1      10.290   1.019  23.617  0.00  0.00    +0.046 A 
ATOM      7  C   UNL     1       9.976  -0.178  24.266  0.00  0.00    +0.009 A 
BRANCH   5   8
ATOM      8  O   UNL     1      10.325   2.292  21.582  0.00  0.00    -0.507 OA
ATOM      9  H   UNL     1      11.079   2.733  22.007  0.00  0.00    +0.292 HD
ENDBRANCH   5   8
ENDBRANCH   1   2
BRANCH   1  10
ATOM     10  N   UNL     1      10.065  -3.576  24.219  0.00  0.00    -0.315 NA
ATOM     11  H1  UNL     1      10.896  -3.221  24.704  0.00  0.00    +0.119 HD
ATOM     12  H2  UNL     1       9.778  -4.373  24.787  0.00  0.00    +0.119 HD
ENDBRANCH   1  10
BRANCH   1  13
ATOM     13  C   UNL     1       7.652  -3.122  23.941  0.00  0.00    +0.326 C 
ATOM     14  OXT UNL     1       6.597  -2.610  24.307  0.00  0.00    -0.249 OA
BRANCH  13  15
ATOM     15  O   UNL     1       7.652  -4.248  23.193  0.00  0.00    -0.479 OA
ATOM     16  H   UNL     1       8.053  -5.030  23.621  0.00  0.00    +0.295 HD
ENDBRANCH  13  15
ENDBRANCH   1  13
TORSDOF 5
ENDMDL
MODEL 7
REMARK VINA RESULT:      -4.7      5.439      7.001
REMARK  Name = 
REMARK  5 active torsions:
REMARK  status: ('A' for Active; 'I' for Inactive)
REMARK    1  A    between atoms: N_1  and  CA_2
REMARK    2  A    between atoms: CA_2  and  C_4
REMARK    3  A    between atoms: CA_2  and  C_7
REMARK    4  A    between atoms: C_4  and  O_5
REMARK    5  A    between atoms: C_10  and  O_11
REMARK                            x       y       z     vdW  Elec       q    Type
REMARK                         _______ _______ _______ _____ _____    ______ ____
ROOT
ATOM      1  CA  UNL     1       9.630   2.111  22.086  0.00  0.00    +0.191 C 
ENDROOT
BRANCH   1   2
ATOM      2  C   UNL     1       9.781   0.695  22.621  0.00  0.00    -0.020 A 
ATOM      3  C   UNL     1       9.894   0.419  23.994  0.00  0.00    +0.009 A 
ATOM      4  C   UNL     1       9.977  -0.898  24.451  0.00  0.00    +0.046 A 
ATOM      5  C   UNL     1       9.935  -1.950  23.546  0.00  0.00    +0.117 A 
ATOM      6  C   UNL     1       9.825  -1.707  22.182  0.00  0.00    +0.046 A 
ATOM      7  C   UNL     1       9.749  -0.389  21.723  0.00  0.00    +0.009 A 
BRANCH   5   8
ATOM      8  O   UNL     1       9.998  -3.217  24.040  0.00  0.00    -0.507 OA
ATOM      9  H   UNL     1       9.299  -3.752  23.630  0.00  0.00    +0.292 HD
ENDBRANCH   5   8
ENDBRANCH   1   2
BRANCH   1  10
ATOM     10  N   UNL     1      10.512   3.072  22.786  0.00  0.00    -0.315 NA
ATOM     11  H1  UNL     1       9.900   3.733  23.276  0.00  0.00    +0.119 HD
ATOM     12  H2  UNL     1      10.993   2.586  23.542  0.00  0.00    +0.119 HD
ENDBRANCH   1  10
BRANCH   1  13
ATOM     13  C   UNL     1       8.183   2.660  22.069  0.00  0.00    +0.326 C 
ATOM     14  OXT UNL     1       7.208   1.924  21.938  0.00  0.00    -0.249 OA
BRANCH  13  15
ATOM     15  O   UNL     1       8.029   3.997  22.196  0.00  0.00    -0.479 OA
ATOM     16  H   UNL     1       7.109   4.319  22.118  0.00  0.00    +0.295 HD
ENDBRANCH  13  15
ENDBRANCH   1  13
TORSDOF 5
ENDMDL
MODEL 8
REMARK VINA RESULT:      -4.7      2.818      3.405
REMARK  Name = 
REMARK  5 active torsions:
REMARK  status: ('A' for Active; 'I' for Inactive)
REMARK    1  A    between atoms: N_1  and  CA_2
REMARK    2  A    between atoms: CA_2  and  C_4
REMARK    3  A    between atoms: CA_2  and  C_7
REMARK    4  A    between atoms: C_4  and  O_5
REMARK    5  A    between atoms: C_10  and  O_11
REMARK                            x       y       z     vdW  Elec       q    Type
REMARK                         _______ _______ _______ _____ _____    ______ ____
ROOT
ATOM      1  CA  UNL     1       9.165  -4.699  26.143  0.00  0.00    +0.191 C 
ENDROOT
BRANCH   1   2
ATOM      2  C   UNL     1       9.042  -3.323  25.504  0.00  0.00    -0.020 A 
ATOM      3  C   UNL     1       8.447  -2.238  26.168  0.00  0.00    +0.009 A 
ATOM      4  C   UNL     1       8.401  -0.976  25.570  0.00  0.00    +0.046 A 
ATOM      5  C   UNL     1       8.959  -0.785  24.313  0.00  0.00    +0.117 A 
ATOM      6  C   UNL     1       9.554  -1.840  23.632  0.00  0.00    +0.046 A 
ATOM      7  C   UNL     1       9.594  -3.105  24.227  0.00  0.00    +0.009 A 
BRANCH   5   8
ATOM      8  O   UNL     1       8.909   0.467  23.780  0.00  0.00    -0.507 OA
ATOM      9  H   UNL     1       9.684   0.599  23.209  0.00  0.00    +0.292 HD
ENDBRANCH   5   8
ENDBRANCH   1   2
BRANCH   1  10
ATOM     10  N   UNL     1      10.018  -5.612  25.349  0.00  0.00    -0.315 NA
ATOM     11  H1  UNL     1      10.188  -6.439  25.931  0.00  0.00    +0.119 HD
ATOM     12  H2  UNL     1       9.472  -5.977  24.569  0.00  0.00    +0.119 HD
ENDBRANCH   1  10
BRANCH   1  13
ATOM     13  C   UNL     1       7.822  -5.400  26.464  0.00  0.00    +0.326 C 
ATOM     14  OXT UNL     1       6.900  -5.446  25.653  0.00  0.00    -0.249 OA
BRANCH  13  15
ATOM     15  O   UNL     1       7.696  -5.959  27.688  0.00  0.00    -0.479 OA
ATOM     16  H   UNL     1       8.538  -6.175  28.136  0.00  0.00    +0.295 HD
ENDBRANCH  13  15
ENDBRANCH   1  13
TORSDOF 5
ENDMDL
MODEL 9
REMARK VINA RESULT:      -4.7      2.327      4.913
REMARK  Name = 
REMARK  5 active torsions:
REMARK  status: ('A' for Active; 'I' for Inactive)
REMARK    1  A    between atoms: N_1  and  CA_2
REMARK    2  A    between atoms: CA_2  and  C_4
REMARK    3  A    between atoms: CA_2  and  C_7
REMARK    4  A    between atoms: C_4  and  O_5
REMARK    5  A    between atoms: C_10  and  O_11
REMARK                            x       y       z     vdW  Elec       q    Type
REMARK                         _______ _______ _______ _____ _____    ______ ____
ROOT
ATOM      1  CA  UNL     1       5.904  -4.593  22.461  0.00  0.00    +0.191 C 
ENDROOT
BRANCH   1   2
ATOM      2  C   UNL     1       6.791  -4.737  23.689  0.00  0.00    -0.020 A 
ATOM      3  C   UNL     1       8.143  -4.351  23.688  0.00  0.00    +0.009 A 
ATOM      4  C   UNL     1       8.911  -4.448  24.850  0.00  0.00    +0.046 A 
ATOM      5  C   UNL     1       8.336  -4.918  26.024  0.00  0.00    +0.117 A 
ATOM      6  C   UNL     1       7.002  -5.307  26.054  0.00  0.00    +0.046 A 
ATOM      7  C   UNL     1       6.234  -5.217  24.890  0.00  0.00    +0.009 A 
BRANCH   5   8
ATOM      8  O   UNL     1       9.119  -4.975  27.136  0.00  0.00    -0.507 OA
ATOM      9  H   UNL     1       9.346  -5.902  27.316  0.00  0.00    +0.292 HD
ENDBRANCH   5   8
ENDBRANCH   1   2
BRANCH   1  10
ATOM     10  N   UNL     1       4.473  -4.458  22.815  0.00  0.00    -0.315 NA
ATOM     11  H1  UNL     1       3.936  -4.803  22.014  0.00  0.00    +0.119 HD
ATOM     12  H2  UNL     1       4.254  -5.124  23.555  0.00  0.00    +0.119 HD
ENDBRANCH   1  10
BRANCH   1  13
ATOM     13  C   UNL     1       6.066  -5.704  21.395  0.00  0.00    +0.326 C 
ATOM     14  OXT UNL     1       5.964  -5.473  20.192  0.00  0.00    -0.249 OA
BRANCH  13  15
ATOM     15  O   UNL     1       6.319  -6.954  21.840  0.00  0.00    -0.479 OA
ATOM     16  H   UNL     1       6.484  -7.619  21.142  0.00  0.00    +0.295 HD
ENDBRANCH  13  15
ENDBRANCH   1  13
TORSDOF 5
ENDMDL
