MODEL 1
REMARK VINA RESULT:      -4.6      0.000      0.000
REMARK  Name = 
REMARK  9 active torsions:
REMARK  status: ('A' for Active; 'I' for Inactive)
REMARK    1  A    between atoms: C_1  and  C_2
REMARK    2  A    between atoms: C_2  and  C_3
REMARK    3  A    between atoms: C_2  and  C_4
REMARK    4  A    between atoms: C_4  and  C_6
REMARK    5  A    between atoms: C_4  and  C_12
REMARK    6  A    between atoms: C_6  and  O_8
REMARK    7  A    between atoms: C_6  and  C_9
REMARK    8  A    between atoms: C_9  and  O_10
REMARK    9  A    between atoms: C_12  and  O_13
REMARK                            x       y       z     vdW  Elec       q    Type
REMARK                         _______ _______ _______ _____ _____    ______ ____
ROOT
ATOM      1  C   UNL     1       9.610   0.126  23.202  0.00  0.00    +0.139 C 
ENDROOT
BRANCH   1   3
ATOM      2  C   UNL     1       8.406   1.564  21.401  0.00  0.00    +0.008 C 
ATOM      3  C   UNL     1       9.716   1.241  22.117  0.00  0.00    -0.000 C 
ATOM      4  C   UNL     1      10.362   2.535  22.627  0.00  0.00    +0.008 C 
ENDBRANCH   1   3
BRANCH   1   5
ATOM      5  C   UNL     1      10.156   0.525  24.575  0.00  0.00    +0.311 C 
ATOM      6  O   UNL     1      11.345   0.458  24.874  0.00  0.00    -0.251 OA
BRANCH   5   7
ATOM      7  O   UNL     1       9.251   0.896  25.501  0.00  0.00    -0.480 OA
ATOM      8  H   UNL     1       9.013   0.247  26.184  0.00  0.00    +0.295 HD
ENDBRANCH   5   7
ENDBRANCH   1   5
BRANCH   1   9
ATOM      9  C   UNL     1      10.233  -1.251  22.876  0.00  0.00    +0.236 C 
BRANCH   9  10
ATOM     10  C   UNL     1       9.556  -2.413  23.596  0.00  0.00    +0.334 C 
ATOM     11  O   UNL     1      10.134  -3.355  24.110  0.00  0.00    -0.248 OA
BRANCH  10  12
ATOM     12  O   UNL     1       8.204  -2.262  23.617  0.00  0.00    -0.479 OA
ATOM     13  H   UNL     1       7.911  -2.098  22.687  0.00  0.00    +0.295 HD
ENDBRANCH  10  12
ENDBRANCH   9  10
BRANCH   9  14
ATOM     14  O   UNL     1      10.223  -1.550  21.468  0.00  0.00    -0.380 OA
ATOM     15  H   UNL     1      10.891  -0.959  21.065  0.00  0.00    +0.211 HD
ENDBRANCH   9  14
ENDBRANCH   1   9
TORSDOF 7
ENDMDL
MODEL 2
REMARK VINA RESULT:      -4.5      4.046      5.665
REMARK  Name = 
REMARK  9 active torsions:
REMARK  status: ('A' for Active; 'I' for Inactive)
REMARK    1  A    between atoms: C_1  and  C_2
REMARK    2  A    between atoms: C_2  and  C_3
REMARK    3  A    between atoms: C_2  and  C_4
REMARK    4  A    between atoms: C_4  and  C_6
REMARK    5  A    between atoms: C_4  and  C_12
REMARK    6  A    between atoms: C_6  and  O_8
REMARK    7  A    between atoms: C_6  and  C_9
REMARK    8  A    between atoms: C_9  and  O_10
REMARK    9  A    between atoms: C_12  and  O_13
REMARK                            x       y       z     vdW  Elec       q    Type
REMARK                         _______ _______ _______ _____ _____    ______ ____
ROOT
ATOM      1  C   UNL     1       8.813  -3.928  26.135  0.00  0.00    +0.139 C 
ENDROOT
BRANCH   1   3
ATOM      2  C   UNL     1       8.396  -1.386  26.490  0.00  0.00    +0.008 C 
ATOM      3  C   UNL     1       8.487  -2.543  25.496  0.00  0.00    -0.000 C 
ATOM      4  C   UNL     1       9.420  -2.163  24.340  0.00  0.00    +0.008 C 
ENDBRANCH   1   3
BRANCH   1   5
ATOM      5  C   UNL     1       9.372  -4.961  25.153  0.00  0.00    +0.311 C 
ATOM      6  O   UNL     1       8.766  -5.340  24.155  0.00  0.00    -0.251 OA
BRANCH   5   7
ATOM      7  O   UNL     1      10.559  -5.514  25.468  0.00  0.00    -0.480 OA
ATOM      8  H   UNL     1      11.320  -4.918  25.573  0.00  0.00    +0.295 HD
ENDBRANCH   5   7
ENDBRANCH   1   5
BRANCH   1   9
ATOM      9  C   UNL     1       7.684  -4.641  26.912  0.00  0.00    +0.236 C 
BRANCH   9  10
ATOM     10  C   UNL     1       6.291  -4.370  26.352  0.00  0.00    +0.334 C 
ATOM     11  O   UNL     1       5.505  -3.549  26.789  0.00  0.00    -0.248 OA
BRANCH  10  12
ATOM     12  O   UNL     1       6.032  -5.156  25.272  0.00  0.00    -0.479 OA
ATOM     13  H   UNL     1       5.243  -5.710  25.493  0.00  0.00    +0.295 HD
ENDBRANCH  10  12
ENDBRANCH   9  10
BRANCH   9  14
ATOM     14  O   UNL     1       7.859  -6.068  26.967  0.00  0.00    -0.380 OA
ATOM     15  H   UNL     1       7.127  -6.448  26.438  0.00  0.00    +0.211 HD
ENDBRANCH   9  14
ENDBRANCH   1   9
TORSDOF 7
ENDMDL
MODEL 3
REMARK VINA RESULT:      -4.4      2.062      3.852
REMARK  Name = 
REMARK  9 active torsions:
REMARK  status: ('A' for Active; 'I' for Inactive)
REMARK    1  A    between atoms: C_1  and  C_2
REMARK    2  A    between atoms: C_2  and  C_3
REMARK    3  A    between atoms: C_2  and  C_4
REMARK    4  A    between atoms: C_4  and  C_6
REMARK    5  A    between atoms: C_4  and  C_12
REMARK    6  A    between atoms: C_6  and  O_8
REMARK    7  A    between atoms: C_6  and  C_9
REMARK    8  A    between atoms: C_9  and  O_10
REMARK    9  A    between atoms: C_12  and  O_13
REMARK                            x       y       z     vdW  Elec       q    Type
REMARK                         _______ _______ _______ _____ _____    ______ ____
ROOT
ATOM      1  C   UNL     1       8.941  -0.350  23.205  0.00  0.00    +0.139 C 
ENDROOT
BRANCH   1   3
ATOM      2  C   UNL     1       9.003  -0.253  25.803  0.00  0.00    +0.008 C 
ATOM      3  C   UNL     1       9.448   0.381  24.486  0.00  0.00    -0.000 C 
ATOM      4  C   UNL     1      10.964   0.608  24.505  0.00  0.00    +0.008 C 
ENDBRANCH   1   3
BRANCH   1   5
ATOM      5  C   UNL     1       9.827  -1.511  22.747  0.00  0.00    +0.311 C 
ATOM      6  O   UNL     1      10.179  -2.424  23.488  0.00  0.00    -0.251 OA
BRANCH   5   7
ATOM      7  O   UNL     1      10.284  -1.460  21.481  0.00  0.00    -0.480 OA
ATOM      8  H   UNL     1       9.932  -2.107  20.848  0.00  0.00    +0.295 HD
ENDBRANCH   5   7
ENDBRANCH   1   5
BRANCH   1   9
ATOM      9  C   UNL     1       8.676   0.510  21.948  0.00  0.00    +0.236 C 
BRANCH   9  10
ATOM     10  C   UNL     1       7.532   1.505  22.119  0.00  0.00    +0.334 C 
ATOM     11  O   UNL     1       7.595   2.698  21.876  0.00  0.00    -0.248 OA
BRANCH  10  12
ATOM     12  O   UNL     1       6.404   0.890  22.566  0.00  0.00    -0.479 OA
ATOM     13  H   UNL     1       5.976   0.456  21.787  0.00  0.00    +0.295 HD
ENDBRANCH  10  12
ENDBRANCH   9  10
BRANCH   9  14
ATOM     14  O   UNL     1       9.834   1.250  21.524  0.00  0.00    -0.380 OA
ATOM     15  H   UNL     1      10.031   1.879  22.248  0.00  0.00    +0.211 HD
ENDBRANCH   9  14
ENDBRANCH   1   9
TORSDOF 7
ENDMDL
MODEL 4
REMARK VINA RESULT:      -4.4      1.947      2.933
REMARK  Name = 
REMARK  9 active torsions:
REMARK  status: ('A' for Active; 'I' for Inactive)
REMARK    1  A    between atoms: C_1  and  C_2
REMARK    2  A    between atoms: C_2  and  C_3
REMARK    3  A    between atoms: C_2  and  C_4
REMARK    4  A    between atoms: C_4  and  C_6
REMARK    5  A    between atoms: C_4  and  C_12
REMARK    6  A    between atoms: C_6  and  O_8
REMARK    7  A    between atoms: C_6  and  C_9
REMARK    8  A    between atoms: C_9  and  O_10
REMARK    9  A    between atoms: C_12  and  O_13
REMARK                            x       y       z     vdW  Elec       q    Type
REMARK                         _______ _______ _______ _____ _____    ______ ____
ROOT
ATOM      1  C   UNL     1       9.770   0.412  23.021  0.00  0.00    +0.139 C 
ENDROOT
BRANCH   1   3
ATOM      2  C   UNL     1       9.738  -0.137  25.563  0.00  0.00    +0.008 C 
ATOM      3  C   UNL     1       9.046   0.563  24.395  0.00  0.00    -0.000 C 
ATOM      4  C   UNL     1       8.737   2.018  24.770  0.00  0.00    +0.008 C 
ENDBRANCH   1   3
BRANCH   1   5
ATOM      5  C   UNL     1       9.330   1.423  21.960  0.00  0.00    +0.311 C 
ATOM      6  O   UNL     1       8.196   1.457  21.489  0.00  0.00    -0.251 OA
BRANCH   5   7
ATOM      7  O   UNL     1      10.277   2.256  21.489  0.00  0.00    -0.480 OA
ATOM      8  H   UNL     1      10.915   1.897  20.849  0.00  0.00    +0.295 HD
ENDBRANCH   5   7
ENDBRANCH   1   5
BRANCH   1   9
ATOM      9  C   UNL     1       9.726  -0.974  22.339  0.00  0.00    +0.236 C 
BRANCH   9  10
ATOM     10  C   UNL     1       8.547  -1.836  22.782  0.00  0.00    +0.334 C 
ATOM     11  O   UNL     1       7.379  -1.625  22.506  0.00  0.00    -0.248 OA
BRANCH  10  12
ATOM     12  O   UNL     1       8.963  -2.900  23.519  0.00  0.00    -0.479 OA
ATOM     13  H   UNL     1       9.208  -3.620  22.886  0.00  0.00    +0.295 HD
ENDBRANCH  10  12
ENDBRANCH   9  10
BRANCH   9  14
ATOM     14  O   UNL     1       9.684  -0.889  20.903  0.00  0.00    -0.380 OA
ATOM     15  H   UNL     1       9.035  -0.187  20.695  0.00  0.00    +0.211 HD
ENDBRANCH   9  14
ENDBRANCH   1   9
TORSDOF 7
ENDMDL
MODEL 5
REMARK VINA RESULT:      -4.4      2.003      3.516
REMARK  Name = 
REMARK  9 active torsions:
REMARK  status: ('A' for Active; 'I' for Inactive)
REMARK    1  A    between atoms: C_1  and  C_2
REMARK    2  A    between atoms: C_2  and  C_3
REMARK    3  A    between atoms: C_2  and  C_4
REMARK    4  A    between atoms: C_4  and  C_6
REMARK    5  A    between atoms: C_4  and  C_12
REMARK    6  A    between atoms: C_6  and  O_8
REMARK    7  A    between atoms: C_6  and  C_9
REMARK    8  A    between atoms: C_9  and  O_10
REMARK    9  A    between atoms: C_12  and  O_13
REMARK                            x       y       z     vdW  Elec       q    Type
REMARK                         _______ _______ _______ _____ _____    ______ ____
ROOT
ATOM      1  C   UNL     1       8.100  -0.825  22.496  0.00  0.00    +0.139 C 
ENDROOT
BRANCH   1   3
ATOM      2  C   UNL     1       6.697   1.365  22.542  0.00  0.00    +0.008 C 
ATOM      3  C   UNL     1       7.343   0.239  23.349  0.00  0.00    -0.000 C 
ATOM      4  C   UNL     1       6.315  -0.365  24.314  0.00  0.00    +0.008 C 
ENDBRANCH   1   3
BRANCH   1   5
ATOM      5  C   UNL     1       8.591  -2.039  23.289  0.00  0.00    +0.311 C 
ATOM      6  O   UNL     1       8.211  -3.185  23.071  0.00  0.00    -0.251 OA
BRANCH   5   7
ATOM      7  O   UNL     1       9.425  -1.792  24.317  0.00  0.00    -0.480 OA
ATOM      8  H   UNL     1       9.397  -0.906  24.717  0.00  0.00    +0.295 HD
ENDBRANCH   5   7
ENDBRANCH   1   5
BRANCH   1   9
ATOM      9  C   UNL     1       9.305  -0.343  21.657  0.00  0.00    +0.236 C 
BRANCH   9  10
ATOM     10  C   UNL     1      10.058   0.825  22.286  0.00  0.00    +0.334 C 
ATOM     11  O   UNL     1      10.669   0.783  23.340  0.00  0.00    -0.248 OA
BRANCH  10  12
ATOM     12  O   UNL     1       9.984   1.938  21.507  0.00  0.00    -0.479 OA
ATOM     13  H   UNL     1       9.026   2.161  21.402  0.00  0.00    +0.295 HD
ENDBRANCH  10  12
ENDBRANCH   9  10
BRANCH   9  14
ATOM     14  O   UNL     1      10.261  -1.388  21.402  0.00  0.00    -0.380 OA
ATOM     15  H   UNL     1       9.755  -2.121  20.997  0.00  0.00    +0.211 HD
ENDBRANCH   9  14
ENDBRANCH   1   9
TORSDOF 7
ENDMDL
MODEL 6
REMARK VINA RESULT:      -4.4      4.300      6.075
REMARK  Name = 
REMARK  9 active torsions:
REMARK  status: ('A' for Active; 'I' for Inactive)
REMARK    1  A    between atoms: C_1  and  C_2
REMARK    2  A    between atoms: C_2  and  C_3
REMARK    3  A    between atoms: C_2  and  C_4
REMARK    4  A    between atoms: C_4  and  C_6
REMARK    5  A    between atoms: C_4  and  C_12
REMARK    6  A    between atoms: C_6  and  O_8
REMARK    7  A    between atoms: C_6  and  C_9
REMARK    8  A    between atoms: C_9  and  O_10
REMARK    9  A    between atoms: C_12  and  O_13
REMARK                            x       y       z     vdW  Elec       q    Type
REMARK                         _______ _______ _______ _____ _____    ______ ____
ROOT
ATOM      1  C   UNL     1       7.111  -4.246  24.309  0.00  0.00    +0.139 C 
ENDROOT
BRANCH   1   3
ATOM      2  C   UNL     1       5.049  -5.486  23.322  0.00  0.00    +0.008 C 
ATOM      3  C   UNL     1       6.566  -5.469  23.509  0.00  0.00    -0.000 C 
ATOM      4  C   UNL     1       7.258  -5.677  22.157  0.00  0.00    +0.008 C 
ENDBRANCH   1   3
BRANCH   1   5
ATOM      5  C   UNL     1       8.610  -3.991  24.129  0.00  0.00    +0.311 C 
ATOM      6  O   UNL     1       9.477  -4.776  24.500  0.00  0.00    -0.251 OA
BRANCH   5   7
ATOM      7  O   UNL     1       8.962  -2.803  23.600  0.00  0.00    -0.480 OA
ATOM      8  H   UNL     1       9.530  -2.812  22.811  0.00  0.00    +0.295 HD
ENDBRANCH   5   7
ENDBRANCH   1   5
BRANCH   1   9
ATOM      9  C   UNL     1       6.849  -4.212  25.831  0.00  0.00    +0.236 C 
BRANCH   9  10
ATOM     10  C   UNL     1       6.907  -5.587  26.491  0.00  0.00    +0.334 C 
ATOM     11  O   UNL     1       5.957  -6.337  26.637  0.00  0.00    -0.248 OA
BRANCH  10  12
ATOM     12  O   UNL     1       8.171  -5.893  26.887  0.00  0.00    -0.479 OA
ATOM     13  H   UNL     1       8.721  -5.989  26.071  0.00  0.00    +0.295 HD
ENDBRANCH  10  12
ENDBRANCH   9  10
BRANCH   9  14
ATOM     14  O   UNL     1       7.764  -3.355  26.537  0.00  0.00    -0.380 OA
ATOM     15  H   UNL     1       7.355  -3.188  27.411  0.00  0.00    +0.211 HD
ENDBRANCH   9  14
ENDBRANCH   1   9
TORSDOF 7
ENDMDL
MODEL 7
REMARK VINA RESULT:      -4.4      4.065      5.776
REMARK  Name = 
REMARK  9 active torsions:
REMARK  status: ('A' for Active; 'I' for Inactive)
REMARK    1  A    between atoms: C_1  and  C_2
REMARK    2  A    between atoms: C_2  and  C_3
REMARK    3  A    between atoms: C_2  and  C_4
REMARK    4  A    between atoms: C_4  and  C_6
REMARK    5  A    between atoms: C_4  and  C_12
REMARK    6  A    between atoms: C_6  and  O_8
REMARK    7  A    between atoms: C_6  and  C_9
REMARK    8  A    between atoms: C_9  and  O_10
REMARK    9  A    between atoms: C_12  and  O_13
REMARK                            x       y       z     vdW  Elec       q    Type
REMARK                         _______ _______ _______ _____ _____    ______ ____
ROOT
ATOM      1  C   UNL     1       7.235  -4.987  25.422  0.00  0.00    +0.139 C 
ENDROOT
BRANCH   1   3
ATOM      2  C   UNL     1       4.994  -4.144  24.407  0.00  0.00    +0.008 C 
ATOM      3  C   UNL     1       6.146  -3.871  25.373  0.00  0.00    -0.000 C 
ATOM      4  C   UNL     1       5.591  -3.493  26.751  0.00  0.00    +0.008 C 
ENDBRANCH   1   3
BRANCH   1   5
ATOM      5  C   UNL     1       8.074  -4.995  26.703  0.00  0.00    +0.311 C 
ATOM      6  O   UNL     1       8.922  -4.146  26.959  0.00  0.00    -0.251 OA
BRANCH   5   7
ATOM      7  O   UNL     1       7.898  -6.041  27.534  0.00  0.00    -0.480 OA
ATOM      8  H   UNL     1       7.397  -5.886  28.352  0.00  0.00    +0.295 HD
ENDBRANCH   5   7
ENDBRANCH   1   5
BRANCH   1   9
ATOM      9  C   UNL     1       8.240  -5.059  24.250  0.00  0.00    +0.236 C 
BRANCH   9  10
ATOM     10  C   UNL     1       8.535  -3.703  23.616  0.00  0.00    +0.334 C 
ATOM     11  O   UNL     1       7.969  -3.245  22.638  0.00  0.00    -0.248 OA
BRANCH  10  12
ATOM     12  O   UNL     1       9.511  -3.042  24.294  0.00  0.00    -0.479 OA
ATOM     13  H   UNL     1       9.071  -2.341  24.836  0.00  0.00    +0.295 HD
ENDBRANCH  10  12
ENDBRANCH   9  10
BRANCH   9  14
ATOM     14  O   UNL     1       9.499  -5.643  24.628  0.00  0.00    -0.380 OA
ATOM     15  H   UNL     1       9.815  -6.130  23.840  0.00  0.00    +0.211 HD
ENDBRANCH   9  14
ENDBRANCH   1   9
TORSDOF 7
ENDMDL
MODEL 8
REMARK VINA RESULT:      -4.3      2.805      4.919
REMARK  Name = 
REMARK  9 active torsions:
REMARK  status: ('A' for Active; 'I' for Inactive)
REMARK    1  A    between atoms: C_1  and  C_2
REMARK    2  A    between atoms: C_2  and  C_3
REMARK    3  A    between atoms: C_2  and  C_4
REMARK    4  A    between atoms: C_4  and  C_6
REMARK    5  A    between atoms: C_4  and  C_12
REMARK    6  A    between atoms: C_6  and  O_8
REMARK    7  A    between atoms: C_6  and  C_9
REMARK    8  A    between atoms: C_9  and  O_10
REMARK    9  A    between atoms: C_12  and  O_13
REMARK                            x       y       z     vdW  Elec       q    Type
REMARK                         _______ _______ _______ _____ _____    ______ ____
ROOT
ATOM      1  C   UNL     1       8.679   1.624  23.248  0.00  0.00    +0.139 C 
ENDROOT
BRANCH   1   3
ATOM      2  C   UNL     1       8.747   0.491  25.588  0.00  0.00    +0.008 C 
ATOM      3  C   UNL     1       9.531   1.199  24.483  0.00  0.00    -0.000 C 
ATOM      4  C   UNL     1      10.774   0.378  24.120  0.00  0.00    +0.008 C 
ENDBRANCH   1   3
BRANCH   1   5
ATOM      5  C   UNL     1       9.393   1.466  21.903  0.00  0.00    +0.311 C 
ATOM      6  O   UNL     1       9.136   0.570  21.104  0.00  0.00    -0.251 OA
BRANCH   5   7
ATOM      7  O   UNL     1      10.397   2.327  21.646  0.00  0.00    -0.480 OA
ATOM      8  H   UNL     1      11.224   2.215  22.144  0.00  0.00    +0.295 HD
ENDBRANCH   5   7
ENDBRANCH   1   5
BRANCH   1   9
ATOM      9  C   UNL     1       8.076   3.047  23.249  0.00  0.00    +0.236 C 
BRANCH   9  10
ATOM     10  C   UNL     1       8.863   4.042  24.099  0.00  0.00    +0.334 C 
ATOM     11  O   UNL     1       8.617   4.325  25.259  0.00  0.00    -0.248 OA
BRANCH  10  12
ATOM     12  O   UNL     1       9.903   4.573  23.402  0.00  0.00    -0.479 OA
ATOM     13  H   UNL     1       9.797   5.556  23.416  0.00  0.00    +0.295 HD
ENDBRANCH  10  12
ENDBRANCH   9  10
BRANCH   9  14
ATOM     14  O   UNL     1       7.957   3.605  21.929  0.00  0.00    -0.380 OA
ATOM     15  H   UNL     1       8.872   3.790  21.632  0.00  0.00    +0.211 HD
ENDBRANCH   9  14
ENDBRANCH   1   9
TORSDOF 7
ENDMDL
MODEL 9
REMARK VINA RESULT:      -4.3      3.085      5.016
REMARK  Name = 
REMARK  9 active torsions:
REMARK  status: ('A' for Active; 'I' for Inactive)
REMARK    1  A    between atoms: C_1  and  C_2
REMARK    2  A    between atoms: C_2  and  C_3
REMARK    3  A    between atoms: C_2  and  C_4
REMARK    4  A    between atoms: C_4  and  C_6
REMARK    5  A    between atoms: C_4  and  C_12
REMARK    6  A    between atoms: C_6  and  O_8
REMARK    7  A    between atoms: C_6  and  C_9
REMARK    8  A    between atoms: C_9  and  O_10
REMARK    9  A    between atoms: C_12  and  O_13
REMARK                            x       y       z     vdW  Elec       q    Type
REMARK                         _______ _______ _______ _____ _____    ______ ____
ROOT
ATOM      1  C   UNL     1       8.253  -3.536  24.411  0.00  0.00    +0.139 C 
ENDROOT
BRANCH   1   3
ATOM      2  C   UNL     1       6.486  -5.297  23.676  0.00  0.00    +0.008 C 
ATOM      3  C   UNL     1       7.620  -4.364  23.251  0.00  0.00    -0.000 C 
ATOM      4  C   UNL     1       7.172  -3.511  22.059  0.00  0.00    +0.008 C 
ENDBRANCH   1   3
BRANCH   1   5
ATOM      5  C   UNL     1       9.189  -2.416  23.949  0.00  0.00    +0.311 C 
ATOM      6  O   UNL     1       8.848  -1.239  23.873  0.00  0.00    -0.251 OA
BRANCH   5   7
ATOM      7  O   UNL     1      10.420  -2.785  23.545  0.00  0.00    -0.480 OA
ATOM      8  H   UNL     1      11.176  -2.505  24.089  0.00  0.00    +0.295 HD
ENDBRANCH   5   7
ENDBRANCH   1   5
BRANCH   1   9
ATOM      9  C   UNL     1       9.018  -4.309  25.509  0.00  0.00    +0.236 C 
BRANCH   9  10
ATOM     10  C   UNL     1       8.125  -4.795  26.647  0.00  0.00    +0.334 C 
ATOM     11  O   UNL     1       7.395  -4.087  27.320  0.00  0.00    -0.248 OA
BRANCH  10  12
ATOM     12  O   UNL     1       8.226  -6.141  26.814  0.00  0.00    -0.479 OA
ATOM     13  H   UNL     1       8.300  -6.313  27.785  0.00  0.00    +0.295 HD
ENDBRANCH  10  12
ENDBRANCH   9  10
BRANCH   9  14
ATOM     14  O   UNL     1       9.727  -5.451  24.997  0.00  0.00    -0.380 OA
ATOM     15  H   UNL     1      10.163  -5.150  24.174  0.00  0.00    +0.211 HD
ENDBRANCH   9  14
ENDBRANCH   1   9
TORSDOF 7
ENDMDL
