MODEL 1
REMARK VINA RESULT:      -3.3      0.000      0.000
REMARK  Name = 
REMARK  3 active torsions:
REMARK  status: ('A' for Active; 'I' for Inactive)
REMARK    1  A    between atoms: N_1  and  CA_5
REMARK    2  A    between atoms: CA_5  and  C_7
REMARK    3  A    between atoms: CA_5  and  C_9
REMARK                            x       y       z     vdW  Elec       q    Type
REMARK                         _______ _______ _______ _____ _____    ______ ____
ROOT
ATOM      1  CA  UNL     1       8.745  -5.479  25.471  0.00  0.00    +0.122 C 
ENDROOT
BRANCH   1   2
ATOM      2  N   UNL     1      10.256  -5.453  25.663  0.00  0.00    +0.226 N 
ATOM      3  H1  UNL     1      10.600  -4.652  26.193  0.00  0.00    +0.200 HD
ATOM      4  H2  UNL     1      10.729  -5.580  24.766  0.00  0.00    +0.200 HD
ATOM      5  H3  UNL     1      10.423  -6.355  26.167  0.00  0.00    +0.200 HD
ENDBRANCH   1   2
BRANCH   1   6
ATOM      6  C   UNL     1       8.057  -4.895  26.720  0.00  0.00    +0.091 C 
ATOM      7  OXT UNL     1       8.109  -3.623  26.683  0.00  0.00    -0.544 OA
ATOM      8  O   UNL     1       7.615  -5.707  27.558  0.00  0.00    -0.544 OA
ENDBRANCH   1   6
BRANCH   1   9
ATOM      9  C   UNL     1       8.332  -4.518  24.366  0.00  0.00    +0.169 C 
ATOM     10 CL   UNL     1       7.595  -5.424  23.007  0.00  0.00    -0.119 Cl
ENDBRANCH   1   9
TORSDOF 3
ENDMDL
MODEL 2
REMARK VINA RESULT:      -3.2      2.609      2.846
REMARK  Name = 
REMARK  3 active torsions:
REMARK  status: ('A' for Active; 'I' for Inactive)
REMARK    1  A    between atoms: N_1  and  CA_5
REMARK    2  A    between atoms: CA_5  and  C_7
REMARK    3  A    between atoms: CA_5  and  C_9
REMARK                            x       y       z     vdW  Elec       q    Type
REMARK                         _______ _______ _______ _____ _____    ______ ____
ROOT
ATOM      1  CA  UNL     1       7.862  -4.859  25.838  0.00  0.00    +0.122 C 
ENDROOT
BRANCH   1   2
ATOM      2  N   UNL     1       8.100  -5.830  26.987  0.00  0.00    +0.226 N 
ATOM      3  H1  UNL     1       8.932  -5.630  27.544  0.00  0.00    +0.200 HD
ATOM      4  H2  UNL     1       8.060  -6.794  26.651  0.00  0.00    +0.200 HD
ATOM      5  H3  UNL     1       7.223  -5.719  27.546  0.00  0.00    +0.200 HD
ENDBRANCH   1   2
BRANCH   1   6
ATOM      6  C   UNL     1       8.934  -5.074  24.752  0.00  0.00    +0.091 C 
ATOM      7  OXT UNL     1       8.374  -5.401  23.656  0.00  0.00    -0.544 OA
ATOM      8  O   UNL     1      10.127  -4.947  25.096  0.00  0.00    -0.544 OA
ENDBRANCH   1   6
BRANCH   1   9
ATOM      9  C   UNL     1       6.566  -5.195  25.117  0.00  0.00    +0.169 C 
ATOM     10 CL   UNL     1       5.550  -6.258  26.143  0.00  0.00    -0.119 Cl
ENDBRANCH   1   9
TORSDOF 3
ENDMDL
MODEL 3
REMARK VINA RESULT:      -3.2      7.142      7.889
REMARK  Name = 
REMARK  3 active torsions:
REMARK  status: ('A' for Active; 'I' for Inactive)
REMARK    1  A    between atoms: N_1  and  CA_5
REMARK    2  A    between atoms: CA_5  and  C_7
REMARK    3  A    between atoms: CA_5  and  C_9
REMARK                            x       y       z     vdW  Elec       q    Type
REMARK                         _______ _______ _______ _____ _____    ______ ____
ROOT
ATOM      1  CA  UNL     1      10.206   1.830  22.183  0.00  0.00    +0.122 C 
ENDROOT
BRANCH   1   2
ATOM      2  N   UNL     1       8.903   2.335  21.575  0.00  0.00    +0.226 N 
ATOM      3  H1  UNL     1       8.979   2.633  20.602  0.00  0.00    +0.200 HD
ATOM      4  H2  UNL     1       8.478   3.038  22.183  0.00  0.00    +0.200 HD
ATOM      5  H3  UNL     1       8.281   1.500  21.679  0.00  0.00    +0.200 HD
ENDBRANCH   1   2
BRANCH   1   6
ATOM      6  C   UNL     1      10.510   2.613  23.474  0.00  0.00    +0.091 C 
ATOM      7  OXT UNL     1       9.833   2.129  24.438  0.00  0.00    -0.544 OA
ATOM      8  O   UNL     1      11.294   3.579  23.384  0.00  0.00    -0.544 OA
ENDBRANCH   1   6
BRANCH   1   9
ATOM      9  C   UNL     1      10.045   0.400  22.674  0.00  0.00    +0.169 C 
ATOM     10 CL   UNL     1       9.379  -0.628  21.365  0.00  0.00    -0.119 Cl
ENDBRANCH   1   9
TORSDOF 3
ENDMDL
MODEL 4
REMARK VINA RESULT:      -3.2      5.162      5.533
REMARK  Name = 
REMARK  3 active torsions:
REMARK  status: ('A' for Active; 'I' for Inactive)
REMARK    1  A    between atoms: N_1  and  CA_5
REMARK    2  A    between atoms: CA_5  and  C_7
REMARK    3  A    between atoms: CA_5  and  C_9
REMARK                            x       y       z     vdW  Elec       q    Type
REMARK                         _______ _______ _______ _____ _____    ______ ____
ROOT
ATOM      1  CA  UNL     1       9.082  -1.067  22.580  0.00  0.00    +0.122 C 
ENDROOT
BRANCH   1   2
ATOM      2  N   UNL     1       9.895  -1.208  21.299  0.00  0.00    +0.226 N 
ATOM      3  H1  UNL     1       9.427  -1.731  20.558  0.00  0.00    +0.200 HD
ATOM      4  H2  UNL     1      10.832  -1.555  21.511  0.00  0.00    +0.200 HD
ATOM      5  H3  UNL     1      10.049  -0.208  21.032  0.00  0.00    +0.200 HD
ENDBRANCH   1   2
BRANCH   1   6
ATOM      6  C   UNL     1       9.881  -1.642  23.764  0.00  0.00    +0.091 C 
ATOM      7  OXT UNL     1      10.144  -0.715  24.595  0.00  0.00    -0.544 OA
ATOM      8  O   UNL     1      10.176  -2.854  23.716  0.00  0.00    -0.544 OA
ENDBRANCH   1   6
BRANCH   1   9
ATOM      9  C   UNL     1       8.922   0.400  22.949  0.00  0.00    +0.169 C 
ATOM     10 CL   UNL     1       9.921   1.420  21.866  0.00  0.00    -0.119 Cl
ENDBRANCH   1   9
TORSDOF 3
ENDMDL
MODEL 5
REMARK VINA RESULT:      -3.1      7.593      8.253
REMARK  Name = 
REMARK  3 active torsions:
REMARK  status: ('A' for Active; 'I' for Inactive)
REMARK    1  A    between atoms: N_1  and  CA_5
REMARK    2  A    between atoms: CA_5  and  C_7
REMARK    3  A    between atoms: CA_5  and  C_9
REMARK                            x       y       z     vdW  Elec       q    Type
REMARK                         _______ _______ _______ _____ _____    ______ ____
ROOT
ATOM      1  CA  UNL     1      10.235   1.898  22.647  0.00  0.00    +0.122 C 
ENDROOT
BRANCH   1   2
ATOM      2  N   UNL     1       9.296   2.119  21.469  0.00  0.00    +0.226 N 
ATOM      3  H1  UNL     1       8.526   2.762  21.658  0.00  0.00    +0.200 HD
ATOM      4  H2  UNL     1       8.990   1.222  21.086  0.00  0.00    +0.200 HD
ATOM      5  H3  UNL     1       9.948   2.496  20.743  0.00  0.00    +0.200 HD
ENDBRANCH   1   2
BRANCH   1   6
ATOM      6  C   UNL     1      10.320   3.187  23.487  0.00  0.00    +0.091 C 
ATOM      7  OXT UNL     1      11.471   3.715  23.347  0.00  0.00    -0.544 OA
ATOM      8  O   UNL     1       9.324   3.484  24.177  0.00  0.00    -0.544 OA
ENDBRANCH   1   6
BRANCH   1   9
ATOM      9  C   UNL     1       9.642   0.889  23.619  0.00  0.00    +0.169 C 
ATOM     10 CL   UNL     1      10.847   0.464  24.876  0.00  0.00    -0.119 Cl
ENDBRANCH   1   9
TORSDOF 3
ENDMDL
MODEL 6
REMARK VINA RESULT:      -3.1      7.120      7.614
REMARK  Name = 
REMARK  3 active torsions:
REMARK  status: ('A' for Active; 'I' for Inactive)
REMARK    1  A    between atoms: N_1  and  CA_5
REMARK    2  A    between atoms: CA_5  and  C_7
REMARK    3  A    between atoms: CA_5  and  C_9
REMARK                            x       y       z     vdW  Elec       q    Type
REMARK                         _______ _______ _______ _____ _____    ______ ____
ROOT
ATOM      1  CA  UNL     1       9.467   1.427  22.783  0.00  0.00    +0.122 C 
ENDROOT
BRANCH   1   2
ATOM      2  N   UNL     1       9.764   2.178  21.491  0.00  0.00    +0.226 N 
ATOM      3  H1  UNL     1       8.938   2.420  20.944  0.00  0.00    +0.200 HD
ATOM      4  H2  UNL     1      10.478   1.685  20.951  0.00  0.00    +0.200 HD
ATOM      5  H3  UNL     1      10.258   3.029  21.847  0.00  0.00    +0.200 HD
ENDBRANCH   1   2
BRANCH   1   6
ATOM      6  C   UNL     1      10.001  -0.013  22.676  0.00  0.00    +0.091 C 
ATOM      7  OXT UNL     1      10.599  -0.330  23.755  0.00  0.00    -0.544 OA
ATOM      8  O   UNL     1       9.820  -0.609  21.595  0.00  0.00    -0.544 OA
ENDBRANCH   1   6
BRANCH   1   9
ATOM      9  C   UNL     1      10.270   2.011  23.934  0.00  0.00    +0.169 C 
ATOM     10 CL   UNL     1      11.168   3.462  23.385  0.00  0.00    -0.119 Cl
ENDBRANCH   1   9
TORSDOF 3
ENDMDL
MODEL 7
REMARK VINA RESULT:      -3.1      5.308      5.893
REMARK  Name = 
REMARK  3 active torsions:
REMARK  status: ('A' for Active; 'I' for Inactive)
REMARK    1  A    between atoms: N_1  and  CA_5
REMARK    2  A    between atoms: CA_5  and  C_7
REMARK    3  A    between atoms: CA_5  and  C_9
REMARK                            x       y       z     vdW  Elec       q    Type
REMARK                         _______ _______ _______ _____ _____    ______ ____
ROOT
ATOM      1  CA  UNL     1      10.397   0.035  23.899  0.00  0.00    +0.122 C 
ENDROOT
BRANCH   1   2
ATOM      2  N   UNL     1      10.237   0.237  25.401  0.00  0.00    +0.226 N 
ATOM      3  H1  UNL     1      10.152  -0.628  25.936  0.00  0.00    +0.200 HD
ATOM      4  H2  UNL     1       9.489   0.907  25.590  0.00  0.00    +0.200 HD
ATOM      5  H3  UNL     1      11.112   0.759  25.641  0.00  0.00    +0.200 HD
ENDBRANCH   1   2
BRANCH   1   6
ATOM      6  C   UNL     1      10.119  -1.438  23.545  0.00  0.00    +0.091 C 
ATOM      7  OXT UNL     1       9.473  -1.993  24.492  0.00  0.00    -0.544 OA
ATOM      8  O   UNL     1      10.581  -1.861  22.465  0.00  0.00    -0.544 OA
ENDBRANCH   1   6
BRANCH   1   9
ATOM      9  C   UNL     1       9.310   0.784  23.143  0.00  0.00    +0.169 C 
ATOM     10 CL   UNL     1      10.040   1.787  21.850  0.00  0.00    -0.119 Cl
ENDBRANCH   1   9
TORSDOF 3
ENDMDL
MODEL 8
REMARK VINA RESULT:      -3.1      2.556      2.976
REMARK  Name = 
REMARK  3 active torsions:
REMARK  status: ('A' for Active; 'I' for Inactive)
REMARK    1  A    between atoms: N_1  and  CA_5
REMARK    2  A    between atoms: CA_5  and  C_7
REMARK    3  A    between atoms: CA_5  and  C_9
REMARK                            x       y       z     vdW  Elec       q    Type
REMARK                         _______ _______ _______ _____ _____    ______ ____
ROOT
ATOM      1  CA  UNL     1       9.137  -4.548  25.787  0.00  0.00    +0.122 C 
ENDROOT
BRANCH   1   2
ATOM      2  N   UNL     1      10.288  -5.534  25.633  0.00  0.00    +0.226 N 
ATOM      3  H1  UNL     1      10.013  -6.515  25.683  0.00  0.00    +0.200 HD
ATOM      4  H2  UNL     1      11.049  -5.292  26.271  0.00  0.00    +0.200 HD
ATOM      5  H3  UNL     1      10.660  -5.282  24.688  0.00  0.00    +0.200 HD
ENDBRANCH   1   2
BRANCH   1   6
ATOM      6  C   UNL     1       9.058  -3.648  24.540  0.00  0.00    +0.091 C 
ATOM      7  OXT UNL     1       7.840  -3.480  24.209  0.00  0.00    -0.544 OA
ATOM      8  O   UNL     1      10.138  -3.274  24.039  0.00  0.00    -0.544 OA
ENDBRANCH   1   6
BRANCH   1   9
ATOM      9  C   UNL     1       7.804  -5.281  25.772  0.00  0.00    +0.169 C 
ATOM     10 CL   UNL     1       7.158  -5.418  27.438  0.00  0.00    -0.119 Cl
ENDBRANCH   1   9
TORSDOF 3
ENDMDL
MODEL 9
REMARK VINA RESULT:      -3.1      6.895      7.201
REMARK  Name = 
REMARK  3 active torsions:
REMARK  status: ('A' for Active; 'I' for Inactive)
REMARK    1  A    between atoms: N_1  and  CA_5
REMARK    2  A    between atoms: CA_5  and  C_7
REMARK    3  A    between atoms: CA_5  and  C_9
REMARK                            x       y       z     vdW  Elec       q    Type
REMARK                         _______ _______ _______ _____ _____    ______ ____
ROOT
ATOM      1  CA  UNL     1       9.230   0.861  21.536  0.00  0.00    +0.122 C 
ENDROOT
BRANCH   1   2
ATOM      2  N   UNL     1      10.092   2.112  21.648  0.00  0.00    +0.226 N 
ATOM      3  H1  UNL     1      10.640   2.171  22.507  0.00  0.00    +0.200 HD
ATOM      4  H2  UNL     1       9.530   2.947  21.468  0.00  0.00    +0.200 HD
ATOM      5  H3  UNL     1      10.702   2.029  20.803  0.00  0.00    +0.200 HD
ENDBRANCH   1   2
BRANCH   1   6
ATOM      6  C   UNL     1       9.907  -0.301  22.287  0.00  0.00    +0.091 C 
ATOM      7  OXT UNL     1      10.613   0.159  23.241  0.00  0.00    -0.544 OA
ATOM      8  O   UNL     1       9.713  -1.453  21.848  0.00  0.00    -0.544 OA
ENDBRANCH   1   6
BRANCH   1   9
ATOM      9  C   UNL     1       7.922   1.047  22.290  0.00  0.00    +0.169 C 
ATOM     10 CL   UNL     1       7.217   2.651  21.913  0.00  0.00    -0.119 Cl
ENDBRANCH   1   9
TORSDOF 3
ENDMDL
