MODEL 1
REMARK VINA RESULT:      -6.5      0.000      0.000
REMARK  Name = 
REMARK  6 active torsions:
REMARK  status: ('A' for Active; 'I' for Inactive)
REMARK    1  A    between atoms: N_1  and  C_2
REMARK    2  A    between atoms: N_10  and  C1*_11
REMARK    3  A    between atoms: C4*_14  and  C5*_16
REMARK    4  A    between atoms: C5*_16  and  O5*_17
REMARK    5  A    between atoms: C3*_18  and  O3*_20
REMARK    6  A    between atoms: C2*_21  and  O2*_23
REMARK                            x       y       z     vdW  Elec       q    Type
REMARK                         _______ _______ _______ _____ _____    ______ ____
ROOT
ATOM      1  C   UNL     1       8.715  -5.038  25.243  0.00  0.00    +0.055 A 
ATOM      2  C   UNL     1       8.994  -3.843  24.550  0.00  0.00    +0.128 A 
ATOM      3  N   UNL     1      10.177  -3.351  24.047  0.00  0.00    -0.232 NA
ATOM      4  C   UNL     1       9.850  -2.202  23.494  0.00  0.00    +0.203 A 
ATOM      5  N   UNL     1       8.516  -1.908  23.644  0.00  0.00    -0.286 N 
ATOM      6  C   UNL     1       7.941  -2.978  24.273  0.00  0.00    +0.164 A 
ATOM      7  N   UNL     1       6.641  -3.156  24.573  0.00  0.00    -0.236 NA
ATOM      8  C   UNL     1       6.422  -4.301  25.265  0.00  0.00    +0.115 A 
ATOM      9  C   UNL     1       7.385  -5.240  25.622  0.00  0.00    +0.044 A 
ENDROOT
BRANCH   5  10
ATOM     10  C1* UNL     1       7.847  -0.741  23.098  0.00  0.00    +0.253 C 
ATOM     11  C2* UNL     1       7.132   0.225  24.055  0.00  0.00    +0.195 C 
ATOM     12  C3* UNL     1       8.183   1.278  24.409  0.00  0.00    +0.178 C 
ATOM     13  C4* UNL     1       9.346   0.985  23.463  0.00  0.00    +0.177 C 
ATOM     14  O4* UNL     1       8.832   0.106  22.437  0.00  0.00    -0.346 OA
BRANCH  11  15
ATOM     15  O2* UNL     1       6.044   0.880  23.361  0.00  0.00    -0.385 OA
ATOM     16  H2* UNL     1       6.088   1.834  23.548  0.00  0.00    +0.210 HD
ENDBRANCH  11  15
BRANCH  12  17
ATOM     17  O3* UNL     1       8.596   1.151  25.766  0.00  0.00    -0.386 OA
ATOM     18  H3* UNL     1       8.077   0.440  26.181  0.00  0.00    +0.210 HD
ENDBRANCH  12  17
BRANCH  13  19
ATOM     19  C5* UNL     1       9.908   2.252  22.823  0.00  0.00    +0.190 C 
BRANCH  19  20
ATOM     20  O5* UNL     1       9.774   2.195  21.406  0.00  0.00    -0.392 OA
ATOM     21  H5* UNL     1      10.656   2.378  21.033  0.00  0.00    +0.210 HD
ENDBRANCH  19  20
ENDBRANCH  13  19
ENDBRANCH   5  10
BRANCH   1  22
ATOM     22  N   UNL     1       9.709  -5.961  25.612  0.00  0.00    -0.356 N 
ATOM     23  H   UNL     1      10.474  -5.939  24.932  0.00  0.00    +0.142 HD
ATOM     24  H   UNL     1       9.348  -6.902  25.742  0.00  0.00    +0.142 HD
ENDBRANCH   1  22
TORSDOF 6
ENDMDL
MODEL 2
REMARK VINA RESULT:      -6.3      3.038      5.691
REMARK  Name = 
REMARK  6 active torsions:
REMARK  status: ('A' for Active; 'I' for Inactive)
REMARK    1  A    between atoms: N_1  and  C_2
REMARK    2  A    between atoms: N_10  and  C1*_11
REMARK    3  A    between atoms: C4*_14  and  C5*_16
REMARK    4  A    between atoms: C5*_16  and  O5*_17
REMARK    5  A    between atoms: C3*_18  and  O3*_20
REMARK    6  A    between atoms: C2*_21  and  O2*_23
REMARK                            x       y       z     vdW  Elec       q    Type
REMARK                         _______ _______ _______ _____ _____    ______ ____
ROOT
ATOM      1  C   UNL     1       9.092   1.562  22.080  0.00  0.00    +0.055 A 
ATOM      2  C   UNL     1       9.087   0.165  22.272  0.00  0.00    +0.128 A 
ATOM      3  N   UNL     1      10.098  -0.761  22.151  0.00  0.00    -0.232 NA
ATOM      4  C   UNL     1       9.532  -1.911  22.455  0.00  0.00    +0.203 A 
ATOM      5  N   UNL     1       8.192  -1.779  22.735  0.00  0.00    -0.286 N 
ATOM      6  C   UNL     1       7.903  -0.443  22.674  0.00  0.00    +0.164 A 
ATOM      7  N   UNL     1       6.728   0.158  22.935  0.00  0.00    -0.236 NA
ATOM      8  C   UNL     1       6.767   1.494  22.708  0.00  0.00    +0.115 A 
ATOM      9  C   UNL     1       7.876   2.221  22.288  0.00  0.00    +0.044 A 
ENDROOT
BRANCH   5  10
ATOM     10  C1* UNL     1       7.313  -2.854  23.153  0.00  0.00    +0.253 C 
ATOM     11  C2* UNL     1       7.854  -4.293  23.180  0.00  0.00    +0.195 C 
ATOM     12  C3* UNL     1       8.387  -4.486  24.599  0.00  0.00    +0.178 C 
ATOM     13  C4* UNL     1       7.914  -3.245  25.355  0.00  0.00    +0.177 C 
ATOM     14  O4* UNL     1       6.901  -2.623  24.532  0.00  0.00    -0.346 OA
BRANCH  11  15
ATOM     15  O2* UNL     1       6.766  -5.224  22.970  0.00  0.00    -0.385 OA
ATOM     16  H2* UNL     1       6.677  -5.385  22.013  0.00  0.00    +0.210 HD
ENDBRANCH  11  15
BRANCH  12  17
ATOM     17  O3* UNL     1       9.810  -4.563  24.604  0.00  0.00    -0.386 OA
ATOM     18  H3* UNL     1      10.117  -4.635  23.684  0.00  0.00    +0.210 HD
ENDBRANCH  12  17
BRANCH  13  19
ATOM     19  C5* UNL     1       7.331  -3.584  26.724  0.00  0.00    +0.190 C 
BRANCH  19  20
ATOM     20  O5* UNL     1       7.926  -4.773  27.236  0.00  0.00    -0.392 OA
ATOM     21  H5* UNL     1       7.291  -5.495  27.076  0.00  0.00    +0.210 HD
ENDBRANCH  19  20
ENDBRANCH  13  19
ENDBRANCH   5  10
BRANCH   1  22
ATOM     22  N   UNL     1      10.220   2.271  21.633  0.00  0.00    -0.356 N 
ATOM     23  H   UNL     1      10.759   2.609  22.435  0.00  0.00    +0.142 HD
ATOM     24  H   UNL     1       9.987   3.024  20.992  0.00  0.00    +0.142 HD
ENDBRANCH   1  22
TORSDOF 6
ENDMDL
MODEL 3
REMARK VINA RESULT:      -6.3      3.183      5.648
REMARK  Name = 
REMARK  6 active torsions:
REMARK  status: ('A' for Active; 'I' for Inactive)
REMARK    1  A    between atoms: N_1  and  C_2
REMARK    2  A    between atoms: N_10  and  C1*_11
REMARK    3  A    between atoms: C4*_14  and  C5*_16
REMARK    4  A    between atoms: C5*_16  and  O5*_17
REMARK    5  A    between atoms: C3*_18  and  O3*_20
REMARK    6  A    between atoms: C2*_21  and  O2*_23
REMARK                            x       y       z     vdW  Elec       q    Type
REMARK                         _______ _______ _______ _____ _____    ______ ____
ROOT
ATOM      1  C   UNL     1       8.940   1.143  22.120  0.00  0.00    +0.055 A 
ATOM      2  C   UNL     1       9.177  -0.172  22.571  0.00  0.00    +0.128 A 
ATOM      3  N   UNL     1      10.335  -0.915  22.606  0.00  0.00    -0.232 NA
ATOM      4  C   UNL     1       9.974  -2.068  23.130  0.00  0.00    +0.203 A 
ATOM      5  N   UNL     1       8.628  -2.120  23.407  0.00  0.00    -0.286 N 
ATOM      6  C   UNL     1       8.112  -0.890  23.102  0.00  0.00    +0.164 A 
ATOM      7  N   UNL     1       6.846  -0.465  23.269  0.00  0.00    -0.236 NA
ATOM      8  C   UNL     1       6.654   0.790  22.795  0.00  0.00    +0.115 A 
ATOM      9  C   UNL     1       7.626   1.607  22.225  0.00  0.00    +0.044 A 
ENDROOT
BRANCH   5  10
ATOM     10  C1* UNL     1       7.944  -3.234  24.036  0.00  0.00    +0.253 C 
ATOM     11  C2* UNL     1       6.409  -3.227  24.100  0.00  0.00    +0.195 C 
ATOM     12  C3* UNL     1       5.960  -3.963  22.837  0.00  0.00    +0.178 C 
ATOM     13  C4* UNL     1       7.249  -4.542  22.257  0.00  0.00    +0.177 C 
ATOM     14  O4* UNL     1       8.246  -4.456  23.300  0.00  0.00    -0.346 OA
BRANCH  11  15
ATOM     15  O2* UNL     1       5.967  -3.983  25.252  0.00  0.00    -0.385 OA
ATOM     16  H2* UNL     1       6.599  -4.708  25.407  0.00  0.00    +0.210 HD
ENDBRANCH  11  15
BRANCH  12  17
ATOM     17  O3* UNL     1       5.352  -3.067  21.912  0.00  0.00    -0.386 OA
ATOM     18  H3* UNL     1       4.394  -3.046  22.087  0.00  0.00    +0.210 HD
ENDBRANCH  12  17
BRANCH  13  19
ATOM     19  C5* UNL     1       7.087  -5.995  21.816  0.00  0.00    +0.190 C 
BRANCH  19  20
ATOM     20  O5* UNL     1       5.732  -6.260  21.465  0.00  0.00    -0.392 OA
ATOM     21  H5* UNL     1       5.179  -5.694  22.035  0.00  0.00    +0.210 HD
ENDBRANCH  19  20
ENDBRANCH  13  19
ENDBRANCH   5  10
BRANCH   1  22
ATOM     22  N   UNL     1       9.934   1.941  21.527  0.00  0.00    -0.356 N 
ATOM     23  H   UNL     1      10.154   2.732  22.136  0.00  0.00    +0.142 HD
ATOM     24  H   UNL     1       9.690   2.244  20.588  0.00  0.00    +0.142 HD
ENDBRANCH   1  22
TORSDOF 6
ENDMDL
MODEL 4
REMARK VINA RESULT:      -6.2      3.241      5.982
REMARK  Name = 
REMARK  6 active torsions:
REMARK  status: ('A' for Active; 'I' for Inactive)
REMARK    1  A    between atoms: N_1  and  C_2
REMARK    2  A    between atoms: N_10  and  C1*_11
REMARK    3  A    between atoms: C4*_14  and  C5*_16
REMARK    4  A    between atoms: C5*_16  and  O5*_17
REMARK    5  A    between atoms: C3*_18  and  O3*_20
REMARK    6  A    between atoms: C2*_21  and  O2*_23
REMARK                            x       y       z     vdW  Elec       q    Type
REMARK                         _______ _______ _______ _____ _____    ______ ____
ROOT
ATOM      1  C   UNL     1       9.159   1.158  23.409  0.00  0.00    +0.055 A 
ATOM      2  C   UNL     1       9.104  -0.021  24.180  0.00  0.00    +0.128 A 
ATOM      3  N   UNL     1       8.845  -0.207  25.518  0.00  0.00    -0.232 NA
ATOM      4  C   UNL     1       8.917  -1.511  25.692  0.00  0.00    +0.203 A 
ATOM      5  N   UNL     1       9.245  -2.177  24.535  0.00  0.00    -0.286 N 
ATOM      6  C   UNL     1       9.316  -1.238  23.542  0.00  0.00    +0.164 A 
ATOM      7  N   UNL     1       9.550  -1.441  22.232  0.00  0.00    -0.236 NA
ATOM      8  C   UNL     1       9.626  -0.282  21.534  0.00  0.00    +0.115 A 
ATOM      9  C   UNL     1       9.453   0.998  22.051  0.00  0.00    +0.044 A 
ENDROOT
BRANCH   5  10
ATOM     10  C1* UNL     1       9.346  -3.618  24.396  0.00  0.00    +0.253 C 
ATOM     11  C2* UNL     1       9.411  -4.486  25.663  0.00  0.00    +0.195 C 
ATOM     12  C3* UNL     1       7.957  -4.848  25.966  0.00  0.00    +0.178 C 
ATOM     13  C4* UNL     1       7.183  -4.367  24.740  0.00  0.00    +0.177 C 
ATOM     14  O4* UNL     1       8.162  -4.114  23.707  0.00  0.00    -0.346 OA
BRANCH  11  15
ATOM     15  O2* UNL     1      10.136  -5.705  25.378  0.00  0.00    -0.385 OA
ATOM     16  H2* UNL     1      10.778  -5.858  26.095  0.00  0.00    +0.210 HD
ENDBRANCH  11  15
BRANCH  12  17
ATOM     17  O3* UNL     1       7.500  -4.184  27.140  0.00  0.00    -0.386 OA
ATOM     18  H3* UNL     1       8.126  -3.470  27.355  0.00  0.00    +0.210 HD
ENDBRANCH  12  17
BRANCH  13  19
ATOM     19  C5* UNL     1       6.169  -5.398  24.250  0.00  0.00    +0.190 C 
BRANCH  19  20
ATOM     20  O5* UNL     1       5.633  -6.128  25.350  0.00  0.00    -0.392 OA
ATOM     21  H5* UNL     1       6.131  -6.964  25.401  0.00  0.00    +0.210 HD
ENDBRANCH  19  20
ENDBRANCH  13  19
ENDBRANCH   5  10
BRANCH   1  22
ATOM     22  N   UNL     1       9.003   2.442  23.959  0.00  0.00    -0.356 N 
ATOM     23  H   UNL     1       8.308   2.968  23.423  0.00  0.00    +0.142 HD
ATOM     24  H   UNL     1       9.881   2.949  24.037  0.00  0.00    +0.142 HD
ENDBRANCH   1  22
TORSDOF 6
ENDMDL
MODEL 5
REMARK VINA RESULT:      -6.2      1.825      2.911
REMARK  Name = 
REMARK  6 active torsions:
REMARK  status: ('A' for Active; 'I' for Inactive)
REMARK    1  A    between atoms: N_1  and  C_2
REMARK    2  A    between atoms: N_10  and  C1*_11
REMARK    3  A    between atoms: C4*_14  and  C5*_16
REMARK    4  A    between atoms: C5*_16  and  O5*_17
REMARK    5  A    between atoms: C3*_18  and  O3*_20
REMARK    6  A    between atoms: C2*_21  and  O2*_23
REMARK                            x       y       z     vdW  Elec       q    Type
REMARK                         _______ _______ _______ _____ _____    ______ ____
ROOT
ATOM      1  C   UNL     1       9.026  -3.572  25.051  0.00  0.00    +0.055 A 
ATOM      2  C   UNL     1       9.474  -2.490  24.267  0.00  0.00    +0.128 A 
ATOM      3  N   UNL     1      10.106  -2.467  23.044  0.00  0.00    -0.232 NA
ATOM      4  C   UNL     1      10.281  -1.188  22.786  0.00  0.00    +0.203 A 
ATOM      5  N   UNL     1       9.823  -0.379  23.799  0.00  0.00    -0.286 N 
ATOM      6  C   UNL     1       9.252  -1.199  24.734  0.00  0.00    +0.164 A 
ATOM      7  N   UNL     1       8.622  -0.840  25.867  0.00  0.00    -0.236 NA
ATOM      8  C   UNL     1       8.236  -1.910  26.606  0.00  0.00    +0.115 A 
ATOM      9  C   UNL     1       8.412  -3.247  26.264  0.00  0.00    +0.044 A 
ENDROOT
BRANCH   5  10
ATOM     10  C1* UNL     1       9.829   1.071  23.782  0.00  0.00    +0.253 C 
ATOM     11  C2* UNL     1      10.147   1.801  22.467  0.00  0.00    +0.195 C 
ATOM     12  C3* UNL     1       8.788   2.027  21.804  0.00  0.00    +0.178 C 
ATOM     13  C4* UNL     1       7.773   1.629  22.874  0.00  0.00    +0.177 C 
ATOM     14  O4* UNL     1       8.497   1.557  24.123  0.00  0.00    -0.346 OA
BRANCH  11  15
ATOM     15  O2* UNL     1      10.734   3.091  22.758  0.00  0.00    -0.385 OA
ATOM     16  H2* UNL     1      11.584   3.158  22.286  0.00  0.00    +0.210 HD
ENDBRANCH  11  15
BRANCH  12  17
ATOM     17  O3* UNL     1       8.642   1.211  20.646  0.00  0.00    -0.386 OA
ATOM     18  H3* UNL     1       9.375   0.571  20.626  0.00  0.00    +0.210 HD
ENDBRANCH  12  17
BRANCH  13  19
ATOM     19  C5* UNL     1       6.631   2.634  22.997  0.00  0.00    +0.190 C 
BRANCH  19  20
ATOM     20  O5* UNL     1       6.480   3.365  21.784  0.00  0.00    -0.392 OA
ATOM     21  H5* UNL     1       6.266   2.715  21.090  0.00  0.00    +0.210 HD
ENDBRANCH  19  20
ENDBRANCH  13  19
ENDBRANCH   5  10
BRANCH   1  22
ATOM     22  N   UNL     1       9.236  -4.916  24.695  0.00  0.00    -0.356 N 
ATOM     23  H   UNL     1      10.203  -5.182  24.896  0.00  0.00    +0.142 HD
ATOM     24  H   UNL     1       8.982  -5.115  23.731  0.00  0.00    +0.142 HD
ENDBRANCH   1  22
TORSDOF 6
ENDMDL
MODEL 6
REMARK VINA RESULT:      -6.0      3.121      5.877
REMARK  Name = 
REMARK  6 active torsions:
REMARK  status: ('A' for Active; 'I' for Inactive)
REMARK    1  A    between atoms: N_1  and  C_2
REMARK    2  A    between atoms: N_10  and  C1*_11
REMARK    3  A    between atoms: C4*_14  and  C5*_16
REMARK    4  A    between atoms: C5*_16  and  O5*_17
REMARK    5  A    between atoms: C3*_18  and  O3*_20
REMARK    6  A    between atoms: C2*_21  and  O2*_23
REMARK                            x       y       z     vdW  Elec       q    Type
REMARK                         _______ _______ _______ _____ _____    ______ ____
ROOT
ATOM      1  C   UNL     1       8.669   1.065  22.513  0.00  0.00    +0.055 A 
ATOM      2  C   UNL     1       7.744   0.175  23.095  0.00  0.00    +0.128 A 
ATOM      3  N   UNL     1       6.616   0.416  23.845  0.00  0.00    -0.232 NA
ATOM      4  C   UNL     1       6.135  -0.780  24.116  0.00  0.00    +0.203 A 
ATOM      5  N   UNL     1       6.918  -1.788  23.604  0.00  0.00    -0.286 N 
ATOM      6  C   UNL     1       7.926  -1.190  22.899  0.00  0.00    +0.164 A 
ATOM      7  N   UNL     1       8.894  -1.787  22.179  0.00  0.00    -0.236 NA
ATOM      8  C   UNL     1       9.779  -0.898  21.664  0.00  0.00    +0.115 A 
ATOM      9  C   UNL     1       9.723   0.485  21.800  0.00  0.00    +0.044 A 
ENDROOT
BRANCH   5  10
ATOM     10  C1* UNL     1       6.621  -3.206  23.690  0.00  0.00    +0.253 C 
ATOM     11  C2* UNL     1       7.688  -4.219  23.246  0.00  0.00    +0.195 C 
ATOM     12  C3* UNL     1       8.477  -4.541  24.516  0.00  0.00    +0.178 C 
ATOM     13  C4* UNL     1       7.677  -3.881  25.637  0.00  0.00    +0.177 C 
ATOM     14  O4* UNL     1       6.381  -3.558  25.084  0.00  0.00    -0.346 OA
BRANCH  11  15
ATOM     15  O2* UNL     1       7.045  -5.432  22.788  0.00  0.00    -0.385 OA
ATOM     16  H2* UNL     1       6.513  -5.221  22.000  0.00  0.00    +0.210 HD
ENDBRANCH  11  15
BRANCH  12  17
ATOM     17  O3* UNL     1       9.792  -3.998  24.452  0.00  0.00    -0.386 OA
ATOM     18  H3* UNL     1       9.724  -3.027  24.420  0.00  0.00    +0.210 HD
ENDBRANCH  12  17
BRANCH  13  19
ATOM     19  C5* UNL     1       7.508  -4.795  26.848  0.00  0.00    +0.190 C 
BRANCH  19  20
ATOM     20  O5* UNL     1       8.404  -5.900  26.765  0.00  0.00    -0.392 OA
ATOM     21  H5* UNL     1       8.090  -6.564  27.405  0.00  0.00    +0.210 HD
ENDBRANCH  19  20
ENDBRANCH  13  19
ENDBRANCH   5  10
BRANCH   1  22
ATOM     22  N   UNL     1       8.604   2.459  22.683  0.00  0.00    -0.356 N 
ATOM     23  H   UNL     1       7.632   2.772  22.623  0.00  0.00    +0.142 HD
ATOM     24  H   UNL     1       9.204   2.965  22.038  0.00  0.00    +0.142 HD
ENDBRANCH   1  22
TORSDOF 6
ENDMDL
MODEL 7
REMARK VINA RESULT:      -6.0      1.967      3.083
REMARK  Name = 
REMARK  6 active torsions:
REMARK  status: ('A' for Active; 'I' for Inactive)
REMARK    1  A    between atoms: N_1  and  C_2
REMARK    2  A    between atoms: N_10  and  C1*_11
REMARK    3  A    between atoms: C4*_14  and  C5*_16
REMARK    4  A    between atoms: C5*_16  and  O5*_17
REMARK    5  A    between atoms: C3*_18  and  O3*_20
REMARK    6  A    between atoms: C2*_21  and  O2*_23
REMARK                            x       y       z     vdW  Elec       q    Type
REMARK                         _______ _______ _______ _____ _____    ______ ____
ROOT
ATOM      1  C   UNL     1       5.746  -5.551  24.556  0.00  0.00    +0.055 A 
ATOM      2  C   UNL     1       6.996  -4.921  24.725  0.00  0.00    +0.128 A 
ATOM      3  N   UNL     1       7.943  -5.055  25.714  0.00  0.00    -0.232 NA
ATOM      4  C   UNL     1       8.910  -4.234  25.361  0.00  0.00    +0.203 A 
ATOM      5  N   UNL     1       8.620  -3.547  24.206  0.00  0.00    -0.286 N 
ATOM      6  C   UNL     1       7.416  -4.018  23.755  0.00  0.00    +0.164 A 
ATOM      7  N   UNL     1       6.770  -3.675  22.626  0.00  0.00    -0.236 NA
ATOM      8  C   UNL     1       5.561  -4.279  22.519  0.00  0.00    +0.115 A 
ATOM      9  C   UNL     1       5.015  -5.185  23.422  0.00  0.00    +0.044 A 
ENDROOT
BRANCH   5  10
ATOM     10  C1* UNL     1       9.509  -2.614  23.539  0.00  0.00    +0.253 C 
ATOM     11  C2* UNL     1       8.998  -1.845  22.310  0.00  0.00    +0.195 C 
ATOM     12  C3* UNL     1       8.425  -0.544  22.872  0.00  0.00    +0.178 C 
ATOM     13  C4* UNL     1       8.849  -0.544  24.339  0.00  0.00    +0.177 C 
ATOM     14  O4* UNL     1       9.873  -1.555  24.472  0.00  0.00    -0.346 OA
BRANCH  11  15
ATOM     15  O2* UNL     1      10.110  -1.520  21.444  0.00  0.00    -0.385 OA
ATOM     16  H2* UNL     1      10.403  -2.334  20.998  0.00  0.00    +0.210 HD
ENDBRANCH  11  15
BRANCH  12  17
ATOM     17  O3* UNL     1       7.005  -0.520  22.760  0.00  0.00    -0.386 OA
ATOM     18  H3* UNL     1       6.754  -0.967  21.933  0.00  0.00    +0.210 HD
ENDBRANCH  12  17
BRANCH  13  19
ATOM     19  C5* UNL     1       9.396   0.809  24.787  0.00  0.00    +0.190 C 
BRANCH  19  20
ATOM     20  O5* UNL     1      10.745   0.677  25.228  0.00  0.00    -0.392 OA
ATOM     21  H5* UNL     1      11.282   1.267  24.668  0.00  0.00    +0.210 HD
ENDBRANCH  19  20
ENDBRANCH  13  19
ENDBRANCH   5  10
BRANCH   1  22
ATOM     22  N   UNL     1       5.205  -6.447  25.495  0.00  0.00    -0.356 N 
ATOM     23  H   UNL     1       4.938  -5.942  26.343  0.00  0.00    +0.142 HD
ATOM     24  H   UNL     1       5.823  -7.228  25.700  0.00  0.00    +0.142 HD
ENDBRANCH   1  22
TORSDOF 6
ENDMDL
MODEL 8
REMARK VINA RESULT:      -6.0      2.234      3.177
REMARK  Name = 
REMARK  6 active torsions:
REMARK  status: ('A' for Active; 'I' for Inactive)
REMARK    1  A    between atoms: N_1  and  C_2
REMARK    2  A    between atoms: N_10  and  C1*_11
REMARK    3  A    between atoms: C4*_14  and  C5*_16
REMARK    4  A    between atoms: C5*_16  and  O5*_17
REMARK    5  A    between atoms: C3*_18  and  O3*_20
REMARK    6  A    between atoms: C2*_21  and  O2*_23
REMARK                            x       y       z     vdW  Elec       q    Type
REMARK                         _______ _______ _______ _____ _____    ______ ____
ROOT
ATOM      1  C   UNL     1       4.840  -4.805  23.248  0.00  0.00    +0.055 A 
ATOM      2  C   UNL     1       6.061  -4.113  23.122  0.00  0.00    +0.128 A 
ATOM      3  N   UNL     1       7.161  -4.368  22.335  0.00  0.00    -0.232 NA
ATOM      4  C   UNL     1       8.004  -3.397  22.617  0.00  0.00    +0.203 A 
ATOM      5  N   UNL     1       7.517  -2.542  23.577  0.00  0.00    -0.286 N 
ATOM      6  C   UNL     1       6.247  -2.958  23.873  0.00  0.00    +0.164 A 
ATOM      7  N   UNL     1       5.369  -2.384  24.715  0.00  0.00    -0.236 NA
ATOM      8  C   UNL     1       4.221  -3.097  24.831  0.00  0.00    +0.115 A 
ATOM      9  C   UNL     1       3.916  -4.273  24.154  0.00  0.00    +0.044 A 
ENDROOT
BRANCH   5  10
ATOM     10  C1* UNL     1       8.190  -1.350  24.058  0.00  0.00    +0.253 C 
ATOM     11  C2* UNL     1       9.707  -1.214  23.849  0.00  0.00    +0.195 C 
ATOM     12  C3* UNL     1       9.855  -0.481  22.515  0.00  0.00    +0.178 C 
ATOM     13  C4* UNL     1       8.435  -0.042  22.163  0.00  0.00    +0.177 C 
ATOM     14  O4* UNL     1       7.648  -0.186  23.367  0.00  0.00    -0.346 OA
BRANCH  11  15
ATOM     15  O2* UNL     1      10.267  -0.382  24.892  0.00  0.00    -0.385 OA
ATOM     16  H2* UNL     1       9.616  -0.308  25.612  0.00  0.00    +0.210 HD
ENDBRANCH  11  15
BRANCH  12  17
ATOM     17  O3* UNL     1      10.376  -1.348  21.512  0.00  0.00    -0.386 OA
ATOM     18  H3* UNL     1       9.860  -2.173  21.520  0.00  0.00    +0.210 HD
ENDBRANCH  12  17
BRANCH  13  19
ATOM     19  C5* UNL     1       8.377   1.404  21.677  0.00  0.00    +0.190 C 
BRANCH  19  20
ATOM     20  O5* UNL     1       9.685   1.880  21.375  0.00  0.00    -0.392 OA
ATOM     21  H5* UNL     1       9.667   2.179  20.448  0.00  0.00    +0.210 HD
ENDBRANCH  19  20
ENDBRANCH  13  19
ENDBRANCH   5  10
BRANCH   1  22
ATOM     22  N   UNL     1       4.564  -6.005  22.570  0.00  0.00    -0.356 N 
ATOM     23  H   UNL     1       4.863  -6.802  23.138  0.00  0.00    +0.142 HD
ATOM     24  H   UNL     1       4.965  -6.034  21.637  0.00  0.00    +0.142 HD
ENDBRANCH   1  22
TORSDOF 6
ENDMDL
MODEL 9
REMARK VINA RESULT:      -5.8      2.756      4.451
REMARK  Name = 
REMARK  6 active torsions:
REMARK  status: ('A' for Active; 'I' for Inactive)
REMARK    1  A    between atoms: N_1  and  C_2
REMARK    2  A    between atoms: N_10  and  C1*_11
REMARK    3  A    between atoms: C4*_14  and  C5*_16
REMARK    4  A    between atoms: C5*_16  and  O5*_17
REMARK    5  A    between atoms: C3*_18  and  O3*_20
REMARK    6  A    between atoms: C2*_21  and  O2*_23
REMARK                            x       y       z     vdW  Elec       q    Type
REMARK                         _______ _______ _______ _____ _____    ______ ____
ROOT
ATOM      1  C   UNL     1       4.714  -6.642  25.254  0.00  0.00    +0.055 A 
ATOM      2  C   UNL     1       5.821  -6.010  25.857  0.00  0.00    +0.128 A 
ATOM      3  N   UNL     1       6.270  -6.035  27.158  0.00  0.00    -0.232 NA
ATOM      4  C   UNL     1       7.345  -5.274  27.152  0.00  0.00    +0.203 A 
ATOM      5  N   UNL     1       7.595  -4.729  25.915  0.00  0.00    -0.286 N 
ATOM      6  C   UNL     1       6.656  -5.236  25.059  0.00  0.00    +0.164 A 
ATOM      7  N   UNL     1       6.550  -5.025  23.735  0.00  0.00    -0.236 NA
ATOM      8  C   UNL     1       5.457  -5.623  23.201  0.00  0.00    +0.115 A 
ATOM      9  C   UNL     1       4.535  -6.406  23.888  0.00  0.00    +0.044 A 
ENDROOT
BRANCH   5  10
ATOM     10  C1* UNL     1       8.734  -3.893  25.582  0.00  0.00    +0.253 C 
ATOM     11  C2* UNL     1       8.793  -3.232  24.196  0.00  0.00    +0.195 C 
ATOM     12  C3* UNL     1       8.137  -1.864  24.385  0.00  0.00    +0.178 C 
ATOM     13  C4* UNL     1       7.956  -1.735  25.897  0.00  0.00    +0.177 C 
ATOM     14  O4* UNL     1       8.778  -2.761  26.499  0.00  0.00    -0.346 OA
BRANCH  11  15
ATOM     15  O2* UNL     1      10.174  -3.027  23.815  0.00  0.00    -0.385 OA
ATOM     16  H2* UNL     1      10.671  -3.843  24.003  0.00  0.00    +0.210 HD
ENDBRANCH  11  15
BRANCH  12  17
ATOM     17  O3* UNL     1       6.877  -1.806  23.723  0.00  0.00    -0.386 OA
ATOM     18  H3* UNL     1       6.175  -1.774  24.397  0.00  0.00    +0.210 HD
ENDBRANCH  12  17
BRANCH  13  19
ATOM     19  C5* UNL     1       8.377  -0.364  26.419  0.00  0.00    +0.190 C 
BRANCH  19  20
ATOM     20  O5* UNL     1       9.190  -0.502  27.580  0.00  0.00    -0.392 OA
ATOM     21  H5* UNL     1       9.350   0.398  27.919  0.00  0.00    +0.210 HD
ENDBRANCH  19  20
ENDBRANCH  13  19
ENDBRANCH   5  10
BRANCH   1  22
ATOM     22  N   UNL     1       3.783  -7.411  25.974  0.00  0.00    -0.356 N 
ATOM     23  H   UNL     1       4.142  -7.603  26.912  0.00  0.00    +0.142 HD
ATOM     24  H   UNL     1       3.516  -8.264  25.490  0.00  0.00    +0.142 HD
ENDBRANCH   1  22
TORSDOF 6
ENDMDL
