MODEL 1
REMARK VINA RESULT:      -7.7      0.000      0.000
REMARK  Name = 
REMARK  16 active torsions:
REMARK  status: ('A' for Active; 'I' for Inactive)
REMARK    1  A    between atoms: O_1  and  C_2
REMARK    2  A    between atoms: C_2  and  C_3
REMARK    3  A    between atoms: C_6  and  O_8
REMARK    4  A    between atoms: O_8  and  P_9
REMARK    5  A    between atoms: P_9  and  O_10
REMARK    6  A    between atoms: P_9  and  O_12
REMARK    7  A    between atoms: O_12  and  P_13
REMARK    8  A    between atoms: P_13  and  O_14
REMARK    9  A    between atoms: P_13  and  O_16
REMARK   10  A    between atoms: O_16  and  C_17
REMARK   11  A    between atoms: C_17  and  C_18
REMARK   12  A    between atoms: C_21  and  N_29
REMARK   13  A    between atoms: C_23  and  O_25
REMARK   14  A    between atoms: C_26  and  O_28
REMARK   15  A    between atoms: C_37  and  O_39
REMARK   16  A    between atoms: C_40  and  O_42
REMARK                            x       y       z     vdW  Elec       q    Type
REMARK                         _______ _______ _______ _____ _____    ______ ____
ROOT
ATOM      1  P   UNL     1       9.239  -1.418  22.700  0.00  0.00    +0.483 P 
ATOM      2  O   UNL     1       9.674  -2.524  23.666  0.00  0.00    -0.227 OA
ENDROOT
BRANCH   1   3
ATOM      3  O   UNL     1      10.235  -1.540  21.411  0.00  0.00    -0.302 OA
ATOM      4  H   UNL     1      10.460  -0.642  21.108  0.00  0.00    +0.222 HD
ENDBRANCH   1   3
BRANCH   1   5
ATOM      5  O   UNL     1      10.414  -0.362  23.404  0.00  0.00    -0.186 OA
BRANCH   5   6
ATOM      6  P   UNL     1       9.629   0.732  24.489  0.00  0.00    +0.486 P 
ATOM      7  O   UNL     1      10.822   1.685  24.464  0.00  0.00    -0.227 OA
BRANCH   6   8
ATOM      8  O   UNL     1       8.843   1.827  25.575  0.00  0.00    -0.302 OA
ATOM      9  H   UNL     1       8.344   2.493  25.068  0.00  0.00    +0.222 HD
ENDBRANCH   6   8
BRANCH   6  10
ATOM     10  O   UNL     1       8.498   1.102  23.368  0.00  0.00    -0.254 OA
BRANCH  10  16
ATOM     11  C   UNL     1       7.226   4.473  23.314  0.00  0.00    +0.183 C 
ATOM     12  C   UNL     1       5.790   4.267  22.830  0.00  0.00    +0.228 C 
ATOM     13  F   UNL     1       5.024   5.288  23.318  0.00  0.00    -0.240 F 
ATOM     14  C   UNL     1       5.240   2.945  23.372  0.00  0.00    +0.184 C 
ATOM     15  C   UNL     1       6.215   1.787  23.137  0.00  0.00    +0.202 C 
ATOM     16  C   UNL     1       7.616   2.170  23.652  0.00  0.00    +0.293 C 
ATOM     17  O   UNL     1       8.034   3.341  22.966  0.00  0.00    -0.340 OA
BRANCH  14  18
ATOM     18  O   UNL     1       3.983   2.622  22.757  0.00  0.00    -0.386 OA
ATOM     19  H   UNL     1       3.530   2.016  23.377  0.00  0.00    +0.210 HD
ENDBRANCH  14  18
BRANCH  15  20
ATOM     20  O   UNL     1       5.672   0.607  23.755  0.00  0.00    -0.384 OA
ATOM     21  H   UNL     1       4.905   0.307  23.235  0.00  0.00    +0.210 HD
ENDBRANCH  15  20
BRANCH  11  22
ATOM     22  C   UNL     1       7.851   5.746  22.736  0.00  0.00    +0.190 C 
BRANCH  22  23
ATOM     23  O   UNL     1       7.484   5.936  21.373  0.00  0.00    -0.392 OA
ATOM     24  H   UNL     1       6.676   6.477  21.375  0.00  0.00    +0.210 HD
ENDBRANCH  22  23
ENDBRANCH  11  22
ENDBRANCH  10  16
ENDBRANCH   6  10
ENDBRANCH   5   6
ENDBRANCH   1   5
BRANCH   1  25
ATOM     25  O   UNL     1       8.064  -2.475  21.997  0.00  0.00    -0.284 OA
BRANCH  25  26
ATOM     26  C   UNL     1       6.783  -2.545  22.629  0.00  0.00    +0.206 C 
BRANCH  26  27
ATOM     27  C   UNL     1       6.230  -3.968  22.706  0.00  0.00    +0.178 C 
ATOM     28  C   UNL     1       7.279  -5.051  22.478  0.00  0.00    +0.178 C 
ATOM     29  C   UNL     1       7.678  -5.521  23.878  0.00  0.00    +0.195 C 
ATOM     30  C   UNL     1       6.778  -4.699  24.814  0.00  0.00    +0.255 C 
ATOM     31  O   UNL     1       5.683  -4.223  24.016  0.00  0.00    -0.346 OA
BRANCH  30  32
ATOM     32  N   UNL     1       6.297  -5.448  25.966  0.00  0.00    -0.271 N 
ATOM     33  C   UNL     1       7.104  -5.427  27.097  0.00  0.00    +0.331 A 
ATOM     34  O   UNL     1       8.220  -4.910  27.122  0.00  0.00    -0.246 OA
ATOM     35  N   UNL     1       6.587  -6.048  28.203  0.00  0.00    -0.275 N 
ATOM     36  H   UNL     1       7.134  -6.007  29.049  0.00  0.00    +0.173 HD
ATOM     37  C   UNL     1       5.422  -6.755  28.250  0.00  0.00    +0.254 A 
ATOM     38  O   UNL     1       5.018  -7.315  29.261  0.00  0.00    -0.268 OA
ATOM     39  C   UNL     1       4.662  -6.826  26.991  0.00  0.00    +0.088 A 
ATOM     40  C   UNL     1       5.123  -6.167  25.925  0.00  0.00    +0.098 A 
ENDBRANCH  30  32
BRANCH  29  41
ATOM     41  O   UNL     1       9.068  -5.300  24.125  0.00  0.00    -0.385 OA
ATOM     42  H   UNL     1       9.458  -6.165  24.368  0.00  0.00    +0.210 HD
ENDBRANCH  29  41
BRANCH  28  43
ATOM     43  O   UNL     1       6.670  -6.139  21.757  0.00  0.00    -0.386 OA
ATOM     44  H   UNL     1       6.115  -6.644  22.378  0.00  0.00    +0.210 HD
ENDBRANCH  28  43
ENDBRANCH  26  27
ENDBRANCH  25  26
ENDBRANCH   1  25
TORSDOF 16
ENDMDL
MODEL 2
REMARK VINA RESULT:      -7.4      2.062      3.134
REMARK  Name = 
REMARK  16 active torsions:
REMARK  status: ('A' for Active; 'I' for Inactive)
REMARK    1  A    between atoms: O_1  and  C_2
REMARK    2  A    between atoms: C_2  and  C_3
REMARK    3  A    between atoms: C_6  and  O_8
REMARK    4  A    between atoms: O_8  and  P_9
REMARK    5  A    between atoms: P_9  and  O_10
REMARK    6  A    between atoms: P_9  and  O_12
REMARK    7  A    between atoms: O_12  and  P_13
REMARK    8  A    between atoms: P_13  and  O_14
REMARK    9  A    between atoms: P_13  and  O_16
REMARK   10  A    between atoms: O_16  and  C_17
REMARK   11  A    between atoms: C_17  and  C_18
REMARK   12  A    between atoms: C_21  and  N_29
REMARK   13  A    between atoms: C_23  and  O_25
REMARK   14  A    between atoms: C_26  and  O_28
REMARK   15  A    between atoms: C_37  and  O_39
REMARK   16  A    between atoms: C_40  and  O_42
REMARK                            x       y       z     vdW  Elec       q    Type
REMARK                         _______ _______ _______ _____ _____    ______ ____
ROOT
ATOM      1  P   UNL     1       9.398  -1.197  22.714  0.00  0.00    +0.483 P 
ATOM      2  O   UNL     1       9.697  -2.176  23.853  0.00  0.00    -0.227 OA
ENDROOT
BRANCH   1   3
ATOM      3  O   UNL     1      10.489  -1.533  21.546  0.00  0.00    -0.302 OA
ATOM      4  H   UNL     1      10.229  -1.061  20.735  0.00  0.00    +0.222 HD
ENDBRANCH   1   3
BRANCH   1   5
ATOM      5  O   UNL     1      10.562  -0.099  23.372  0.00  0.00    -0.186 OA
BRANCH   5   6
ATOM      6  P   UNL     1      10.115   1.522  22.971  0.00  0.00    +0.486 P 
ATOM      7  O   UNL     1       8.954   1.037  22.107  0.00  0.00    -0.227 OA
BRANCH   6   8
ATOM      8  O   UNL     1       9.669   3.145  22.570  0.00  0.00    -0.302 OA
ATOM      9  H   UNL     1      10.070   3.765  23.207  0.00  0.00    +0.222 HD
ENDBRANCH   6   8
BRANCH   6  10
ATOM     10  O   UNL     1       9.673   1.829  24.515  0.00  0.00    -0.254 OA
BRANCH  10  16
ATOM     11  C   UNL     1       6.975  -0.011  26.040  0.00  0.00    +0.183 C 
ATOM     12  C   UNL     1       6.286   1.067  26.880  0.00  0.00    +0.228 C 
ATOM     13  F   UNL     1       4.971   0.724  27.018  0.00  0.00    -0.240 F 
ATOM     14  C   UNL     1       6.364   2.417  26.165  0.00  0.00    +0.184 C 
ATOM     15  C   UNL     1       7.788   2.726  25.689  0.00  0.00    +0.202 C 
ATOM     16  C   UNL     1       8.341   1.531  24.888  0.00  0.00    +0.293 C 
ATOM     17  O   UNL     1       8.317   0.386  25.728  0.00  0.00    -0.340 OA
BRANCH  14  18
ATOM     18  O   UNL     1       5.926   3.479  27.025  0.00  0.00    -0.386 OA
ATOM     19  H   UNL     1       5.847   4.270  26.456  0.00  0.00    +0.210 HD
ENDBRANCH  14  18
BRANCH  15  20
ATOM     20  O   UNL     1       7.760   3.957  24.948  0.00  0.00    -0.384 OA
ATOM     21  H   UNL     1       6.947   4.442  25.179  0.00  0.00    +0.210 HD
ENDBRANCH  15  20
BRANCH  11  22
ATOM     22  C   UNL     1       6.992  -1.368  26.747  0.00  0.00    +0.190 C 
BRANCH  22  23
ATOM     23  O   UNL     1       8.237  -2.036  26.568  0.00  0.00    -0.392 OA
ATOM     24  H   UNL     1       8.318  -2.675  27.296  0.00  0.00    +0.210 HD
ENDBRANCH  22  23
ENDBRANCH  11  22
ENDBRANCH  10  16
ENDBRANCH   6  10
ENDBRANCH   5   6
ENDBRANCH   1   5
BRANCH   1  25
ATOM     25  O   UNL     1       8.234  -2.295  22.057  0.00  0.00    -0.284 OA
BRANCH  25  26
ATOM     26  C   UNL     1       6.971  -2.386  22.721  0.00  0.00    +0.206 C 
BRANCH  26  27
ATOM     27  C   UNL     1       6.402  -3.806  22.733  0.00  0.00    +0.178 C 
ATOM     28  C   UNL     1       7.447  -4.891  22.503  0.00  0.00    +0.178 C 
ATOM     29  C   UNL     1       7.797  -5.411  23.899  0.00  0.00    +0.195 C 
ATOM     30  C   UNL     1       6.875  -4.610  24.833  0.00  0.00    +0.255 C 
ATOM     31  O   UNL     1       5.811  -4.097  24.016  0.00  0.00    -0.346 OA
BRANCH  30  32
ATOM     32  N   UNL     1       6.352  -5.391  25.944  0.00  0.00    -0.271 N 
ATOM     33  C   UNL     1       7.117  -5.407  27.104  0.00  0.00    +0.331 A 
ATOM     34  O   UNL     1       8.233  -4.895  27.184  0.00  0.00    -0.246 OA
ATOM     35  N   UNL     1       6.559  -6.058  28.171  0.00  0.00    -0.275 N 
ATOM     36  H   UNL     1       7.074  -6.045  29.038  0.00  0.00    +0.173 HD
ATOM     37  C   UNL     1       5.391  -6.761  28.156  0.00  0.00    +0.254 A 
ATOM     38  O   UNL     1       4.949  -7.349  29.134  0.00  0.00    -0.268 OA
ATOM     39  C   UNL     1       4.676  -6.793  26.868  0.00  0.00    +0.088 A 
ATOM     40  C   UNL     1       5.178  -6.104  25.839  0.00  0.00    +0.098 A 
ENDBRANCH  30  32
BRANCH  29  41
ATOM     41  O   UNL     1       9.181  -5.212  24.197  0.00  0.00    -0.385 OA
ATOM     42  H   UNL     1       9.243  -4.404  24.747  0.00  0.00    +0.210 HD
ENDBRANCH  29  41
BRANCH  28  43
ATOM     43  O   UNL     1       6.851  -5.949  21.729  0.00  0.00    -0.386 OA
ATOM     44  H   UNL     1       5.884  -5.835  21.749  0.00  0.00    +0.210 HD
ENDBRANCH  28  43
ENDBRANCH  26  27
ENDBRANCH  25  26
ENDBRANCH   1  25
TORSDOF 16
ENDMDL
MODEL 3
REMARK VINA RESULT:      -7.4      1.117      2.322
REMARK  Name = 
REMARK  16 active torsions:
REMARK  status: ('A' for Active; 'I' for Inactive)
REMARK    1  A    between atoms: O_1  and  C_2
REMARK    2  A    between atoms: C_2  and  C_3
REMARK    3  A    between atoms: C_6  and  O_8
REMARK    4  A    between atoms: O_8  and  P_9
REMARK    5  A    between atoms: P_9  and  O_10
REMARK    6  A    between atoms: P_9  and  O_12
REMARK    7  A    between atoms: O_12  and  P_13
REMARK    8  A    between atoms: P_13  and  O_14
REMARK    9  A    between atoms: P_13  and  O_16
REMARK   10  A    between atoms: O_16  and  C_17
REMARK   11  A    between atoms: C_17  and  C_18
REMARK   12  A    between atoms: C_21  and  N_29
REMARK   13  A    between atoms: C_23  and  O_25
REMARK   14  A    between atoms: C_26  and  O_28
REMARK   15  A    between atoms: C_37  and  O_39
REMARK   16  A    between atoms: C_40  and  O_42
REMARK                            x       y       z     vdW  Elec       q    Type
REMARK                         _______ _______ _______ _____ _____    ______ ____
ROOT
ATOM      1  P   UNL     1       9.117  -1.196  22.473  0.00  0.00    +0.483 P 
ATOM      2  O   UNL     1       7.936  -0.424  23.066  0.00  0.00    -0.227 OA
ENDROOT
BRANCH   1   3
ATOM      3  O   UNL     1       9.668  -2.151  23.678  0.00  0.00    -0.302 OA
ATOM      4  H   UNL     1       8.923  -2.677  24.022  0.00  0.00    +0.222 HD
ENDBRANCH   1   3
BRANCH   1   5
ATOM      5  O   UNL     1      10.191   0.026  23.061  0.00  0.00    -0.186 OA
BRANCH   5   6
ATOM      6  P   UNL     1       9.442   0.870  24.372  0.00  0.00    +0.486 P 
ATOM      7  O   UNL     1      10.310   0.144  25.395  0.00  0.00    -0.227 OA
BRANCH   6   8
ATOM      8  O   UNL     1       8.692   1.715  25.682  0.00  0.00    -0.302 OA
ATOM      9  H   UNL     1       9.235   1.624  26.487  0.00  0.00    +0.222 HD
ENDBRANCH   6   8
BRANCH   6  10
ATOM     10  O   UNL     1      10.089   2.290  23.884  0.00  0.00    -0.254 OA
BRANCH  10  16
ATOM     11  C   UNL     1       7.032   3.631  22.526  0.00  0.00    +0.183 C 
ATOM     12  C   UNL     1       7.096   5.092  22.975  0.00  0.00    +0.228 C 
ATOM     13  F   UNL     1       6.386   5.844  22.082  0.00  0.00    -0.240 F 
ATOM     14  C   UNL     1       8.547   5.577  22.974  0.00  0.00    +0.184 C 
ATOM     15  C   UNL     1       9.473   4.597  23.702  0.00  0.00    +0.202 C 
ATOM     16  C   UNL     1       9.261   3.173  23.152  0.00  0.00    +0.293 C 
ATOM     17  O   UNL     1       7.897   2.825  23.338  0.00  0.00    -0.340 OA
BRANCH  14  18
ATOM     18  O   UNL     1       8.658   6.866  23.599  0.00  0.00    -0.386 OA
ATOM     19  H   UNL     1       9.181   6.724  24.413  0.00  0.00    +0.210 HD
ENDBRANCH  14  18
BRANCH  15  20
ATOM     20  O   UNL     1      10.824   5.073  23.575  0.00  0.00    -0.384 OA
ATOM     21  H   UNL     1      11.272   4.971  24.433  0.00  0.00    +0.210 HD
ENDBRANCH  15  20
BRANCH  11  22
ATOM     22  C   UNL     1       5.608   3.073  22.584  0.00  0.00    +0.190 C 
BRANCH  22  23
ATOM     23  O   UNL     1       5.603   1.682  22.891  0.00  0.00    -0.392 OA
ATOM     24  H   UNL     1       4.708   1.471  23.208  0.00  0.00    +0.210 HD
ENDBRANCH  22  23
ENDBRANCH  11  22
ENDBRANCH  10  16
ENDBRANCH   6  10
ENDBRANCH   5   6
ENDBRANCH   1   5
BRANCH   1  25
ATOM     25  O   UNL     1       8.043  -2.418  21.885  0.00  0.00    -0.284 OA
BRANCH  25  26
ATOM     26  C   UNL     1       6.794  -2.573  22.562  0.00  0.00    +0.206 C 
BRANCH  26  27
ATOM     27  C   UNL     1       6.331  -4.028  22.640  0.00  0.00    +0.178 C 
ATOM     28  C   UNL     1       7.459  -5.043  22.488  0.00  0.00    +0.178 C 
ATOM     29  C   UNL     1       7.814  -5.462  23.916  0.00  0.00    +0.195 C 
ATOM     30  C   UNL     1       6.813  -4.685  24.788  0.00  0.00    +0.255 C 
ATOM     31  O   UNL     1       5.734  -4.297  23.925  0.00  0.00    -0.346 OA
BRANCH  30  32
ATOM     32  N   UNL     1       6.323  -5.444  25.929  0.00  0.00    -0.271 N 
ATOM     33  C   UNL     1       7.105  -5.408  27.078  0.00  0.00    +0.331 A 
ATOM     34  O   UNL     1       8.210  -4.870  27.126  0.00  0.00    -0.246 OA
ATOM     35  N   UNL     1       6.577  -6.040  28.172  0.00  0.00    -0.275 N 
ATOM     36  H   UNL     1       7.103  -5.989  29.030  0.00  0.00    +0.173 HD
ATOM     37  C   UNL     1       5.425  -6.769  28.193  0.00  0.00    +0.254 A 
ATOM     38  O   UNL     1       5.010  -7.338  29.195  0.00  0.00    -0.268 OA
ATOM     39  C   UNL     1       4.693  -6.855  26.918  0.00  0.00    +0.088 A 
ATOM     40  C   UNL     1       5.164  -6.186  25.862  0.00  0.00    +0.098 A 
ENDBRANCH  30  32
BRANCH  29  41
ATOM     41  O   UNL     1       9.172  -5.144  24.231  0.00  0.00    -0.385 OA
ATOM     42  H   UNL     1       9.632  -4.983  23.382  0.00  0.00    +0.210 HD
ENDBRANCH  29  41
BRANCH  28  43
ATOM     43  O   UNL     1       6.961  -6.182  21.760  0.00  0.00    -0.386 OA
ATOM     44  H   UNL     1       6.488  -5.857  20.973  0.00  0.00    +0.210 HD
ENDBRANCH  28  43
ENDBRANCH  26  27
ENDBRANCH  25  26
ENDBRANCH   1  25
TORSDOF 16
ENDMDL
MODEL 4
REMARK VINA RESULT:      -7.4      2.874      4.014
REMARK  Name = 
REMARK  16 active torsions:
REMARK  status: ('A' for Active; 'I' for Inactive)
REMARK    1  A    between atoms: O_1  and  C_2
REMARK    2  A    between atoms: C_2  and  C_3
REMARK    3  A    between atoms: C_6  and  O_8
REMARK    4  A    between atoms: O_8  and  P_9
REMARK    5  A    between atoms: P_9  and  O_10
REMARK    6  A    between atoms: P_9  and  O_12
REMARK    7  A    between atoms: O_12  and  P_13
REMARK    8  A    between atoms: P_13  and  O_14
REMARK    9  A    between atoms: P_13  and  O_16
REMARK   10  A    between atoms: O_16  and  C_17
REMARK   11  A    between atoms: C_17  and  C_18
REMARK   12  A    between atoms: C_21  and  N_29
REMARK   13  A    between atoms: C_23  and  O_25
REMARK   14  A    between atoms: C_26  and  O_28
REMARK   15  A    between atoms: C_37  and  O_39
REMARK   16  A    between atoms: C_40  and  O_42
REMARK                            x       y       z     vdW  Elec       q    Type
REMARK                         _______ _______ _______ _____ _____    ______ ____
ROOT
ATOM      1  P   UNL     1       9.530  -1.230  23.640  0.00  0.00    +0.483 P 
ATOM      2  O   UNL     1       9.998  -1.095  25.092  0.00  0.00    -0.227 OA
ENDROOT
BRANCH   1   3
ATOM      3  O   UNL     1      10.537  -2.317  22.951  0.00  0.00    -0.302 OA
ATOM      4  H   UNL     1      10.001  -2.970  22.466  0.00  0.00    +0.222 HD
ENDBRANCH   1   3
BRANCH   1   5
ATOM      5  O   UNL     1      10.664  -0.009  23.177  0.00  0.00    -0.186 OA
BRANCH   5   6
ATOM      6  P   UNL     1       9.863   1.186  22.216  0.00  0.00    +0.486 P 
ATOM      7  O   UNL     1       8.916   0.143  21.628  0.00  0.00    -0.227 OA
BRANCH   6   8
ATOM      8  O   UNL     1       9.063   2.381  21.255  0.00  0.00    -0.302 OA
ATOM      9  H   UNL     1       9.089   3.243  21.711  0.00  0.00    +0.222 HD
ENDBRANCH   6   8
BRANCH   6  10
ATOM     10  O   UNL     1       9.257   1.914  23.549  0.00  0.00    -0.254 OA
BRANCH  10  16
ATOM     11  C   UNL     1      11.656   4.603  23.583  0.00  0.00    +0.183 C 
ATOM     12  C   UNL     1      10.767   5.824  23.825  0.00  0.00    +0.228 C 
ATOM     13  F   UNL     1      11.515   6.780  24.450  0.00  0.00    -0.240 F 
ATOM     14  C   UNL     1       9.598   5.447  24.738  0.00  0.00    +0.184 C 
ATOM     15  C   UNL     1       8.895   4.171  24.263  0.00  0.00    +0.202 C 
ATOM     16  C   UNL     1       9.935   3.055  24.039  0.00  0.00    +0.293 C 
ATOM     17  O   UNL     1      10.875   3.512  23.078  0.00  0.00    -0.340 OA
BRANCH  14  18
ATOM     18  O   UNL     1       8.633   6.509  24.801  0.00  0.00    -0.386 OA
ATOM     19  H   UNL     1       7.765   6.074  24.917  0.00  0.00    +0.210 HD
ENDBRANCH  14  18
BRANCH  15  20
ATOM     20  O   UNL     1       7.877   3.833  25.220  0.00  0.00    -0.384 OA
ATOM     21  H   UNL     1       8.019   2.915  25.514  0.00  0.00    +0.210 HD
ENDBRANCH  15  20
BRANCH  11  22
ATOM     22  C   UNL     1      12.799   4.908  22.612  0.00  0.00    +0.190 C 
BRANCH  22  23
ATOM     23  O   UNL     1      14.050   4.997  23.287  0.00  0.00    -0.392 OA
ATOM     24  H   UNL     1      14.664   4.408  22.815  0.00  0.00    +0.210 HD
ENDBRANCH  22  23
ENDBRANCH  11  22
ENDBRANCH  10  16
ENDBRANCH   6  10
ENDBRANCH   5   6
ENDBRANCH   1   5
BRANCH   1  25
ATOM     25  O   UNL     1       8.396  -2.452  24.104  0.00  0.00    -0.284 OA
BRANCH  25  26
ATOM     26  C   UNL     1       8.254  -3.578  23.235  0.00  0.00    +0.206 C 
BRANCH  26  27
ATOM     27  C   UNL     1       8.090  -4.898  23.987  0.00  0.00    +0.178 C 
ATOM     28  C   UNL     1       7.956  -4.736  25.497  0.00  0.00    +0.178 C 
ATOM     29  C   UNL     1       6.454  -4.813  25.776  0.00  0.00    +0.195 C 
ATOM     30  C   UNL     1       5.835  -5.069  24.392  0.00  0.00    +0.255 C 
ATOM     31  O   UNL     1       6.890  -5.574  23.559  0.00  0.00    -0.346 OA
BRANCH  30  32
ATOM     32  N   UNL     1       4.706  -5.988  24.420  0.00  0.00    -0.271 N 
ATOM     33  C   UNL     1       3.863  -5.966  23.316  0.00  0.00    +0.331 A 
ATOM     34  O   UNL     1       3.968  -5.151  22.401  0.00  0.00    -0.246 OA
ATOM     35  N   UNL     1       2.869  -6.909  23.313  0.00  0.00    -0.275 N 
ATOM     36  H   UNL     1       2.272  -6.943  22.501  0.00  0.00    +0.173 HD
ATOM     37  C   UNL     1       2.587  -7.774  24.328  0.00  0.00    +0.254 A 
ATOM     38  O   UNL     1       1.667  -8.582  24.284  0.00  0.00    -0.268 OA
ATOM     39  C   UNL     1       3.454  -7.680  25.515  0.00  0.00    +0.088 A 
ATOM     40  C   UNL     1       4.468  -6.810  25.500  0.00  0.00    +0.098 A 
ENDBRANCH  30  32
BRANCH  29  41
ATOM     41  O   UNL     1       5.973  -3.606  26.373  0.00  0.00    -0.385 OA
ATOM     42  H   UNL     1       6.731  -3.190  26.831  0.00  0.00    +0.210 HD
ENDBRANCH  29  41
BRANCH  28  43
ATOM     43  O   UNL     1       8.624  -5.838  26.141  0.00  0.00    -0.386 OA
ATOM     44  H   UNL     1       7.970  -6.320  26.677  0.00  0.00    +0.210 HD
ENDBRANCH  28  43
ENDBRANCH  26  27
ENDBRANCH  25  26
ENDBRANCH   1  25
TORSDOF 16
ENDMDL
MODEL 5
REMARK VINA RESULT:      -7.3      3.840      9.212
REMARK  Name = 
REMARK  16 active torsions:
REMARK  status: ('A' for Active; 'I' for Inactive)
REMARK    1  A    between atoms: O_1  and  C_2
REMARK    2  A    between atoms: C_2  and  C_3
REMARK    3  A    between atoms: C_6  and  O_8
REMARK    4  A    between atoms: O_8  and  P_9
REMARK    5  A    between atoms: P_9  and  O_10
REMARK    6  A    between atoms: P_9  and  O_12
REMARK    7  A    between atoms: O_12  and  P_13
REMARK    8  A    between atoms: P_13  and  O_14
REMARK    9  A    between atoms: P_13  and  O_16
REMARK   10  A    between atoms: O_16  and  C_17
REMARK   11  A    between atoms: C_17  and  C_18
REMARK   12  A    between atoms: C_21  and  N_29
REMARK   13  A    between atoms: C_23  and  O_25
REMARK   14  A    between atoms: C_26  and  O_28
REMARK   15  A    between atoms: C_37  and  O_39
REMARK   16  A    between atoms: C_40  and  O_42
REMARK                            x       y       z     vdW  Elec       q    Type
REMARK                         _______ _______ _______ _____ _____    ______ ____
ROOT
ATOM      1  P   UNL     1       7.453  -2.590  23.056  0.00  0.00    +0.483 P 
ATOM      2  O   UNL     1       6.559  -1.394  23.394  0.00  0.00    -0.227 OA
ENDROOT
BRANCH   1   3
ATOM      3  O   UNL     1       8.390  -2.102  21.809  0.00  0.00    -0.302 OA
ATOM      4  H   UNL     1       9.312  -2.351  22.000  0.00  0.00    +0.222 HD
ENDBRANCH   1   3
BRANCH   1   5
ATOM      5  O   UNL     1       6.296  -3.104  21.878  0.00  0.00    -0.186 OA
BRANCH   5   6
ATOM      6  P   UNL     1       6.288  -4.831  21.793  0.00  0.00    +0.486 P 
ATOM      7  O   UNL     1       7.663  -4.915  22.451  0.00  0.00    -0.227 OA
BRANCH   6   8
ATOM      8  O   UNL     1       6.280  -6.560  21.708  0.00  0.00    -0.302 OA
ATOM      9  H   UNL     1       5.393  -6.873  21.453  0.00  0.00    +0.222 HD
ENDBRANCH   6   8
BRANCH   6  10
ATOM     10  O   UNL     1       5.062  -4.922  22.871  0.00  0.00    -0.254 OA
BRANCH  10  16
ATOM     11  C   UNL     1       6.008  -5.933  26.198  0.00  0.00    +0.183 C 
ATOM     12  C   UNL     1       4.710  -6.546  26.729  0.00  0.00    +0.228 C 
ATOM     13  F   UNL     1       5.034  -7.480  27.672  0.00  0.00    -0.240 F 
ATOM     14  C   UNL     1       3.959  -7.244  25.592  0.00  0.00    +0.184 C 
ATOM     15  C   UNL     1       3.837  -6.345  24.358  0.00  0.00    +0.202 C 
ATOM     16  C   UNL     1       5.223  -5.789  23.978  0.00  0.00    +0.293 C 
ATOM     17  O   UNL     1       5.730  -5.067  25.090  0.00  0.00    -0.340 OA
BRANCH  14  18
ATOM     18  O   UNL     1       2.642  -7.633  26.012  0.00  0.00    -0.386 OA
ATOM     19  H   UNL     1       2.765  -8.402  26.603  0.00  0.00    +0.210 HD
ENDBRANCH  14  18
BRANCH  15  20
ATOM     20  O   UNL     1       3.208  -7.101  23.309  0.00  0.00    -0.384 OA
ATOM     21  H   UNL     1       3.866  -7.274  22.612  0.00  0.00    +0.210 HD
ENDBRANCH  15  20
BRANCH  11  22
ATOM     22  C   UNL     1       6.761  -5.156  27.281  0.00  0.00    +0.190 C 
BRANCH  22  23
ATOM     23  O   UNL     1       7.983  -5.797  27.631  0.00  0.00    -0.392 OA
ATOM     24  H   UNL     1       8.447  -5.198  28.240  0.00  0.00    +0.210 HD
ENDBRANCH  22  23
ENDBRANCH  11  22
ENDBRANCH  10  16
ENDBRANCH   6  10
ENDBRANCH   5   6
ENDBRANCH   1   5
BRANCH   1  25
ATOM     25  O   UNL     1       8.611  -2.076  24.234  0.00  0.00    -0.284 OA
BRANCH  25  26
ATOM     26  C   UNL     1       8.208  -1.050  25.145  0.00  0.00    +0.206 C 
BRANCH  26  27
ATOM     27  C   UNL     1       9.201   0.109  25.219  0.00  0.00    +0.178 C 
ATOM     28  C   UNL     1      10.287   0.062  24.149  0.00  0.00    +0.178 C 
ATOM     29  C   UNL     1       9.811   1.019  23.055  0.00  0.00    +0.195 C 
ATOM     30  C   UNL     1       8.497   1.592  23.612  0.00  0.00    +0.255 C 
ATOM     31  O   UNL     1       8.520   1.366  25.029  0.00  0.00    -0.346 OA
BRANCH  30  32
ATOM     32  N   UNL     1       8.302   3.003  23.310  0.00  0.00    -0.271 N 
ATOM     33  C   UNL     1       7.606   3.295  22.143  0.00  0.00    +0.331 A 
ATOM     34  O   UNL     1       7.258   2.439  21.331  0.00  0.00    -0.246 OA
ATOM     35  N   UNL     1       7.341   4.622  21.930  0.00  0.00    -0.275 N 
ATOM     36  H   UNL     1       6.797   4.856  21.114  0.00  0.00    +0.173 HD
ATOM     37  C   UNL     1       7.785   5.657  22.698  0.00  0.00    +0.254 A 
ATOM     38  O   UNL     1       7.541   6.831  22.447  0.00  0.00    -0.268 OA
ATOM     39  C   UNL     1       8.605   5.289  23.864  0.00  0.00    +0.088 A 
ATOM     40  C   UNL     1       8.812   3.994  24.119  0.00  0.00    +0.098 A 
ENDBRANCH  30  32
BRANCH  29  41
ATOM     41  O   UNL     1       9.626   0.339  21.812  0.00  0.00    -0.385 OA
ATOM     42  H   UNL     1      10.239   0.748  21.167  0.00  0.00    +0.210 HD
ENDBRANCH  29  41
BRANCH  28  43
ATOM     43  O   UNL     1      11.517   0.550  24.718  0.00  0.00    -0.386 OA
ATOM     44  H   UNL     1      11.410   1.499  24.908  0.00  0.00    +0.210 HD
ENDBRANCH  28  43
ENDBRANCH  26  27
ENDBRANCH  25  26
ENDBRANCH   1  25
TORSDOF 16
ENDMDL
MODEL 6
REMARK VINA RESULT:      -7.2      2.226      3.007
REMARK  Name = 
REMARK  16 active torsions:
REMARK  status: ('A' for Active; 'I' for Inactive)
REMARK    1  A    between atoms: O_1  and  C_2
REMARK    2  A    between atoms: C_2  and  C_3
REMARK    3  A    between atoms: C_6  and  O_8
REMARK    4  A    between atoms: O_8  and  P_9
REMARK    5  A    between atoms: P_9  and  O_10
REMARK    6  A    between atoms: P_9  and  O_12
REMARK    7  A    between atoms: O_12  and  P_13
REMARK    8  A    between atoms: P_13  and  O_14
REMARK    9  A    between atoms: P_13  and  O_16
REMARK   10  A    between atoms: O_16  and  C_17
REMARK   11  A    between atoms: C_17  and  C_18
REMARK   12  A    between atoms: C_21  and  N_29
REMARK   13  A    between atoms: C_23  and  O_25
REMARK   14  A    between atoms: C_26  and  O_28
REMARK   15  A    between atoms: C_37  and  O_39
REMARK   16  A    between atoms: C_40  and  O_42
REMARK                            x       y       z     vdW  Elec       q    Type
REMARK                         _______ _______ _______ _____ _____    ______ ____
ROOT
ATOM      1  P   UNL     1       9.004  -1.516  22.603  0.00  0.00    +0.483 P 
ATOM      2  O   UNL     1       9.711  -2.551  23.482  0.00  0.00    -0.227 OA
ENDROOT
BRANCH   1   3
ATOM      3  O   UNL     1       9.818  -1.511  21.186  0.00  0.00    -0.302 OA
ATOM      4  H   UNL     1      10.478  -2.227  21.206  0.00  0.00    +0.222 HD
ENDBRANCH   1   3
BRANCH   1   5
ATOM      5  O   UNL     1      10.119  -0.312  23.152  0.00  0.00    -0.186 OA
BRANCH   5   6
ATOM      6  P   UNL     1       9.434   0.539  24.493  0.00  0.00    +0.486 P 
ATOM      7  O   UNL     1      10.756   0.495  25.254  0.00  0.00    -0.227 OA
BRANCH   6   8
ATOM      8  O   UNL     1       8.748   1.390  25.835  0.00  0.00    -0.302 OA
ATOM      9  H   UNL     1       8.530   0.761  26.547  0.00  0.00    +0.222 HD
ENDBRANCH   6   8
BRANCH   6  10
ATOM     10  O   UNL     1       9.261   1.897  23.599  0.00  0.00    -0.254 OA
BRANCH  10  16
ATOM     11  C   UNL     1      11.644   4.600  23.576  0.00  0.00    +0.183 C 
ATOM     12  C   UNL     1      10.741   5.827  23.716  0.00  0.00    +0.228 C 
ATOM     13  F   UNL     1      11.460   6.821  24.316  0.00  0.00    -0.240 F 
ATOM     14  C   UNL     1       9.540   5.492  24.604  0.00  0.00    +0.184 C 
ATOM     15  C   UNL     1       8.862   4.188  24.174  0.00  0.00    +0.202 C 
ATOM     16  C   UNL     1       9.914   3.068  24.051  0.00  0.00    +0.293 C 
ATOM     17  O   UNL     1      10.888   3.478  23.103  0.00  0.00    -0.340 OA
BRANCH  14  18
ATOM     18  O   UNL     1       8.569   6.549  24.572  0.00  0.00    -0.386 OA
ATOM     19  H   UNL     1       7.859   6.242  23.973  0.00  0.00    +0.210 HD
ENDBRANCH  14  18
BRANCH  15  20
ATOM     20  O   UNL     1       7.810   3.895  25.109  0.00  0.00    -0.384 OA
ATOM     21  H   UNL     1       7.750   4.626  25.750  0.00  0.00    +0.210 HD
ENDBRANCH  15  20
BRANCH  11  22
ATOM     22  C   UNL     1      12.822   4.859  22.633  0.00  0.00    +0.190 C 
BRANCH  22  23
ATOM     23  O   UNL     1      14.044   5.004  23.349  0.00  0.00    -0.392 OA
ATOM     24  H   UNL     1      14.274   5.949  23.319  0.00  0.00    +0.210 HD
ENDBRANCH  22  23
ENDBRANCH  11  22
ENDBRANCH  10  16
ENDBRANCH   6  10
ENDBRANCH   5   6
ENDBRANCH   1   5
BRANCH   1  25
ATOM     25  O   UNL     1       7.890  -2.719  22.054  0.00  0.00    -0.284 OA
BRANCH  25  26
ATOM     26  C   UNL     1       6.537  -2.615  22.505  0.00  0.00    +0.206 C 
BRANCH  26  27
ATOM     27  C   UNL     1       5.867  -3.974  22.708  0.00  0.00    +0.178 C 
ATOM     28  C   UNL     1       6.785  -5.161  22.440  0.00  0.00    +0.178 C 
ATOM     29  C   UNL     1       7.275  -5.606  23.819  0.00  0.00    +0.195 C 
ATOM     30  C   UNL     1       6.550  -4.661  24.791  0.00  0.00    +0.255 C 
ATOM     31  O   UNL     1       5.430  -4.118  24.075  0.00  0.00    -0.346 OA
BRANCH  30  32
ATOM     32  N   UNL     1       6.119  -5.310  26.021  0.00  0.00    -0.271 N 
ATOM     33  C   UNL     1       5.292  -6.418  25.880  0.00  0.00    +0.331 A 
ATOM     34  O   UNL     1       4.839  -6.788  24.798  0.00  0.00    -0.246 OA
ATOM     35  N   UNL     1       4.984  -7.077  27.040  0.00  0.00    -0.275 N 
ATOM     36  H   UNL     1       4.423  -7.910  26.959  0.00  0.00    +0.173 HD
ATOM     37  C   UNL     1       5.329  -6.681  28.298  0.00  0.00    +0.254 A 
ATOM     38  O   UNL     1       5.004  -7.295  29.307  0.00  0.00    -0.268 OA
ATOM     39  C   UNL     1       6.120  -5.442  28.389  0.00  0.00    +0.088 A 
ATOM     40  C   UNL     1       6.484  -4.829  27.260  0.00  0.00    +0.098 A 
ENDBRANCH  30  32
BRANCH  29  41
ATOM     41  O   UNL     1       8.697  -5.509  23.923  0.00  0.00    -0.385 OA
ATOM     42  H   UNL     1       8.959  -4.667  23.497  0.00  0.00    +0.210 HD
ENDBRANCH  29  41
BRANCH  28  43
ATOM     43  O   UNL     1       6.010  -6.216  21.838  0.00  0.00    -0.386 OA
ATOM     44  H   UNL     1       6.028  -6.094  20.872  0.00  0.00    +0.210 HD
ENDBRANCH  28  43
ENDBRANCH  26  27
ENDBRANCH  25  26
ENDBRANCH   1  25
TORSDOF 16
ENDMDL
MODEL 7
REMARK VINA RESULT:      -7.2      1.370      1.988
REMARK  Name = 
REMARK  16 active torsions:
REMARK  status: ('A' for Active; 'I' for Inactive)
REMARK    1  A    between atoms: O_1  and  C_2
REMARK    2  A    between atoms: C_2  and  C_3
REMARK    3  A    between atoms: C_6  and  O_8
REMARK    4  A    between atoms: O_8  and  P_9
REMARK    5  A    between atoms: P_9  and  O_10
REMARK    6  A    between atoms: P_9  and  O_12
REMARK    7  A    between atoms: O_12  and  P_13
REMARK    8  A    between atoms: P_13  and  O_14
REMARK    9  A    between atoms: P_13  and  O_16
REMARK   10  A    between atoms: O_16  and  C_17
REMARK   11  A    between atoms: C_17  and  C_18
REMARK   12  A    between atoms: C_21  and  N_29
REMARK   13  A    between atoms: C_23  and  O_25
REMARK   14  A    between atoms: C_26  and  O_28
REMARK   15  A    between atoms: C_37  and  O_39
REMARK   16  A    between atoms: C_40  and  O_42
REMARK                            x       y       z     vdW  Elec       q    Type
REMARK                         _______ _______ _______ _____ _____    ______ ____
ROOT
ATOM      1  P   UNL     1       9.481  -1.322  22.879  0.00  0.00    +0.483 P 
ATOM      2  O   UNL     1       9.804  -2.460  23.852  0.00  0.00    -0.227 OA
ENDROOT
BRANCH   1   3
ATOM      3  O   UNL     1      10.521  -1.501  21.632  0.00  0.00    -0.302 OA
ATOM      4  H   UNL     1      11.201  -2.150  21.887  0.00  0.00    +0.222 HD
ENDBRANCH   1   3
BRANCH   1   5
ATOM      5  O   UNL     1      10.691  -0.348  23.641  0.00  0.00    -0.186 OA
BRANCH   5   6
ATOM      6  P   UNL     1      10.119   1.278  23.780  0.00  0.00    +0.486 P 
ATOM      7  O   UNL     1      10.141   1.463  22.265  0.00  0.00    -0.227 OA
BRANCH   6   8
ATOM      8  O   UNL     1       9.545   2.905  23.920  0.00  0.00    -0.302 OA
ATOM      9  H   UNL     1       8.603   2.945  23.672  0.00  0.00    +0.222 HD
ENDBRANCH   6   8
BRANCH   6  10
ATOM     10  O   UNL     1       8.668   0.765  24.335  0.00  0.00    -0.254 OA
BRANCH  10  16
ATOM     11  C   UNL     1       5.877   3.030  24.080  0.00  0.00    +0.183 C 
ATOM     12  C   UNL     1       5.039   2.646  25.301  0.00  0.00    +0.228 C 
ATOM     13  F   UNL     1       4.320   3.741  25.687  0.00  0.00    -0.240 F 
ATOM     14  C   UNL     1       5.954   2.233  26.455  0.00  0.00    +0.184 C 
ATOM     15  C   UNL     1       7.013   1.221  26.005  0.00  0.00    +0.202 C 
ATOM     16  C   UNL     1       7.740   1.748  24.752  0.00  0.00    +0.293 C 
ATOM     17  O   UNL     1       6.772   1.964  23.737  0.00  0.00    -0.340 OA
BRANCH  14  18
ATOM     18  O   UNL     1       5.196   1.659  27.531  0.00  0.00    -0.386 OA
ATOM     19  H   UNL     1       5.392   0.701  27.515  0.00  0.00    +0.210 HD
ENDBRANCH  14  18
BRANCH  15  20
ATOM     20  O   UNL     1       7.888   0.958  27.116  0.00  0.00    -0.384 OA
ATOM     21  H   UNL     1       8.600   0.364  26.818  0.00  0.00    +0.210 HD
ENDBRANCH  15  20
BRANCH  11  22
ATOM     22  C   UNL     1       5.006   3.378  22.870  0.00  0.00    +0.190 C 
BRANCH  22  23
ATOM     23  O   UNL     1       3.795   2.628  22.865  0.00  0.00    -0.392 OA
ATOM     24  H   UNL     1       4.048   1.690  22.846  0.00  0.00    +0.210 HD
ENDBRANCH  22  23
ENDBRANCH  11  22
ENDBRANCH  10  16
ENDBRANCH   6  10
ENDBRANCH   5   6
ENDBRANCH   1   5
BRANCH   1  25
ATOM     25  O   UNL     1       8.271  -2.297  22.118  0.00  0.00    -0.284 OA
BRANCH  25  26
ATOM     26  C   UNL     1       6.989  -2.358  22.746  0.00  0.00    +0.206 C 
BRANCH  26  27
ATOM     27  C   UNL     1       6.390  -3.765  22.750  0.00  0.00    +0.178 C 
ATOM     28  C   UNL     1       7.409  -4.870  22.491  0.00  0.00    +0.178 C 
ATOM     29  C   UNL     1       7.768  -5.414  23.875  0.00  0.00    +0.195 C 
ATOM     30  C   UNL     1       6.876  -4.605  24.832  0.00  0.00    +0.255 C 
ATOM     31  O   UNL     1       5.812  -4.061  24.037  0.00  0.00    -0.346 OA
BRANCH  30  32
ATOM     32  N   UNL     1       6.352  -5.389  25.941  0.00  0.00    -0.271 N 
ATOM     33  C   UNL     1       7.120  -5.414  27.099  0.00  0.00    +0.331 A 
ATOM     34  O   UNL     1       8.239  -4.907  27.178  0.00  0.00    -0.246 OA
ATOM     35  N   UNL     1       6.562  -6.067  28.165  0.00  0.00    -0.275 N 
ATOM     36  H   UNL     1       7.080  -6.060  29.030  0.00  0.00    +0.173 HD
ATOM     37  C   UNL     1       5.391  -6.766  28.149  0.00  0.00    +0.254 A 
ATOM     38  O   UNL     1       4.949  -7.356  29.126  0.00  0.00    -0.268 OA
ATOM     39  C   UNL     1       4.673  -6.788  26.863  0.00  0.00    +0.088 A 
ATOM     40  C   UNL     1       5.175  -6.097  25.836  0.00  0.00    +0.098 A 
ENDBRANCH  30  32
BRANCH  29  41
ATOM     41  O   UNL     1       9.159  -5.248  24.156  0.00  0.00    -0.385 OA
ATOM     42  H   UNL     1       9.349  -5.750  24.975  0.00  0.00    +0.210 HD
ENDBRANCH  29  41
BRANCH  28  43
ATOM     43  O   UNL     1       6.780  -5.905  21.712  0.00  0.00    -0.386 OA
ATOM     44  H   UNL     1       5.841  -5.950  21.967  0.00  0.00    +0.210 HD
ENDBRANCH  28  43
ENDBRANCH  26  27
ENDBRANCH  25  26
ENDBRANCH   1  25
TORSDOF 16
ENDMDL
MODEL 8
REMARK VINA RESULT:      -7.2      2.795      3.554
REMARK  Name = 
REMARK  16 active torsions:
REMARK  status: ('A' for Active; 'I' for Inactive)
REMARK    1  A    between atoms: O_1  and  C_2
REMARK    2  A    between atoms: C_2  and  C_3
REMARK    3  A    between atoms: C_6  and  O_8
REMARK    4  A    between atoms: O_8  and  P_9
REMARK    5  A    between atoms: P_9  and  O_10
REMARK    6  A    between atoms: P_9  and  O_12
REMARK    7  A    between atoms: O_12  and  P_13
REMARK    8  A    between atoms: P_13  and  O_14
REMARK    9  A    between atoms: P_13  and  O_16
REMARK   10  A    between atoms: O_16  and  C_17
REMARK   11  A    between atoms: C_17  and  C_18
REMARK   12  A    between atoms: C_21  and  N_29
REMARK   13  A    between atoms: C_23  and  O_25
REMARK   14  A    between atoms: C_26  and  O_28
REMARK   15  A    between atoms: C_37  and  O_39
REMARK   16  A    between atoms: C_40  and  O_42
REMARK                            x       y       z     vdW  Elec       q    Type
REMARK                         _______ _______ _______ _____ _____    ______ ____
ROOT
ATOM      1  P   UNL     1       9.243  -1.378  23.880  0.00  0.00    +0.483 P 
ATOM      2  O   UNL     1       9.522  -1.152  25.368  0.00  0.00    -0.227 OA
ENDROOT
BRANCH   1   3
ATOM      3  O   UNL     1      10.269  -2.559  23.412  0.00  0.00    -0.302 OA
ATOM      4  H   UNL     1      11.171  -2.310  23.683  0.00  0.00    +0.222 HD
ENDBRANCH   1   3
BRANCH   1   5
ATOM      5  O   UNL     1      10.494  -0.249  23.489  0.00  0.00    -0.186 OA
BRANCH   5   6
ATOM      6  P   UNL     1       9.885   0.924  22.374  0.00  0.00    +0.486 P 
ATOM      7  O   UNL     1       8.964  -0.105  21.724  0.00  0.00    -0.227 OA
BRANCH   6   8
ATOM      8  O   UNL     1       9.275   2.099  21.259  0.00  0.00    -0.302 OA
ATOM      9  H   UNL     1       8.313   2.200  21.380  0.00  0.00    +0.222 HD
ENDBRANCH   6   8
BRANCH   6  10
ATOM     10  O   UNL     1       9.156   1.755  23.580  0.00  0.00    -0.254 OA
BRANCH  10  16
ATOM     11  C   UNL     1      11.532   4.463  23.636  0.00  0.00    +0.183 C 
ATOM     12  C   UNL     1      10.626   5.682  23.817  0.00  0.00    +0.228 C 
ATOM     13  F   UNL     1      11.345   6.659  24.446  0.00  0.00    -0.240 F 
ATOM     14  C   UNL     1       9.429   5.317  24.698  0.00  0.00    +0.184 C 
ATOM     15  C   UNL     1       8.752   4.025  24.228  0.00  0.00    +0.202 C 
ATOM     16  C   UNL     1       9.807   2.912  24.067  0.00  0.00    +0.293 C 
ATOM     17  O   UNL     1      10.777   3.355  23.129  0.00  0.00    -0.340 OA
BRANCH  14  18
ATOM     18  O   UNL     1       8.454   6.372  24.702  0.00  0.00    -0.386 OA
ATOM     19  H   UNL     1       8.914   7.162  24.356  0.00  0.00    +0.210 HD
ENDBRANCH  14  18
BRANCH  15  20
ATOM     20  O   UNL     1       7.704   3.700  25.156  0.00  0.00    -0.384 OA
ATOM     21  H   UNL     1       7.535   2.742  25.113  0.00  0.00    +0.210 HD
ENDBRANCH  15  20
BRANCH  11  22
ATOM     22  C   UNL     1      12.707   4.755  22.698  0.00  0.00    +0.190 C 
BRANCH  22  23
ATOM     23  O   UNL     1      13.863   5.169  23.420  0.00  0.00    -0.392 OA
ATOM     24  H   UNL     1      13.954   4.559  24.172  0.00  0.00    +0.210 HD
ENDBRANCH  22  23
ENDBRANCH  11  22
ENDBRANCH  10  16
ENDBRANCH   6  10
ENDBRANCH   5   6
ENDBRANCH   1   5
BRANCH   1  25
ATOM     25  O   UNL     1       7.991  -2.506  24.271  0.00  0.00    -0.284 OA
BRANCH  25  26
ATOM     26  C   UNL     1       6.656  -2.002  24.350  0.00  0.00    +0.206 C 
BRANCH  26  27
ATOM     27  C   UNL     1       5.697  -2.691  23.379  0.00  0.00    +0.178 C 
ATOM     28  C   UNL     1       6.391  -3.575  22.349  0.00  0.00    +0.178 C 
ATOM     29  C   UNL     1       6.274  -4.997  22.900  0.00  0.00    +0.195 C 
ATOM     30  C   UNL     1       5.465  -4.825  24.195  0.00  0.00    +0.255 C 
ATOM     31  O   UNL     1       4.795  -3.559  24.095  0.00  0.00    -0.346 OA
BRANCH  30  32
ATOM     32  N   UNL     1       4.514  -5.902  24.435  0.00  0.00    -0.271 N 
ATOM     33  C   UNL     1       4.726  -6.672  25.572  0.00  0.00    +0.331 A 
ATOM     34  O   UNL     1       5.714  -6.552  26.295  0.00  0.00    -0.246 OA
ATOM     35  N   UNL     1       3.764  -7.610  25.837  0.00  0.00    -0.275 N 
ATOM     36  H   UNL     1       3.871  -8.151  26.682  0.00  0.00    +0.173 HD
ATOM     37  C   UNL     1       2.700  -7.910  25.040  0.00  0.00    +0.254 A 
ATOM     38  O   UNL     1       1.881  -8.779  25.312  0.00  0.00    -0.268 OA
ATOM     39  C   UNL     1       2.586  -7.127  23.797  0.00  0.00    +0.088 A 
ATOM     40  C   UNL     1       3.481  -6.164  23.562  0.00  0.00    +0.098 A 
ENDBRANCH  30  32
BRANCH  29  41
ATOM     41  O   UNL     1       7.562  -5.573  23.134  0.00  0.00    -0.385 OA
ATOM     42  H   UNL     1       7.590  -6.421  22.646  0.00  0.00    +0.210 HD
ENDBRANCH  29  41
BRANCH  28  43
ATOM     43  O   UNL     1       5.677  -3.479  21.102  0.00  0.00    -0.386 OA
ATOM     44  H   UNL     1       6.312  -3.238  20.404  0.00  0.00    +0.210 HD
ENDBRANCH  28  43
ENDBRANCH  26  27
ENDBRANCH  25  26
ENDBRANCH   1  25
TORSDOF 16
ENDMDL
MODEL 9
REMARK VINA RESULT:      -7.2      4.059      8.728
REMARK  Name = 
REMARK  16 active torsions:
REMARK  status: ('A' for Active; 'I' for Inactive)
REMARK    1  A    between atoms: O_1  and  C_2
REMARK    2  A    between atoms: C_2  and  C_3
REMARK    3  A    between atoms: C_6  and  O_8
REMARK    4  A    between atoms: O_8  and  P_9
REMARK    5  A    between atoms: P_9  and  O_10
REMARK    6  A    between atoms: P_9  and  O_12
REMARK    7  A    between atoms: O_12  and  P_13
REMARK    8  A    between atoms: P_13  and  O_14
REMARK    9  A    between atoms: P_13  and  O_16
REMARK   10  A    between atoms: O_16  and  C_17
REMARK   11  A    between atoms: C_17  and  C_18
REMARK   12  A    between atoms: C_21  and  N_29
REMARK   13  A    between atoms: C_23  and  O_25
REMARK   14  A    between atoms: C_26  and  O_28
REMARK   15  A    between atoms: C_37  and  O_39
REMARK   16  A    between atoms: C_40  and  O_42
REMARK                            x       y       z     vdW  Elec       q    Type
REMARK                         _______ _______ _______ _____ _____    ______ ____
ROOT
ATOM      1  P   UNL     1       3.959  -2.182  26.437  0.00  0.00    +0.483 P 
ATOM      2  O   UNL     1       2.609  -1.623  26.895  0.00  0.00    -0.227 OA
ENDROOT
BRANCH   1   3
ATOM      3  O   UNL     1       3.698  -2.801  24.947  0.00  0.00    -0.302 OA
ATOM      4  H   UNL     1       4.341  -2.405  24.331  0.00  0.00    +0.222 HD
ENDBRANCH   1   3
BRANCH   1   5
ATOM      5  O   UNL     1       3.515  -3.731  27.068  0.00  0.00    -0.186 OA
BRANCH   5   6
ATOM      6  P   UNL     1       4.854  -4.410  27.925  0.00  0.00    +0.486 P 
ATOM      7  O   UNL     1       4.403  -5.830  27.595  0.00  0.00    -0.227 OA
BRANCH   6   8
ATOM      8  O   UNL     1       6.194  -5.089  28.783  0.00  0.00    -0.302 OA
ATOM      9  H   UNL     1       5.978  -5.995  29.069  0.00  0.00    +0.222 HD
ENDBRANCH   6   8
BRANCH   6  10
ATOM     10  O   UNL     1       5.913  -3.810  26.833  0.00  0.00    -0.254 OA
BRANCH  10  16
ATOM     11  C   UNL     1       6.377  -5.215  23.547  0.00  0.00    +0.183 C 
ATOM     12  C   UNL     1       7.902  -5.243  23.422  0.00  0.00    +0.228 C 
ATOM     13  F   UNL     1       8.241  -6.251  22.565  0.00  0.00    -0.240 F 
ATOM     14  C   UNL     1       8.533  -5.530  24.786  0.00  0.00    +0.184 C 
ATOM     15  C   UNL     1       7.952  -4.629  25.881  0.00  0.00    +0.202 C 
ATOM     16  C   UNL     1       6.413  -4.694  25.848  0.00  0.00    +0.293 C 
ATOM     17  O   UNL     1       5.980  -4.282  24.561  0.00  0.00    -0.340 OA
BRANCH  14  18
ATOM     18  O   UNL     1       9.956  -5.343  24.742  0.00  0.00    -0.386 OA
ATOM     19  H   UNL     1      10.319  -6.149  24.323  0.00  0.00    +0.210 HD
ENDBRANCH  14  18
BRANCH  15  20
ATOM     20  O   UNL     1       8.523  -5.024  27.140  0.00  0.00    -0.384 OA
ATOM     21  H   UNL     1       7.991  -5.752  27.509  0.00  0.00    +0.210 HD
ENDBRANCH  15  20
BRANCH  11  22
ATOM     22  C   UNL     1       5.698  -4.854  22.223  0.00  0.00    +0.190 C 
BRANCH  22  23
ATOM     23  O   UNL     1       5.023  -3.602  22.305  0.00  0.00    -0.392 OA
ATOM     24  H   UNL     1       5.491  -2.994  21.709  0.00  0.00    +0.210 HD
ENDBRANCH  22  23
ENDBRANCH  11  22
ENDBRANCH  10  16
ENDBRANCH   6  10
ENDBRANCH   5   6
ENDBRANCH   1   5
BRANCH   1  25
ATOM     25  O   UNL     1       4.404  -0.634  25.806  0.00  0.00    -0.284 OA
BRANCH  25  26
ATOM     26  C   UNL     1       5.658  -0.091  26.226  0.00  0.00    +0.206 C 
BRANCH  26  27
ATOM     27  C   UNL     1       6.827  -0.533  25.345  0.00  0.00    +0.178 C 
ATOM     28  C   UNL     1       6.474  -0.653  23.866  0.00  0.00    +0.178 C 
ATOM     29  C   UNL     1       6.964   0.651  23.232  0.00  0.00    +0.195 C 
ATOM     30  C   UNL     1       7.617   1.406  24.401  0.00  0.00    +0.255 C 
ATOM     31  O   UNL     1       7.899   0.429  25.414  0.00  0.00    -0.346 OA
BRANCH  30  32
ATOM     32  N   UNL     1       8.823   2.131  24.024  0.00  0.00    -0.271 N 
ATOM     33  C   UNL     1       8.652   3.451  23.624  0.00  0.00    +0.331 A 
ATOM     34  O   UNL     1       7.548   3.974  23.476  0.00  0.00    -0.246 OA
ATOM     35  N   UNL     1       9.804   4.147  23.375  0.00  0.00    -0.275 N 
ATOM     36  H   UNL     1       9.708   5.119  23.128  0.00  0.00    +0.173 HD
ATOM     37  C   UNL     1      11.066   3.632  23.389  0.00  0.00    +0.254 A 
ATOM     38  O   UNL     1      12.064   4.294  23.132  0.00  0.00    -0.268 OA
ATOM     39  C   UNL     1      11.174   2.201  23.721  0.00  0.00    +0.088 A 
ATOM     40  C   UNL     1      10.062   1.529  24.031  0.00  0.00    +0.098 A 
ENDBRANCH  30  32
BRANCH  29  41
ATOM     41  O   UNL     1       5.886   1.382  22.644  0.00  0.00    -0.385 OA
ATOM     42  H   UNL     1       6.234   1.802  21.831  0.00  0.00    +0.210 HD
ENDBRANCH  29  41
BRANCH  28  43
ATOM     43  O   UNL     1       7.198  -1.765  23.307  0.00  0.00    -0.386 OA
ATOM     44  H   UNL     1       7.641  -2.237  24.035  0.00  0.00    +0.210 HD
ENDBRANCH  28  43
ENDBRANCH  26  27
ENDBRANCH  25  26
ENDBRANCH   1  25
TORSDOF 16
ENDMDL
