MODEL 1
REMARK VINA RESULT:      -6.7      0.000      0.000
REMARK  Name = 
REMARK  5 active torsions:
REMARK  status: ('A' for Active; 'I' for Inactive)
REMARK    1  A    between atoms: C_1  and  C_2
REMARK    2  A    between atoms: C_2  and  C_3
REMARK    3  A    between atoms: C_3  and  C_4
REMARK    4  A    between atoms: C_5  and  S_6
REMARK    5  A    between atoms: S_6  and  C_7
REMARK                            x       y       z     vdW  Elec       q    Type
REMARK                         _______ _______ _______ _____ _____    ______ ____
ROOT
ATOM      1  C   UNL     1       8.095  -3.954  24.834  0.00  0.00    +0.031 A 
ATOM      2  C   UNL     1       9.587  -3.905  24.612  0.00  0.00    +0.253 A 
ATOM      3  O   UNL     1      10.335  -4.818  24.964  0.00  0.00    -0.268 OA
ATOM      4  N   UNL     1      10.102  -2.826  23.968  0.00  0.00    -0.322 N 
ATOM      5  H   UNL     1      11.100  -2.851  23.811  0.00  0.00    +0.169 HD
ATOM      6  C   UNL     1       9.341  -1.752  23.520  0.00  0.00    +0.050 A 
ATOM      7  C   UNL     1       7.957  -1.747  23.738  0.00  0.00    +0.014 A 
ATOM      8  C   UNL     1       7.244  -0.651  23.221  0.00  0.00    +0.031 A 
ATOM      9  C   UNL     1       7.885   0.415  22.591  0.00  0.00    +0.042 A 
ATOM     10  C   UNL     1       9.256   0.386  22.390  0.00  0.00    +0.022 A 
ATOM     11 CL   UNL     1       6.963   1.770  22.065  0.00  0.00    -0.084 Cl
ATOM     12  C   UNL     1       9.990  -0.710  22.844  0.00  0.00    +0.028 A 
ATOM     13  C   UNL     1       7.328  -2.898  24.461  0.00  0.00    +0.026 A 
ENDROOT
BRANCH   1  14
ATOM     14  C   UNL     1       7.627  -5.260  25.461  0.00  0.00    +0.041 C 
BRANCH  14  16
ATOM     15  C   UNL     1       6.002  -5.586  27.368  0.00  0.00    +0.004 C 
ATOM     16  C   UNL     1       7.418  -5.187  26.976  0.00  0.00    +0.001 C 
ENDBRANCH  14  16
ENDBRANCH   1  14
BRANCH  13  17
ATOM     17  S   UNL     1       5.575  -2.903  24.536  0.00  0.00    -0.121 S 
BRANCH  17  18
ATOM     18  C   UNL     1       4.959  -3.485  22.906  0.00  0.00    +0.051 C 
ATOM     19  C   UNL     1       4.209  -4.823  23.118  0.00  0.00    +0.014 C 
ATOM     20  C   UNL     1       5.126  -6.040  23.301  0.00  0.00    +0.001 C 
ATOM     21  C   UNL     1       6.111  -6.177  22.147  0.00  0.00    +0.000 C 
ATOM     22  C   UNL     1       6.912  -4.897  21.957  0.00  0.00    +0.001 C 
ATOM     23  C   UNL     1       6.018  -3.663  21.805  0.00  0.00    +0.014 C 
ENDBRANCH  17  18
ENDBRANCH  13  17
TORSDOF 4
ENDMDL
MODEL 2
REMARK VINA RESULT:      -6.3      2.826      4.623
REMARK  Name = 
REMARK  5 active torsions:
REMARK  status: ('A' for Active; 'I' for Inactive)
REMARK    1  A    between atoms: C_1  and  C_2
REMARK    2  A    between atoms: C_2  and  C_3
REMARK    3  A    between atoms: C_3  and  C_4
REMARK    4  A    between atoms: C_5  and  S_6
REMARK    5  A    between atoms: S_6  and  C_7
REMARK                            x       y       z     vdW  Elec       q    Type
REMARK                         _______ _______ _______ _____ _____    ______ ____
ROOT
ATOM      1  C   UNL     1       9.170  -0.848  23.851  0.00  0.00    +0.031 A 
ATOM      2  C   UNL     1       9.776  -0.090  25.007  0.00  0.00    +0.253 A 
ATOM      3  O   UNL     1      10.923   0.358  24.972  0.00  0.00    -0.268 OA
ATOM      4  N   UNL     1       9.004   0.129  26.103  0.00  0.00    -0.322 N 
ATOM      5  H   UNL     1       9.438   0.670  26.838  0.00  0.00    +0.169 HD
ATOM      6  C   UNL     1       7.695  -0.323  26.233  0.00  0.00    +0.050 A 
ATOM      7  C   UNL     1       7.111  -1.059  25.194  0.00  0.00    +0.014 A 
ATOM      8  C   UNL     1       5.772  -1.447  25.375  0.00  0.00    +0.031 A 
ATOM      9  C   UNL     1       5.081  -1.182  26.557  0.00  0.00    +0.042 A 
ATOM     10  C   UNL     1       5.683  -0.453  27.570  0.00  0.00    +0.022 A 
ATOM     11 CL   UNL     1       3.473  -1.767  26.750  0.00  0.00    -0.084 Cl
ATOM     12  C   UNL     1       6.994  -0.008  27.406  0.00  0.00    +0.028 A 
ATOM     13  C   UNL     1       7.916  -1.353  23.966  0.00  0.00    +0.026 A 
ENDROOT
BRANCH   1  14
ATOM     14  C   UNL     1      10.093  -0.929  22.642  0.00  0.00    +0.041 C 
BRANCH  14  16
ATOM     15  C   UNL     1       9.818   1.458  21.860  0.00  0.00    +0.004 C 
ATOM     16  C   UNL     1       9.687  -0.011  21.485  0.00  0.00    +0.001 C 
ENDBRANCH  14  16
ENDBRANCH   1  14
BRANCH  13  17
ATOM     17  S   UNL     1       7.059  -2.121  22.641  0.00  0.00    -0.121 S 
BRANCH  17  18
ATOM     18  C   UNL     1       7.569  -3.887  22.611  0.00  0.00    +0.051 C 
ATOM     19  C   UNL     1       6.425  -4.713  21.971  0.00  0.00    +0.014 C 
ATOM     20  C   UNL     1       5.241  -4.983  22.908  0.00  0.00    +0.001 C 
ATOM     21  C   UNL     1       5.691  -5.642  24.205  0.00  0.00    +0.000 C 
ATOM     22  C   UNL     1       6.769  -4.817  24.891  0.00  0.00    +0.001 C 
ATOM     23  C   UNL     1       7.949  -4.506  23.966  0.00  0.00    +0.014 C 
ENDBRANCH  17  18
ENDBRANCH  13  17
TORSDOF 4
ENDMDL
MODEL 3
REMARK VINA RESULT:      -6.1      2.936      4.702
REMARK  Name = 
REMARK  5 active torsions:
REMARK  status: ('A' for Active; 'I' for Inactive)
REMARK    1  A    between atoms: C_1  and  C_2
REMARK    2  A    between atoms: C_2  and  C_3
REMARK    3  A    between atoms: C_3  and  C_4
REMARK    4  A    between atoms: C_5  and  S_6
REMARK    5  A    between atoms: S_6  and  C_7
REMARK                            x       y       z     vdW  Elec       q    Type
REMARK                         _______ _______ _______ _____ _____    ______ ____
ROOT
ATOM      1  C   UNL     1       8.247  -2.490  24.579  0.00  0.00    +0.031 A 
ATOM      2  C   UNL     1       8.228  -2.875  23.119  0.00  0.00    +0.253 A 
ATOM      3  O   UNL     1       7.824  -3.972  22.733  0.00  0.00    -0.268 OA
ATOM      4  N   UNL     1       8.642  -1.954  22.210  0.00  0.00    -0.322 N 
ATOM      5  H   UNL     1       8.580  -2.242  21.244  0.00  0.00    +0.169 HD
ATOM      6  C   UNL     1       9.102  -0.685  22.544  0.00  0.00    +0.050 A 
ATOM      7  C   UNL     1       9.165  -0.304  23.891  0.00  0.00    +0.014 A 
ATOM      8  C   UNL     1       9.599   1.007  24.154  0.00  0.00    +0.031 A 
ATOM      9  C   UNL     1      10.020   1.862  23.136  0.00  0.00    +0.042 A 
ATOM     10  C   UNL     1       9.949   1.460  21.811  0.00  0.00    +0.022 A 
ATOM     11 CL   UNL     1      10.629   3.421  23.534  0.00  0.00    -0.084 Cl
ATOM     12  C   UNL     1       9.476   0.183  21.509  0.00  0.00    +0.028 A 
ATOM     13  C   UNL     1       8.743  -1.281  24.945  0.00  0.00    +0.026 A 
ENDROOT
BRANCH   1  14
ATOM     14  C   UNL     1       7.654  -3.560  25.485  0.00  0.00    +0.041 C 
BRANCH  14  16
ATOM     15  C   UNL     1       9.667  -5.086  25.543  0.00  0.00    +0.004 C 
ATOM     16  C   UNL     1       8.684  -4.270  26.370  0.00  0.00    +0.001 C 
ENDBRANCH  14  16
ENDBRANCH   1  14
BRANCH  13  17
ATOM     17  S   UNL     1       8.680  -0.670  26.589  0.00  0.00    -0.121 S 
BRANCH  17  18
ATOM     18  C   UNL     1       6.911  -0.399  27.006  0.00  0.00    +0.051 C 
ATOM     19  C   UNL     1       6.194   0.154  25.749  0.00  0.00    +0.014 C 
ATOM     20  C   UNL     1       6.447   1.643  25.481  0.00  0.00    +0.001 C 
ATOM     21  C   UNL     1       6.098   2.498  26.693  0.00  0.00    +0.000 C 
ATOM     22  C   UNL     1       6.841   2.019  27.932  0.00  0.00    +0.001 C 
ATOM     23  C   UNL     1       6.630   0.526  28.202  0.00  0.00    +0.014 C 
ENDBRANCH  17  18
ENDBRANCH  13  17
TORSDOF 4
ENDMDL
MODEL 4
REMARK VINA RESULT:      -6.0      3.624      5.564
REMARK  Name = 
REMARK  5 active torsions:
REMARK  status: ('A' for Active; 'I' for Inactive)
REMARK    1  A    between atoms: C_1  and  C_2
REMARK    2  A    between atoms: C_2  and  C_3
REMARK    3  A    between atoms: C_3  and  C_4
REMARK    4  A    between atoms: C_5  and  S_6
REMARK    5  A    between atoms: S_6  and  C_7
REMARK                            x       y       z     vdW  Elec       q    Type
REMARK                         _______ _______ _______ _____ _____    ______ ____
ROOT
ATOM      1  C   UNL     1       7.008  -5.005  24.457  0.00  0.00    +0.031 A 
ATOM      2  C   UNL     1       8.161  -5.475  25.310  0.00  0.00    +0.253 A 
ATOM      3  O   UNL     1       9.291  -5.650  24.852  0.00  0.00    -0.268 OA
ATOM      4  N   UNL     1       7.936  -5.672  26.635  0.00  0.00    -0.322 N 
ATOM      5  H   UNL     1       8.744  -5.954  27.174  0.00  0.00    +0.169 HD
ATOM      6  C   UNL     1       6.703  -5.489  27.249  0.00  0.00    +0.050 A 
ATOM      7  C   UNL     1       5.601  -5.085  26.483  0.00  0.00    +0.014 A 
ATOM      8  C   UNL     1       4.396  -4.877  27.176  0.00  0.00    +0.031 A 
ATOM      9  C   UNL     1       4.277  -5.133  28.542  0.00  0.00    +0.042 A 
ATOM     10  C   UNL     1       5.382  -5.533  29.276  0.00  0.00    +0.022 A 
ATOM     11 CL   UNL     1       2.749  -4.948  29.310  0.00  0.00    -0.084 Cl
ATOM     12  C   UNL     1       6.608  -5.701  28.632  0.00  0.00    +0.028 A 
ATOM     13  C   UNL     1       5.777  -4.870  25.011  0.00  0.00    +0.026 A 
ENDROOT
BRANCH   1  14
ATOM     14  C   UNL     1       7.412  -4.710  23.018  0.00  0.00    +0.041 C 
BRANCH  14  16
ATOM     15  C   UNL     1       6.258  -5.587  20.948  0.00  0.00    +0.004 C 
ATOM     16  C   UNL     1       7.243  -5.898  22.066  0.00  0.00    +0.001 C 
ENDBRANCH  14  16
ENDBRANCH   1  14
BRANCH  13  17
ATOM     17  S   UNL     1       4.401  -4.195  24.156  0.00  0.00    -0.121 S 
BRANCH  17  18
ATOM     18  C   UNL     1       3.562  -5.581  23.288  0.00  0.00    +0.051 C 
ATOM     19  C   UNL     1       2.037  -5.316  23.309  0.00  0.00    +0.014 C 
ATOM     20  C   UNL     1       1.359  -5.632  24.648  0.00  0.00    +0.001 C 
ATOM     21  C   UNL     1       1.642  -7.061  25.096  0.00  0.00    +0.000 C 
ATOM     22  C   UNL     1       3.138  -7.330  25.149  0.00  0.00    +0.001 C 
ATOM     23  C   UNL     1       3.843  -6.991  23.833  0.00  0.00    +0.014 C 
ENDBRANCH  17  18
ENDBRANCH  13  17
TORSDOF 4
ENDMDL
MODEL 5
REMARK VINA RESULT:      -6.0      2.551      5.697
REMARK  Name = 
REMARK  5 active torsions:
REMARK  status: ('A' for Active; 'I' for Inactive)
REMARK    1  A    between atoms: C_1  and  C_2
REMARK    2  A    between atoms: C_2  and  C_3
REMARK    3  A    between atoms: C_3  and  C_4
REMARK    4  A    between atoms: C_5  and  S_6
REMARK    5  A    between atoms: S_6  and  C_7
REMARK                            x       y       z     vdW  Elec       q    Type
REMARK                         _______ _______ _______ _____ _____    ______ ____
ROOT
ATOM      1  C   UNL     1       8.534  -2.917  23.956  0.00  0.00    +0.031 A 
ATOM      2  C   UNL     1       8.975  -4.221  24.574  0.00  0.00    +0.253 A 
ATOM      3  O   UNL     1      10.163  -4.531  24.678  0.00  0.00    -0.268 OA
ATOM      4  N   UNL     1       8.019  -5.054  25.060  0.00  0.00    -0.322 N 
ATOM      5  H   UNL     1       8.361  -5.899  25.495  0.00  0.00    +0.169 HD
ATOM      6  C   UNL     1       6.656  -4.787  25.003  0.00  0.00    +0.050 A 
ATOM      7  C   UNL     1       6.206  -3.602  24.407  0.00  0.00    +0.014 A 
ATOM      8  C   UNL     1       4.819  -3.377  24.423  0.00  0.00    +0.031 A 
ATOM      9  C   UNL     1       3.925  -4.318  24.935  0.00  0.00    +0.042 A 
ATOM     10  C   UNL     1       4.396  -5.484  25.518  0.00  0.00    +0.022 A 
ATOM     11 CL   UNL     1       2.233  -4.022  24.838  0.00  0.00    -0.084 Cl
ATOM     12  C   UNL     1       5.770  -5.718  25.566  0.00  0.00    +0.028 A 
ATOM     13  C   UNL     1       7.209  -2.650  23.832  0.00  0.00    +0.026 A 
ENDROOT
BRANCH   1  14
ATOM     14  C   UNL     1       9.699  -2.022  23.554  0.00  0.00    +0.041 C 
BRANCH  14  16
ATOM     15  C   UNL     1       9.876  -0.123  21.896  0.00  0.00    +0.004 C 
ATOM     16  C   UNL     1       9.700  -1.625  22.074  0.00  0.00    +0.001 C 
ENDBRANCH  14  16
ENDBRANCH   1  14
BRANCH  13  17
ATOM     17  S   UNL     1       6.583  -1.111  23.266  0.00  0.00    -0.121 S 
BRANCH  17  18
ATOM     18  C   UNL     1       6.301  -0.057  24.745  0.00  0.00    +0.051 C 
ATOM     19  C   UNL     1       5.973   1.378  24.265  0.00  0.00    +0.014 C 
ATOM     20  C   UNL     1       7.196   2.189  23.816  0.00  0.00    +0.001 C 
ATOM     21  C   UNL     1       8.265   2.238  24.901  0.00  0.00    +0.000 C 
ATOM     22  C   UNL     1       8.656   0.836  25.346  0.00  0.00    +0.001 C 
ATOM     23  C   UNL     1       7.448  -0.004  25.768  0.00  0.00    +0.014 C 
ENDBRANCH  17  18
ENDBRANCH  13  17
TORSDOF 4
ENDMDL
MODEL 6
REMARK VINA RESULT:      -6.0      2.425      4.042
REMARK  Name = 
REMARK  5 active torsions:
REMARK  status: ('A' for Active; 'I' for Inactive)
REMARK    1  A    between atoms: C_1  and  C_2
REMARK    2  A    between atoms: C_2  and  C_3
REMARK    3  A    between atoms: C_3  and  C_4
REMARK    4  A    between atoms: C_5  and  S_6
REMARK    5  A    between atoms: S_6  and  C_7
REMARK                            x       y       z     vdW  Elec       q    Type
REMARK                         _______ _______ _______ _____ _____    ______ ____
ROOT
ATOM      1  C   UNL     1       8.141  -2.648  24.615  0.00  0.00    +0.031 A 
ATOM      2  C   UNL     1       9.526  -2.799  24.034  0.00  0.00    +0.253 A 
ATOM      3  O   UNL     1      10.231  -3.784  24.259  0.00  0.00    -0.268 OA
ATOM      4  N   UNL     1       9.981  -1.823  23.207  0.00  0.00    -0.322 N 
ATOM      5  H   UNL     1      10.899  -1.981  22.814  0.00  0.00    +0.169 HD
ATOM      6  C   UNL     1       9.257  -0.682  22.880  0.00  0.00    +0.050 A 
ATOM      7  C   UNL     1       7.981  -0.491  23.427  0.00  0.00    +0.014 A 
ATOM      8  C   UNL     1       7.290   0.663  23.020  0.00  0.00    +0.031 A 
ATOM      9  C   UNL     1       7.869   1.611  22.177  0.00  0.00    +0.042 A 
ATOM     10  C   UNL     1       9.133   1.399  21.651  0.00  0.00    +0.022 A 
ATOM     11 CL   UNL     1       7.002   3.047  21.793  0.00  0.00    -0.084 Cl
ATOM     12  C   UNL     1       9.830   0.240  21.992  0.00  0.00    +0.028 A 
ATOM     13  C   UNL     1       7.429  -1.521  24.363  0.00  0.00    +0.026 A 
ENDROOT
BRANCH   1  14
ATOM     14  C   UNL     1       7.701  -3.857  25.430  0.00  0.00    +0.041 C 
BRANCH  14  16
ATOM     15  C   UNL     1       5.843  -5.569  25.423  0.00  0.00    +0.004 C 
ATOM     16  C   UNL     1       6.961  -4.923  24.617  0.00  0.00    +0.001 C 
ENDBRANCH  14  16
ENDBRANCH   1  14
BRANCH  13  17
ATOM     17  S   UNL     1       5.761  -1.301  24.862  0.00  0.00    -0.121 S 
BRANCH  17  18
ATOM     18  C   UNL     1       5.782  -0.756  26.618  0.00  0.00    +0.051 C 
ATOM     19  C   UNL     1       4.536   0.129  26.868  0.00  0.00    +0.014 C 
ATOM     20  C   UNL     1       4.662   1.562  26.333  0.00  0.00    +0.001 C 
ATOM     21  C   UNL     1       5.906   2.255  26.875  0.00  0.00    +0.000 C 
ATOM     22  C   UNL     1       7.156   1.439  26.584  0.00  0.00    +0.001 C 
ATOM     23  C   UNL     1       7.043  -0.005  27.079  0.00  0.00    +0.014 C 
ENDBRANCH  17  18
ENDBRANCH  13  17
TORSDOF 4
ENDMDL
MODEL 7
REMARK VINA RESULT:      -5.9      2.581      4.862
REMARK  Name = 
REMARK  5 active torsions:
REMARK  status: ('A' for Active; 'I' for Inactive)
REMARK    1  A    between atoms: C_1  and  C_2
REMARK    2  A    between atoms: C_2  and  C_3
REMARK    3  A    between atoms: C_3  and  C_4
REMARK    4  A    between atoms: C_5  and  S_6
REMARK    5  A    between atoms: S_6  and  C_7
REMARK                            x       y       z     vdW  Elec       q    Type
REMARK                         _______ _______ _______ _____ _____    ______ ____
ROOT
ATOM      1  C   UNL     1       6.866  -4.201  24.350  0.00  0.00    +0.031 A 
ATOM      2  C   UNL     1       6.398  -4.794  25.657  0.00  0.00    +0.253 A 
ATOM      3  O   UNL     1       6.540  -5.987  25.927  0.00  0.00    -0.268 OA
ATOM      4  N   UNL     1       5.836  -3.961  26.571  0.00  0.00    -0.322 N 
ATOM      5  H   UNL     1       5.569  -4.394  27.444  0.00  0.00    +0.169 HD
ATOM      6  C   UNL     1       5.644  -2.600  26.367  0.00  0.00    +0.050 A 
ATOM      7  C   UNL     1       6.036  -2.020  25.152  0.00  0.00    +0.014 A 
ATOM      8  C   UNL     1       5.852  -0.632  25.031  0.00  0.00    +0.031 A 
ATOM      9  C   UNL     1       5.242   0.122  26.033  0.00  0.00    +0.042 A 
ATOM     10  C   UNL     1       4.863  -0.476  27.224  0.00  0.00    +0.022 A 
ATOM     11 CL   UNL     1       4.962   1.801  25.781  0.00  0.00    -0.084 Cl
ATOM     12  C   UNL     1       5.075  -1.843  27.401  0.00  0.00    +0.028 A 
ATOM     13  C   UNL     1       6.644  -2.888  24.094  0.00  0.00    +0.026 A 
ENDROOT
BRANCH   1  14
ATOM     14  C   UNL     1       7.580  -5.210  23.460  0.00  0.00    +0.041 C 
BRANCH  14  16
ATOM     15  C   UNL     1       6.530  -5.512  21.182  0.00  0.00    +0.004 C 
ATOM     16  C   UNL     1       6.640  -6.058  22.598  0.00  0.00    +0.001 C 
ENDBRANCH  14  16
ENDBRANCH   1  14
BRANCH  13  17
ATOM     17  S   UNL     1       7.269  -2.061  22.678  0.00  0.00    -0.121 S 
BRANCH  17  18
ATOM     18  C   UNL     1       9.104  -2.107  22.783  0.00  0.00    +0.051 C 
ATOM     19  C   UNL     1       9.517  -1.768  24.236  0.00  0.00    +0.014 C 
ATOM     20  C   UNL     1       9.450  -0.274  24.580  0.00  0.00    +0.001 C 
ATOM     21  C   UNL     1      10.266   0.563  23.602  0.00  0.00    +0.000 C 
ATOM     22  C   UNL     1       9.835   0.300  22.167  0.00  0.00    +0.001 C 
ATOM     23  C   UNL     1       9.862  -1.189  21.810  0.00  0.00    +0.014 C 
ENDBRANCH  17  18
ENDBRANCH  13  17
TORSDOF 4
ENDMDL
MODEL 8
REMARK VINA RESULT:      -5.9      3.307      5.838
REMARK  Name = 
REMARK  5 active torsions:
REMARK  status: ('A' for Active; 'I' for Inactive)
REMARK    1  A    between atoms: C_1  and  C_2
REMARK    2  A    between atoms: C_2  and  C_3
REMARK    3  A    between atoms: C_3  and  C_4
REMARK    4  A    between atoms: C_5  and  S_6
REMARK    5  A    between atoms: S_6  and  C_7
REMARK                            x       y       z     vdW  Elec       q    Type
REMARK                         _______ _______ _______ _____ _____    ______ ____
ROOT
ATOM      1  C   UNL     1       9.558  -1.074  24.351  0.00  0.00    +0.031 A 
ATOM      2  C   UNL     1       9.672  -1.937  23.118  0.00  0.00    +0.253 A 
ATOM      3  O   UNL     1      10.416  -1.650  22.179  0.00  0.00    -0.268 OA
ATOM      4  N   UNL     1       8.950  -3.087  23.074  0.00  0.00    -0.322 N 
ATOM      5  H   UNL     1       9.084  -3.651  22.246  0.00  0.00    +0.169 HD
ATOM      6  C   UNL     1       8.095  -3.506  24.087  0.00  0.00    +0.050 A 
ATOM      7  C   UNL     1       7.938  -2.714  25.232  0.00  0.00    +0.014 A 
ATOM      8  C   UNL     1       7.091  -3.219  26.234  0.00  0.00    +0.031 A 
ATOM      9  C   UNL     1       6.382  -4.409  26.069  0.00  0.00    +0.042 A 
ATOM     10  C   UNL     1       6.554  -5.173  24.926  0.00  0.00    +0.022 A 
ATOM     11 CL   UNL     1       5.290  -4.922  27.296  0.00  0.00    -0.084 Cl
ATOM     12  C   UNL     1       7.425  -4.728  23.932  0.00  0.00    +0.028 A 
ATOM     13  C   UNL     1       8.691  -1.423  25.334  0.00  0.00    +0.026 A 
ENDROOT
BRANCH   1  14
ATOM     14  C   UNL     1      10.500   0.123  24.330  0.00  0.00    +0.041 C 
BRANCH  14  16
ATOM     15  C   UNL     1      10.076   1.752  22.445  0.00  0.00    +0.004 C 
ATOM     16  C   UNL     1       9.830   1.436  23.914  0.00  0.00    +0.001 C 
ENDBRANCH  14  16
ENDBRANCH   1  14
BRANCH  13  17
ATOM     17  S   UNL     1       8.580  -0.579  26.869  0.00  0.00    -0.121 S 
BRANCH  17  18
ATOM     18  C   UNL     1       7.426   0.832  26.636  0.00  0.00    +0.051 C 
ATOM     19  C   UNL     1       6.569   0.977  27.918  0.00  0.00    +0.014 C 
ATOM     20  C   UNL     1       5.431  -0.045  28.036  0.00  0.00    +0.001 C 
ATOM     21  C   UNL     1       4.530  -0.024  26.808  0.00  0.00    +0.000 C 
ATOM     22  C   UNL     1       5.337  -0.232  25.535  0.00  0.00    +0.001 C 
ATOM     23  C   UNL     1       6.501   0.756  25.410  0.00  0.00    +0.014 C 
ENDBRANCH  17  18
ENDBRANCH  13  17
TORSDOF 4
ENDMDL
MODEL 9
REMARK VINA RESULT:      -5.8      3.121      5.945
REMARK  Name = 
REMARK  5 active torsions:
REMARK  status: ('A' for Active; 'I' for Inactive)
REMARK    1  A    between atoms: C_1  and  C_2
REMARK    2  A    between atoms: C_2  and  C_3
REMARK    3  A    between atoms: C_3  and  C_4
REMARK    4  A    between atoms: C_5  and  S_6
REMARK    5  A    between atoms: S_6  and  C_7
REMARK                            x       y       z     vdW  Elec       q    Type
REMARK                         _______ _______ _______ _____ _____    ______ ____
ROOT
ATOM      1  C   UNL     1       8.563  -3.475  24.801  0.00  0.00    +0.031 A 
ATOM      2  C   UNL     1       9.162  -4.750  25.345  0.00  0.00    +0.253 A 
ATOM      3  O   UNL     1      10.215  -5.220  24.913  0.00  0.00    -0.268 OA
ATOM      4  N   UNL     1       8.523  -5.368  26.373  0.00  0.00    -0.322 N 
ATOM      5  H   UNL     1       8.977  -6.198  26.728  0.00  0.00    +0.169 HD
ATOM      6  C   UNL     1       7.339  -4.910  26.939  0.00  0.00    +0.050 A 
ATOM      7  C   UNL     1       6.736  -3.748  26.437  0.00  0.00    +0.014 A 
ATOM      8  C   UNL     1       5.564  -3.319  27.085  0.00  0.00    +0.031 A 
ATOM      9  C   UNL     1       4.985  -4.050  28.122  0.00  0.00    +0.042 A 
ATOM     10  C   UNL     1       5.601  -5.196  28.598  0.00  0.00    +0.022 A 
ATOM     11 CL   UNL     1       3.499  -3.518  28.808  0.00  0.00    -0.084 Cl
ATOM     12  C   UNL     1       6.793  -5.625  28.014  0.00  0.00    +0.028 A 
ATOM     13  C   UNL     1       7.379  -3.030  25.291  0.00  0.00    +0.026 A 
ENDROOT
BRANCH   1  14
ATOM     14  C   UNL     1       9.429  -2.818  23.734  0.00  0.00    +0.041 C 
BRANCH  14  16
ATOM     15  C   UNL     1       9.315  -1.232  21.770  0.00  0.00    +0.004 C 
ATOM     16  C   UNL     1       8.664  -2.418  22.469  0.00  0.00    +0.001 C 
ENDBRANCH  14  16
ENDBRANCH   1  14
BRANCH  13  17
ATOM     17  S   UNL     1       6.664  -1.492  24.840  0.00  0.00    -0.121 S 
BRANCH  17  18
ATOM     18  C   UNL     1       7.330  -0.221  25.988  0.00  0.00    +0.051 C 
ATOM     19  C   UNL     1       7.060   1.176  25.377  0.00  0.00    +0.014 C 
ATOM     20  C   UNL     1       8.023   1.569  24.249  0.00  0.00    +0.001 C 
ATOM     21  C   UNL     1       9.477   1.471  24.694  0.00  0.00    +0.000 C 
ATOM     22  C   UNL     1       9.789   0.085  25.238  0.00  0.00    +0.001 C 
ATOM     23  C   UNL     1       8.821  -0.343  26.344  0.00  0.00    +0.014 C 
ENDBRANCH  17  18
ENDBRANCH  13  17
TORSDOF 4
ENDMDL
