MODEL 1
REMARK VINA RESULT:      -5.5      0.000      0.000
REMARK  Name = 
REMARK  9 active torsions:
REMARK  status: ('A' for Active; 'I' for Inactive)
REMARK    1  A    between atoms: O_1  and  C_2
REMARK    2  A    between atoms: C_5  and  O_6
REMARK    3  A    between atoms: C_5  and  C_18
REMARK    4  A    between atoms: C_8  and  C_10
REMARK    5  A    between atoms: C_10  and  P_11
REMARK    6  A    between atoms: P_11  and  O_12
REMARK    7  A    between atoms: P_11  and  O_13
REMARK    8  A    between atoms: C_15  and  O_17
REMARK    9  A    between atoms: C_18  and  O_19
REMARK                            x       y       z     vdW  Elec       q    Type
REMARK                         _______ _______ _______ _____ _____    ______ ____
ROOT
ATOM      1  C   UNL     1       6.267  -4.985  23.345  0.00  0.00    +0.146 C 
ATOM      2  C   UNL     1       5.994  -3.473  23.215  0.00  0.00    +0.147 C 
ATOM      3  C   UNL     1       7.207  -2.595  23.593  0.00  0.00    +0.035 C 
ATOM      4  C   UNL     1       7.815  -3.021  24.946  0.00  0.00    +0.053 C 
ATOM      5  C   UNL     1       7.956  -4.537  25.177  0.00  0.00    +0.165 C 
ATOM      6  C   UNL     1       6.725  -5.343  24.750  0.00  0.00    +0.080 C 
ENDROOT
BRANCH   1   7
ATOM      7  O   UNL     1       7.263  -5.397  22.409  0.00  0.00    -0.389 OA
ATOM      8  H   UNL     1       7.505  -6.315  22.642  0.00  0.00    +0.210 HD
ENDBRANCH   1   7
BRANCH   2   9
ATOM      9  O   UNL     1       4.906  -3.152  24.081  0.00  0.00    -0.389 OA
ATOM     10  H   UNL     1       4.372  -2.462  23.647  0.00  0.00    +0.210 HD
ENDBRANCH   2   9
BRANCH   5  11
ATOM     11  C   UNL     1       8.213  -4.805  26.684  0.00  0.00    +0.337 C 
ATOM     12  O   UNL     1       7.349  -4.944  27.539  0.00  0.00    -0.248 OA
BRANCH  11  13
ATOM     13  O   UNL     1       9.538  -4.818  26.961  0.00  0.00    -0.479 OA
ATOM     14  H   UNL     1       9.644  -5.200  27.868  0.00  0.00    +0.295 HD
ENDBRANCH  11  13
ENDBRANCH   5  11
BRANCH   5  15
ATOM     15  O   UNL     1       9.125  -5.000  24.466  0.00  0.00    -0.377 OA
ATOM     16  H   UNL     1       9.771  -4.260  24.473  0.00  0.00    +0.211 HD
ENDBRANCH   5  15
BRANCH   3  17
ATOM     17  C   UNL     1       8.244  -2.431  22.441  0.00  0.00    +0.133 C 
BRANCH  17  18
ATOM     18  P   UNL     1       9.560  -1.246  22.904  0.00  0.00    +0.328 P 
ATOM     19  O   UNL     1      10.674  -0.244  23.296  0.00  0.00    -0.259 OA
BRANCH  18  20
ATOM     20  O   UNL     1       9.850  -1.056  21.299  0.00  0.00    -0.324 OA
ATOM     21  H   UNL     1      10.500  -0.325  21.217  0.00  0.00    +0.220 HD
ENDBRANCH  18  20
BRANCH  18  22
ATOM     22  O   UNL     1      10.510  -2.580  23.065  0.00  0.00    -0.324 OA
ATOM     23  H   UNL     1      11.127  -2.490  23.813  0.00  0.00    +0.220 HD
ENDBRANCH  18  22
ENDBRANCH  17  18
ENDBRANCH   3  17
TORSDOF 9
ENDMDL
MODEL 2
REMARK VINA RESULT:      -5.5      2.759      5.766
REMARK  Name = 
REMARK  9 active torsions:
REMARK  status: ('A' for Active; 'I' for Inactive)
REMARK    1  A    between atoms: O_1  and  C_2
REMARK    2  A    between atoms: C_5  and  O_6
REMARK    3  A    between atoms: C_5  and  C_18
REMARK    4  A    between atoms: C_8  and  C_10
REMARK    5  A    between atoms: C_10  and  P_11
REMARK    6  A    between atoms: P_11  and  O_12
REMARK    7  A    between atoms: P_11  and  O_13
REMARK    8  A    between atoms: C_15  and  O_17
REMARK    9  A    between atoms: C_18  and  O_19
REMARK                            x       y       z     vdW  Elec       q    Type
REMARK                         _______ _______ _______ _____ _____    ______ ____
ROOT
ATOM      1  C   UNL     1      10.086  -1.477  23.817  0.00  0.00    +0.146 C 
ATOM      2  C   UNL     1       8.686  -1.805  24.373  0.00  0.00    +0.147 C 
ATOM      3  C   UNL     1       7.555  -1.617  23.338  0.00  0.00    +0.035 C 
ATOM      4  C   UNL     1       7.658  -0.249  22.631  0.00  0.00    +0.053 C 
ATOM      5  C   UNL     1       9.070   0.187  22.202  0.00  0.00    +0.165 C 
ATOM      6  C   UNL     1      10.143  -0.060  23.269  0.00  0.00    +0.080 C 
ENDROOT
BRANCH   1   7
ATOM      7  O   UNL     1      10.444  -2.394  22.783  0.00  0.00    -0.389 OA
ATOM      8  H   UNL     1       9.856  -2.205  22.024  0.00  0.00    +0.210 HD
ENDBRANCH   1   7
BRANCH   2   9
ATOM      9  O   UNL     1       8.445  -0.941  25.482  0.00  0.00    -0.389 OA
ATOM     10  H   UNL     1       9.164  -1.073  26.126  0.00  0.00    +0.210 HD
ENDBRANCH   2   9
BRANCH   5  11
ATOM     11  C   UNL     1       9.061   1.701  21.865  0.00  0.00    +0.337 C 
ATOM     12  O   UNL     1       8.064   2.408  21.794  0.00  0.00    -0.248 OA
BRANCH  11  13
ATOM     13  O   UNL     1      10.309   2.154  21.602  0.00  0.00    -0.479 OA
ATOM     14  H   UNL     1      10.216   3.050  21.194  0.00  0.00    +0.295 HD
ENDBRANCH  11  13
ENDBRANCH   5  11
BRANCH   5  15
ATOM     15  O   UNL     1       9.412  -0.508  20.983  0.00  0.00    -0.377 OA
ATOM     16  H   UNL     1       9.938  -1.295  21.246  0.00  0.00    +0.211 HD
ENDBRANCH   5  15
BRANCH   3  17
ATOM     17  C   UNL     1       7.377  -2.831  22.377  0.00  0.00    +0.133 C 
BRANCH  17  18
ATOM     18  P   UNL     1       5.728  -3.598  22.586  0.00  0.00    +0.328 P 
ATOM     19  O   UNL     1       4.334  -4.247  22.763  0.00  0.00    -0.259 OA
BRANCH  18  20
ATOM     20  O   UNL     1       6.507  -5.010  22.896  0.00  0.00    -0.324 OA
ATOM     21  H   UNL     1       6.028  -5.709  22.400  0.00  0.00    +0.220 HD
ENDBRANCH  18  20
BRANCH  18  22
ATOM     22  O   UNL     1       5.757  -3.773  20.950  0.00  0.00    -0.324 OA
ATOM     23  H   UNL     1       5.640  -2.918  20.498  0.00  0.00    +0.220 HD
ENDBRANCH  18  22
ENDBRANCH  17  18
ENDBRANCH   3  17
TORSDOF 9
ENDMDL
MODEL 3
REMARK VINA RESULT:      -5.4      3.146      5.895
REMARK  Name = 
REMARK  9 active torsions:
REMARK  status: ('A' for Active; 'I' for Inactive)
REMARK    1  A    between atoms: O_1  and  C_2
REMARK    2  A    between atoms: C_5  and  O_6
REMARK    3  A    between atoms: C_5  and  C_18
REMARK    4  A    between atoms: C_8  and  C_10
REMARK    5  A    between atoms: C_10  and  P_11
REMARK    6  A    between atoms: P_11  and  O_12
REMARK    7  A    between atoms: P_11  and  O_13
REMARK    8  A    between atoms: C_15  and  O_17
REMARK    9  A    between atoms: C_18  and  O_19
REMARK                            x       y       z     vdW  Elec       q    Type
REMARK                         _______ _______ _______ _____ _____    ______ ____
ROOT
ATOM      1  C   UNL     1       7.978   0.471  25.177  0.00  0.00    +0.146 C 
ATOM      2  C   UNL     1       7.609  -0.612  24.144  0.00  0.00    +0.147 C 
ATOM      3  C   UNL     1       8.822  -1.138  23.346  0.00  0.00    +0.035 C 
ATOM      4  C   UNL     1       9.673   0.019  22.782  0.00  0.00    +0.053 C 
ATOM      5  C   UNL     1       9.930   1.198  23.737  0.00  0.00    +0.165 C 
ATOM      6  C   UNL     1       8.687   1.643  24.517  0.00  0.00    +0.080 C 
ENDROOT
BRANCH   1   7
ATOM      7  O   UNL     1       8.819  -0.072  26.195  0.00  0.00    -0.389 OA
ATOM      8  H   UNL     1       8.334   0.020  27.039  0.00  0.00    +0.210 HD
ENDBRANCH   1   7
BRANCH   2   9
ATOM      9  O   UNL     1       6.669  -0.043  23.234  0.00  0.00    -0.389 OA
ATOM     10  H   UNL     1       5.869   0.190  23.737  0.00  0.00    +0.210 HD
ENDBRANCH   2   9
BRANCH   5  11
ATOM     11  C   UNL     1      10.454   2.412  22.927  0.00  0.00    +0.337 C 
ATOM     12  O   UNL     1      10.999   3.401  23.399  0.00  0.00    -0.248 OA
BRANCH  11  13
ATOM     13  O   UNL     1      10.187   2.273  21.607  0.00  0.00    -0.479 OA
ATOM     14  H   UNL     1       9.824   1.362  21.475  0.00  0.00    +0.295 HD
ENDBRANCH  11  13
ENDBRANCH   5  11
BRANCH   5  15
ATOM     15  O   UNL     1      10.982   0.823  24.653  0.00  0.00    -0.377 OA
ATOM     16  H   UNL     1      11.500   0.114  24.212  0.00  0.00    +0.211 HD
ENDBRANCH   5  15
BRANCH   3  17
ATOM     17  C   UNL     1       9.637  -2.236  24.095  0.00  0.00    +0.133 C 
BRANCH  17  18
ATOM     18  P   UNL     1       8.557  -3.623  24.604  0.00  0.00    +0.328 P 
ATOM     19  O   UNL     1       7.644  -4.797  25.036  0.00  0.00    -0.259 OA
BRANCH  18  20
ATOM     20  O   UNL     1       8.713  -3.080  26.146  0.00  0.00    -0.324 OA
ATOM     21  H   UNL     1       7.803  -2.944  26.488  0.00  0.00    +0.220 HD
ENDBRANCH  18  20
BRANCH  18  22
ATOM     22  O   UNL     1       9.943  -4.510  24.624  0.00  0.00    -0.324 OA
ATOM     23  H   UNL     1      10.534  -4.232  25.346  0.00  0.00    +0.220 HD
ENDBRANCH  18  22
ENDBRANCH  17  18
ENDBRANCH   3  17
TORSDOF 9
ENDMDL
MODEL 4
REMARK VINA RESULT:      -5.4      4.332      6.427
REMARK  Name = 
REMARK  9 active torsions:
REMARK  status: ('A' for Active; 'I' for Inactive)
REMARK    1  A    between atoms: O_1  and  C_2
REMARK    2  A    between atoms: C_5  and  O_6
REMARK    3  A    between atoms: C_5  and  C_18
REMARK    4  A    between atoms: C_8  and  C_10
REMARK    5  A    between atoms: C_10  and  P_11
REMARK    6  A    between atoms: P_11  and  O_12
REMARK    7  A    between atoms: P_11  and  O_13
REMARK    8  A    between atoms: C_15  and  O_17
REMARK    9  A    between atoms: C_18  and  O_19
REMARK                            x       y       z     vdW  Elec       q    Type
REMARK                         _______ _______ _______ _____ _____    ______ ____
ROOT
ATOM      1  C   UNL     1      10.017   1.972  24.049  0.00  0.00    +0.146 C 
ATOM      2  C   UNL     1       9.592   2.606  22.710  0.00  0.00    +0.147 C 
ATOM      3  C   UNL     1       8.481   1.817  21.983  0.00  0.00    +0.035 C 
ATOM      4  C   UNL     1       8.818   0.313  21.900  0.00  0.00    +0.053 C 
ATOM      5  C   UNL     1       9.398  -0.323  23.176  0.00  0.00    +0.165 C 
ATOM      6  C   UNL     1      10.471   0.534  23.858  0.00  0.00    +0.080 C 
ENDROOT
BRANCH   1   7
ATOM      7  O   UNL     1       8.939   2.003  24.984  0.00  0.00    -0.389 OA
ATOM      8  H   UNL     1       8.358   1.246  24.768  0.00  0.00    +0.210 HD
ENDBRANCH   1   7
BRANCH   2   9
ATOM      9  O   UNL     1      10.744   2.662  21.870  0.00  0.00    -0.389 OA
ATOM     10  H   UNL     1      11.163   1.783  21.879  0.00  0.00    +0.210 HD
ENDBRANCH   2   9
BRANCH   5  11
ATOM     11  C   UNL     1      10.025  -1.698  22.827  0.00  0.00    +0.337 C 
ATOM     12  O   UNL     1      10.223  -2.610  23.618  0.00  0.00    -0.248 OA
BRANCH  11  13
ATOM     13  O   UNL     1      10.384  -1.757  21.523  0.00  0.00    -0.479 OA
ATOM     14  H   UNL     1      11.035  -1.029  21.365  0.00  0.00    +0.295 HD
ENDBRANCH  11  13
ENDBRANCH   5  11
BRANCH   5  15
ATOM     15  O   UNL     1       8.312  -0.580  24.092  0.00  0.00    -0.377 OA
ATOM     16  H   UNL     1       8.684  -1.112  24.829  0.00  0.00    +0.211 HD
ENDBRANCH   5  15
BRANCH   3  17
ATOM     17  C   UNL     1       7.045   2.131  22.502  0.00  0.00    +0.133 C 
BRANCH  17  18
ATOM     18  P   UNL     1       6.754   3.936  22.576  0.00  0.00    +0.328 P 
ATOM     19  O   UNL     1       6.506   5.463  22.639  0.00  0.00    -0.259 OA
BRANCH  18  20
ATOM     20  O   UNL     1       6.466   3.748  24.181  0.00  0.00    -0.324 OA
ATOM     21  H   UNL     1       5.509   3.919  24.316  0.00  0.00    +0.220 HD
ENDBRANCH  18  20
BRANCH  18  22
ATOM     22  O   UNL     1       5.220   3.565  22.110  0.00  0.00    -0.324 OA
ATOM     23  H   UNL     1       4.846   2.847  22.651  0.00  0.00    +0.220 HD
ENDBRANCH  18  22
ENDBRANCH  17  18
ENDBRANCH   3  17
TORSDOF 9
ENDMDL
MODEL 5
REMARK VINA RESULT:      -5.3      1.554      3.604
REMARK  Name = 
REMARK  9 active torsions:
REMARK  status: ('A' for Active; 'I' for Inactive)
REMARK    1  A    between atoms: O_1  and  C_2
REMARK    2  A    between atoms: C_5  and  O_6
REMARK    3  A    between atoms: C_5  and  C_18
REMARK    4  A    between atoms: C_8  and  C_10
REMARK    5  A    between atoms: C_10  and  P_11
REMARK    6  A    between atoms: P_11  and  O_12
REMARK    7  A    between atoms: P_11  and  O_13
REMARK    8  A    between atoms: C_15  and  O_17
REMARK    9  A    between atoms: C_18  and  O_19
REMARK                            x       y       z     vdW  Elec       q    Type
REMARK                         _______ _______ _______ _____ _____    ______ ____
ROOT
ATOM      1  C   UNL     1       6.296  -4.509  26.228  0.00  0.00    +0.146 C 
ATOM      2  C   UNL     1       7.817  -4.569  26.478  0.00  0.00    +0.147 C 
ATOM      3  C   UNL     1       8.656  -4.131  25.258  0.00  0.00    +0.035 C 
ATOM      4  C   UNL     1       8.192  -4.839  23.968  0.00  0.00    +0.053 C 
ATOM      5  C   UNL     1       6.670  -4.941  23.761  0.00  0.00    +0.165 C 
ATOM      6  C   UNL     1       5.902  -5.350  25.024  0.00  0.00    +0.080 C 
ENDROOT
BRANCH   1   7
ATOM      7  O   UNL     1       5.875  -3.162  26.017  0.00  0.00    -0.389 OA
ATOM      8  H   UNL     1       6.109  -2.935  25.096  0.00  0.00    +0.210 HD
ENDBRANCH   1   7
BRANCH   2   9
ATOM      9  O   UNL     1       8.150  -5.916  26.808  0.00  0.00    -0.389 OA
ATOM     10  H   UNL     1       7.467  -6.496  26.426  0.00  0.00    +0.210 HD
ENDBRANCH   2   9
BRANCH   5  11
ATOM     11  C   UNL     1       6.369  -5.983  22.653  0.00  0.00    +0.337 C 
ATOM     12  O   UNL     1       7.002  -6.120  21.614  0.00  0.00    -0.248 OA
BRANCH  11  13
ATOM     13  O   UNL     1       5.266  -6.711  22.949  0.00  0.00    -0.479 OA
ATOM     14  H   UNL     1       4.543  -6.405  22.346  0.00  0.00    +0.295 HD
ENDBRANCH  11  13
ENDBRANCH   5  11
BRANCH   5  15
ATOM     15  O   UNL     1       6.189  -3.668  23.278  0.00  0.00    -0.377 OA
ATOM     16  H   UNL     1       5.998  -3.783  22.321  0.00  0.00    +0.211 HD
ENDBRANCH   5  15
BRANCH   3  17
ATOM     17  C   UNL     1       8.814  -2.586  25.127  0.00  0.00    +0.133 C 
BRANCH  17  18
ATOM     18  P   UNL     1       9.706  -2.143  23.592  0.00  0.00    +0.328 P 
ATOM     19  O   UNL     1      10.462  -1.768  22.293  0.00  0.00    -0.259 OA
BRANCH  18  20
ATOM     20  O   UNL     1      10.212  -0.787  24.366  0.00  0.00    -0.324 OA
ATOM     21  H   UNL     1       9.474  -0.142  24.314  0.00  0.00    +0.220 HD
ENDBRANCH  18  20
BRANCH  18  22
ATOM     22  O   UNL     1       8.269  -1.505  23.107  0.00  0.00    -0.324 OA
ATOM     23  H   UNL     1       8.044  -1.782  22.201  0.00  0.00    +0.220 HD
ENDBRANCH  18  22
ENDBRANCH  17  18
ENDBRANCH   3  17
TORSDOF 9
ENDMDL
MODEL 6
REMARK VINA RESULT:      -5.2      4.060      6.694
REMARK  Name = 
REMARK  9 active torsions:
REMARK  status: ('A' for Active; 'I' for Inactive)
REMARK    1  A    between atoms: O_1  and  C_2
REMARK    2  A    between atoms: C_5  and  O_6
REMARK    3  A    between atoms: C_5  and  C_18
REMARK    4  A    between atoms: C_8  and  C_10
REMARK    5  A    between atoms: C_10  and  P_11
REMARK    6  A    between atoms: P_11  and  O_12
REMARK    7  A    between atoms: P_11  and  O_13
REMARK    8  A    between atoms: C_15  and  O_17
REMARK    9  A    between atoms: C_18  and  O_19
REMARK                            x       y       z     vdW  Elec       q    Type
REMARK                         _______ _______ _______ _____ _____    ______ ____
ROOT
ATOM      1  C   UNL     1      10.026   1.637  24.259  0.00  0.00    +0.146 C 
ATOM      2  C   UNL     1       8.970   0.631  24.757  0.00  0.00    +0.147 C 
ATOM      3  C   UNL     1       7.873   0.327  23.714  0.00  0.00    +0.035 C 
ATOM      4  C   UNL     1       7.288   1.622  23.113  0.00  0.00    +0.053 C 
ATOM      5  C   UNL     1       8.305   2.719  22.750  0.00  0.00    +0.165 C 
ATOM      6  C   UNL     1       9.380   2.941  23.820  0.00  0.00    +0.080 C 
ENDROOT
BRANCH   1   7
ATOM      7  O   UNL     1      10.766   1.090  23.168  0.00  0.00    -0.389 OA
ATOM      8  H   UNL     1      10.200   1.172  22.375  0.00  0.00    +0.210 HD
ENDBRANCH   1   7
BRANCH   2   9
ATOM      9  O   UNL     1       8.358   1.183  25.922  0.00  0.00    -0.389 OA
ATOM     10  H   UNL     1       9.063   1.380  26.565  0.00  0.00    +0.210 HD
ENDBRANCH   2   9
BRANCH   5  11
ATOM     11  C   UNL     1       7.558   4.060  22.527  0.00  0.00    +0.337 C 
ATOM     12  O   UNL     1       7.907   5.149  22.963  0.00  0.00    -0.248 OA
BRANCH  11  13
ATOM     13  O   UNL     1       6.418   3.876  21.820  0.00  0.00    -0.479 OA
ATOM     14  H   UNL     1       6.268   2.900  21.755  0.00  0.00    +0.295 HD
ENDBRANCH  11  13
ENDBRANCH   5  11
BRANCH   5  15
ATOM     15  O   UNL     1       8.921   2.371  21.491  0.00  0.00    -0.377 OA
ATOM     16  H   UNL     1       9.367   1.506  21.625  0.00  0.00    +0.211 HD
ENDBRANCH   5  15
BRANCH   3  17
ATOM     17  C   UNL     1       8.289  -0.745  22.661  0.00  0.00    +0.133 C 
BRANCH  17  18
ATOM     18  P   UNL     1       9.198  -2.123  23.449  0.00  0.00    +0.328 P 
ATOM     19  O   UNL     1       9.968  -3.290  24.116  0.00  0.00    -0.259 OA
BRANCH  18  20
ATOM     20  O   UNL     1      10.403  -1.848  22.368  0.00  0.00    -0.324 OA
ATOM     21  H   UNL     1      10.080  -2.173  21.500  0.00  0.00    +0.220 HD
ENDBRANCH  18  20
BRANCH  18  22
ATOM     22  O   UNL     1       8.322  -3.090  22.446  0.00  0.00    -0.324 OA
ATOM     23  H   UNL     1       8.099  -3.936  22.873  0.00  0.00    +0.220 HD
ENDBRANCH  18  22
ENDBRANCH  17  18
ENDBRANCH   3  17
TORSDOF 9
ENDMDL
MODEL 7
REMARK VINA RESULT:      -5.2      4.349      6.150
REMARK  Name = 
REMARK  9 active torsions:
REMARK  status: ('A' for Active; 'I' for Inactive)
REMARK    1  A    between atoms: O_1  and  C_2
REMARK    2  A    between atoms: C_5  and  O_6
REMARK    3  A    between atoms: C_5  and  C_18
REMARK    4  A    between atoms: C_8  and  C_10
REMARK    5  A    between atoms: C_10  and  P_11
REMARK    6  A    between atoms: P_11  and  O_12
REMARK    7  A    between atoms: P_11  and  O_13
REMARK    8  A    between atoms: C_15  and  O_17
REMARK    9  A    between atoms: C_18  and  O_19
REMARK                            x       y       z     vdW  Elec       q    Type
REMARK                         _______ _______ _______ _____ _____    ______ ____
ROOT
ATOM      1  C   UNL     1       7.553   1.249  23.787  0.00  0.00    +0.146 C 
ATOM      2  C   UNL     1       8.470   1.962  24.801  0.00  0.00    +0.147 C 
ATOM      3  C   UNL     1       9.932   2.092  24.319  0.00  0.00    +0.035 C 
ATOM      4  C   UNL     1      10.479   0.746  23.800  0.00  0.00    +0.053 C 
ATOM      5  C   UNL     1       9.526  -0.073  22.910  0.00  0.00    +0.165 C 
ATOM      6  C   UNL     1       8.088  -0.131  23.437  0.00  0.00    +0.080 C 
ENDROOT
BRANCH   1   7
ATOM      7  O   UNL     1       7.429   2.020  22.593  0.00  0.00    -0.389 OA
ATOM      8  H   UNL     1       8.275   1.932  22.111  0.00  0.00    +0.210 HD
ENDBRANCH   1   7
BRANCH   2   9
ATOM      9  O   UNL     1       8.449   1.209  26.012  0.00  0.00    -0.389 OA
ATOM     10  H   UNL     1       8.797   0.320  25.818  0.00  0.00    +0.210 HD
ENDBRANCH   2   9
BRANCH   5  11
ATOM     11  C   UNL     1      10.057  -1.526  22.790  0.00  0.00    +0.337 C 
ATOM     12  O   UNL     1      10.120  -2.338  23.704  0.00  0.00    -0.248 OA
BRANCH  11  13
ATOM     13  O   UNL     1      10.501  -1.785  21.538  0.00  0.00    -0.479 OA
ATOM     14  H   UNL     1       9.821  -2.352  21.097  0.00  0.00    +0.295 HD
ENDBRANCH  11  13
ENDBRANCH   5  11
BRANCH   5  15
ATOM     15  O   UNL     1       9.547   0.489  21.581  0.00  0.00    -0.377 OA
ATOM     16  H   UNL     1      10.329   0.108  21.124  0.00  0.00    +0.211 HD
ENDBRANCH   5  15
BRANCH   3  17
ATOM     17  C   UNL     1      10.173   3.301  23.364  0.00  0.00    +0.133 C 
BRANCH  17  18
ATOM     18  P   UNL     1       9.373   4.816  24.007  0.00  0.00    +0.328 P 
ATOM     19  O   UNL     1       8.696   6.098  24.550  0.00  0.00    -0.259 OA
BRANCH  18  20
ATOM     20  O   UNL     1       8.410   4.782  22.677  0.00  0.00    -0.324 OA
ATOM     21  H   UNL     1       8.802   4.122  22.065  0.00  0.00    +0.220 HD
ENDBRANCH  18  20
BRANCH  18  22
ATOM     22  O   UNL     1      10.609   5.613  23.270  0.00  0.00    -0.324 OA
ATOM     23  H   UNL     1      11.220   4.994  22.831  0.00  0.00    +0.220 HD
ENDBRANCH  18  22
ENDBRANCH  17  18
ENDBRANCH   3  17
TORSDOF 9
ENDMDL
MODEL 8
REMARK VINA RESULT:      -5.1      4.169      5.888
REMARK  Name = 
REMARK  9 active torsions:
REMARK  status: ('A' for Active; 'I' for Inactive)
REMARK    1  A    between atoms: O_1  and  C_2
REMARK    2  A    between atoms: C_5  and  O_6
REMARK    3  A    between atoms: C_5  and  C_18
REMARK    4  A    between atoms: C_8  and  C_10
REMARK    5  A    between atoms: C_10  and  P_11
REMARK    6  A    between atoms: P_11  and  O_12
REMARK    7  A    between atoms: P_11  and  O_13
REMARK    8  A    between atoms: C_15  and  O_17
REMARK    9  A    between atoms: C_18  and  O_19
REMARK                            x       y       z     vdW  Elec       q    Type
REMARK                         _______ _______ _______ _____ _____    ______ ____
ROOT
ATOM      1  C   UNL     1       8.731   1.361  21.590  0.00  0.00    +0.146 C 
ATOM      2  C   UNL     1       7.645   1.859  22.565  0.00  0.00    +0.147 C 
ATOM      3  C   UNL     1       8.061   1.759  24.049  0.00  0.00    +0.035 C 
ATOM      4  C   UNL     1       8.632   0.365  24.384  0.00  0.00    +0.053 C 
ATOM      5  C   UNL     1       9.601  -0.237  23.351  0.00  0.00    +0.165 C 
ATOM      6  C   UNL     1       9.135  -0.071  21.900  0.00  0.00    +0.080 C 
ENDROOT
BRANCH   1   7
ATOM      7  O   UNL     1       9.885   2.198  21.655  0.00  0.00    -0.389 OA
ATOM      8  H   UNL     1       9.649   3.039  21.214  0.00  0.00    +0.210 HD
ENDBRANCH   1   7
BRANCH   2   9
ATOM      9  O   UNL     1       6.478   1.064  22.359  0.00  0.00    -0.389 OA
ATOM     10  H   UNL     1       6.205   1.170  21.430  0.00  0.00    +0.210 HD
ENDBRANCH   2   9
BRANCH   5  11
ATOM     11  C   UNL     1       9.779  -1.752  23.633  0.00  0.00    +0.337 C 
ATOM     12  O   UNL     1       9.288  -2.363  24.573  0.00  0.00    -0.248 OA
BRANCH  11  13
ATOM     13  O   UNL     1      10.604  -2.326  22.726  0.00  0.00    -0.479 OA
ATOM     14  H   UNL     1      11.532  -2.130  23.008  0.00  0.00    +0.295 HD
ENDBRANCH  11  13
ENDBRANCH   5  11
BRANCH   5  15
ATOM     15  O   UNL     1      10.896   0.376  23.529  0.00  0.00    -0.377 OA
ATOM     16  H   UNL     1      11.563  -0.280  23.227  0.00  0.00    +0.211 HD
ENDBRANCH   5  15
BRANCH   3  17
ATOM     17  C   UNL     1       8.939   2.952  24.536  0.00  0.00    +0.133 C 
BRANCH  17  18
ATOM     18  P   UNL     1       8.228   4.552  24.003  0.00  0.00    +0.328 P 
ATOM     19  O   UNL     1       7.626   5.906  23.553  0.00  0.00    -0.259 OA
BRANCH  18  20
ATOM     20  O   UNL     1       9.601   4.788  23.135  0.00  0.00    -0.324 OA
ATOM     21  H   UNL     1      10.334   4.395  23.657  0.00  0.00    +0.220 HD
ENDBRANCH  18  20
BRANCH  18  22
ATOM     22  O   UNL     1       8.846   5.135  25.412  0.00  0.00    -0.324 OA
ATOM     23  H   UNL     1       9.681   5.613  25.265  0.00  0.00    +0.220 HD
ENDBRANCH  18  22
ENDBRANCH  17  18
ENDBRANCH   3  17
TORSDOF 9
ENDMDL
MODEL 9
REMARK VINA RESULT:      -5.1      2.056      5.106
REMARK  Name = 
REMARK  9 active torsions:
REMARK  status: ('A' for Active; 'I' for Inactive)
REMARK    1  A    between atoms: O_1  and  C_2
REMARK    2  A    between atoms: C_5  and  O_6
REMARK    3  A    between atoms: C_5  and  C_18
REMARK    4  A    between atoms: C_8  and  C_10
REMARK    5  A    between atoms: C_10  and  P_11
REMARK    6  A    between atoms: P_11  and  O_12
REMARK    7  A    between atoms: P_11  and  O_13
REMARK    8  A    between atoms: C_15  and  O_17
REMARK    9  A    between atoms: C_18  and  O_19
REMARK                            x       y       z     vdW  Elec       q    Type
REMARK                         _______ _______ _______ _____ _____    ______ ____
ROOT
ATOM      1  C   UNL     1       6.655  -2.994  23.227  0.00  0.00    +0.146 C 
ATOM      2  C   UNL     1       7.241  -4.361  23.633  0.00  0.00    +0.147 C 
ATOM      3  C   UNL     1       8.410  -4.252  24.637  0.00  0.00    +0.035 C 
ATOM      4  C   UNL     1       9.458  -3.219  24.176  0.00  0.00    +0.053 C 
ATOM      5  C   UNL     1       8.904  -1.898  23.612  0.00  0.00    +0.165 C 
ATOM      6  C   UNL     1       7.727  -2.085  22.648  0.00  0.00    +0.080 C 
ENDROOT
BRANCH   1   7
ATOM      7  O   UNL     1       6.052  -2.352  24.350  0.00  0.00    -0.389 OA
ATOM      8  H   UNL     1       5.274  -1.865  24.012  0.00  0.00    +0.210 HD
ENDBRANCH   1   7
BRANCH   2   9
ATOM      9  O   UNL     1       7.709  -5.003  22.448  0.00  0.00    -0.389 OA
ATOM     10  H   UNL     1       8.581  -5.391  22.643  0.00  0.00    +0.210 HD
ENDBRANCH   2   9
BRANCH   5  11
ATOM     11  C   UNL     1      10.033  -1.146  22.859  0.00  0.00    +0.337 C 
ATOM     12  O   UNL     1      10.658  -0.186  23.289  0.00  0.00    -0.248 OA
BRANCH  11  13
ATOM     13  O   UNL     1      10.217  -1.653  21.618  0.00  0.00    -0.479 OA
ATOM     14  H   UNL     1      10.026  -2.623  21.666  0.00  0.00    +0.295 HD
ENDBRANCH  11  13
ENDBRANCH   5  11
BRANCH   5  15
ATOM     15  O   UNL     1       8.511  -1.058  24.719  0.00  0.00    -0.377 OA
ATOM     16  H   UNL     1       7.801  -0.466  24.387  0.00  0.00    +0.211 HD
ENDBRANCH   5  15
BRANCH   3  17
ATOM     17  C   UNL     1       7.951  -4.093  26.119  0.00  0.00    +0.133 C 
BRANCH  17  18
ATOM     18  P   UNL     1       6.739  -5.386  26.575  0.00  0.00    +0.328 P 
ATOM     19  O   UNL     1       5.714  -6.480  26.961  0.00  0.00    -0.259 OA
BRANCH  18  20
ATOM     20  O   UNL     1       6.100  -4.306  27.634  0.00  0.00    -0.324 OA
ATOM     21  H   UNL     1       6.328  -3.414  27.297  0.00  0.00    +0.220 HD
ENDBRANCH  18  20
BRANCH  18  22
ATOM     22  O   UNL     1       7.908  -5.921  27.602  0.00  0.00    -0.324 OA
ATOM     23  H   UNL     1       7.909  -6.893  27.666  0.00  0.00    +0.220 HD
ENDBRANCH  18  22
ENDBRANCH  17  18
ENDBRANCH   3  17
TORSDOF 9
ENDMDL
