MODEL 1
REMARK VINA RESULT:      -6.9      0.000      0.000
REMARK  Name = 
REMARK  10 active torsions:
REMARK  status: ('A' for Active; 'I' for Inactive)
REMARK    1  A    between atoms: C_2  and  C_3
REMARK    2  A    between atoms: C_3  and  C_4
REMARK    3  A    between atoms: N_10  and  C_11
REMARK    4  A    between atoms: C_11  and  C_12
REMARK    5  A    between atoms: N_16  and  C_17
REMARK    6  A    between atoms: C_17  and  C_18
REMARK    7  A    between atoms: C_20  and  C_22
REMARK    8  A    between atoms: C_22  and  C_23
REMARK    9  A    between atoms: C_29  and  O_31
REMARK   10  A    between atoms: C_32  and  O_34
REMARK                            x       y       z     vdW  Elec       q    Type
REMARK                         _______ _______ _______ _____ _____    ______ ____
ROOT
ATOM      1  C   UNL     1       8.997  -0.923  24.404  0.00  0.00    +0.113 C 
ATOM      2  C   UNL     1       9.025  -2.296  25.148  0.00  0.00    +0.165 C 
ATOM      3  C   UNL     1       7.610  -2.748  25.596  0.00  0.00    +0.165 C 
ATOM      4  C   UNL     1       6.761  -3.429  24.460  0.00  0.00    +0.113 C 
ATOM      5  N   UNL     1       7.128  -2.911  23.108  0.00  0.00    -0.276 N 
ATOM      6  C   UNL     1       7.140  -1.514  22.989  0.00  0.00    +0.306 C 
ATOM      7  O   UNL     1       6.139  -0.824  23.128  0.00  0.00    -0.252 OA
ATOM      8  N   UNL     1       8.450  -1.023  23.029  0.00  0.00    -0.276 N 
ENDROOT
BRANCH   2   9
ATOM      9  O   UNL     1       9.682  -3.292  24.368  0.00  0.00    -0.387 OA
ATOM     10  H   UNL     1      10.184  -2.796  23.692  0.00  0.00    +0.210 HD
ENDBRANCH   2   9
BRANCH   3  11
ATOM     11  O   UNL     1       6.981  -1.623  26.221  0.00  0.00    -0.387 OA
ATOM     12  H   UNL     1       6.917  -1.779  27.176  0.00  0.00    +0.210 HD
ENDBRANCH   3  11
BRANCH   1  13
ATOM     13  C   UNL     1      10.353  -0.191  24.579  0.00  0.00    +0.060 C 
BRANCH  13  14
ATOM     14  C   UNL     1      10.216   1.306  24.423  0.00  0.00    -0.046 A 
ATOM     15  C   UNL     1      11.194   2.032  23.735  0.00  0.00    +0.004 A 
ATOM     16  C   UNL     1      10.957   3.357  23.377  0.00  0.00    +0.000 A 
ATOM     17  C   UNL     1       9.755   3.971  23.728  0.00  0.00    +0.000 A 
ATOM     18  C   UNL     1       8.818   3.283  24.497  0.00  0.00    +0.000 A 
ATOM     19  C   UNL     1       9.057   1.961  24.860  0.00  0.00    +0.004 A 
ENDBRANCH  13  14
ENDBRANCH   1  13
BRANCH   4  20
ATOM     20  C   UNL     1       5.235  -3.446  24.770  0.00  0.00    +0.060 C 
BRANCH  20  21
ATOM     21  C   UNL     1       4.547  -4.784  24.526  0.00  0.00    -0.046 A 
ATOM     22  C   UNL     1       4.900  -5.929  25.255  0.00  0.00    +0.004 A 
ATOM     23  C   UNL     1       4.236  -7.142  25.048  0.00  0.00    +0.000 A 
ATOM     24  C   UNL     1       3.211  -7.232  24.108  0.00  0.00    +0.000 A 
ATOM     25  C   UNL     1       2.862  -6.111  23.361  0.00  0.00    +0.000 A 
ATOM     26  C   UNL     1       3.532  -4.899  23.558  0.00  0.00    +0.004 A 
ENDBRANCH  20  21
ENDBRANCH   4  20
BRANCH   5  27
ATOM     27  C   UNL     1       6.636  -3.589  21.919  0.00  0.00    +0.136 C 
BRANCH  27  28
ATOM     28  C   UNL     1       7.157  -4.992  21.863  0.00  0.00    -0.016 C 
ATOM     29  C   UNL     1       6.423  -6.048  21.494  0.00  0.00    +0.005 C 
ENDBRANCH  27  28
ENDBRANCH   5  27
BRANCH   8  30
ATOM     30  C   UNL     1       9.316  -1.267  21.878  0.00  0.00    +0.136 C 
BRANCH  30  31
ATOM     31  C   UNL     1       9.437   0.022  21.110  0.00  0.00    -0.016 C 
ATOM     32  C   UNL     1       8.648   1.098  21.239  0.00  0.00    +0.005 C 
ENDBRANCH  30  31
ENDBRANCH   8  30
TORSDOF 10
ENDMDL
MODEL 2
REMARK VINA RESULT:      -6.5      2.334      3.597
REMARK  Name = 
REMARK  10 active torsions:
REMARK  status: ('A' for Active; 'I' for Inactive)
REMARK    1  A    between atoms: C_2  and  C_3
REMARK    2  A    between atoms: C_3  and  C_4
REMARK    3  A    between atoms: N_10  and  C_11
REMARK    4  A    between atoms: C_11  and  C_12
REMARK    5  A    between atoms: N_16  and  C_17
REMARK    6  A    between atoms: C_17  and  C_18
REMARK    7  A    between atoms: C_20  and  C_22
REMARK    8  A    between atoms: C_22  and  C_23
REMARK    9  A    between atoms: C_29  and  O_31
REMARK   10  A    between atoms: C_32  and  O_34
REMARK                            x       y       z     vdW  Elec       q    Type
REMARK                         _______ _______ _______ _____ _____    ______ ____
ROOT
ATOM      1  C   UNL     1       9.615   1.779  23.527  0.00  0.00    +0.113 C 
ATOM      2  C   UNL     1      10.258   0.358  23.437  0.00  0.00    +0.165 C 
ATOM      3  C   UNL     1      10.032  -0.470  24.730  0.00  0.00    +0.165 C 
ATOM      4  C   UNL     1       8.621  -1.162  24.814  0.00  0.00    +0.113 C 
ATOM      5  N   UNL     1       7.580  -0.384  24.077  0.00  0.00    -0.276 N 
ATOM      6  C   UNL     1       7.516   0.979  24.397  0.00  0.00    +0.306 C 
ATOM      7  O   UNL     1       7.224   1.390  25.512  0.00  0.00    -0.252 OA
ATOM      8  N   UNL     1       8.137   1.750  23.408  0.00  0.00    -0.276 N 
ENDROOT
BRANCH   2   9
ATOM      9  O   UNL     1       9.815  -0.336  22.273  0.00  0.00    -0.387 OA
ATOM     10  H   UNL     1      10.415  -0.046  21.559  0.00  0.00    +0.210 HD
ENDBRANCH   2   9
BRANCH   3  11
ATOM     11  O   UNL     1      10.352   0.376  25.840  0.00  0.00    -0.387 OA
ATOM     12  H   UNL     1      10.407  -0.158  26.647  0.00  0.00    +0.210 HD
ENDBRANCH   3  11
BRANCH   1  13
ATOM     13  C   UNL     1      10.384   2.773  22.619  0.00  0.00    +0.060 C 
BRANCH  13  14
ATOM     14  C   UNL     1      10.846   3.996  23.378  0.00  0.00    -0.046 A 
ATOM     15  C   UNL     1      12.178   4.412  23.294  0.00  0.00    +0.004 A 
ATOM     16  C   UNL     1      12.552   5.661  23.785  0.00  0.00    +0.000 A 
ATOM     17  C   UNL     1      11.603   6.488  24.386  0.00  0.00    +0.000 A 
ATOM     18  C   UNL     1      10.296   6.039  24.559  0.00  0.00    +0.000 A 
ATOM     19  C   UNL     1       9.922   4.789  24.075  0.00  0.00    +0.004 A 
ENDBRANCH  13  14
ENDBRANCH   1  13
BRANCH   4  20
ATOM     20  C   UNL     1       8.235  -1.577  26.264  0.00  0.00    +0.060 C 
BRANCH  20  21
ATOM     21  C   UNL     1       7.661  -2.984  26.395  0.00  0.00    -0.046 A 
ATOM     22  C   UNL     1       6.374  -3.201  26.907  0.00  0.00    +0.004 A 
ATOM     23  C   UNL     1       5.845  -4.492  26.988  0.00  0.00    +0.000 A 
ATOM     24  C   UNL     1       6.593  -5.588  26.560  0.00  0.00    +0.000 A 
ATOM     25  C   UNL     1       7.880  -5.392  26.069  0.00  0.00    +0.000 A 
ATOM     26  C   UNL     1       8.416  -4.102  25.998  0.00  0.00    +0.004 A 
ENDBRANCH  20  21
ENDBRANCH   4  20
BRANCH   5  27
ATOM     27  C   UNL     1       6.276  -0.982  23.830  0.00  0.00    +0.136 C 
BRANCH  27  28
ATOM     28  C   UNL     1       6.413  -2.198  22.967  0.00  0.00    -0.016 C 
ATOM     29  C   UNL     1       5.674  -3.304  23.111  0.00  0.00    +0.005 C 
ENDBRANCH  27  28
ENDBRANCH   5  27
BRANCH   8  30
ATOM     30  C   UNL     1       7.472   1.881  22.114  0.00  0.00    +0.136 C 
BRANCH  30  31
ATOM     31  C   UNL     1       6.555   3.073  22.185  0.00  0.00    -0.016 C 
ATOM     32  C   UNL     1       6.928   4.362  22.186  0.00  0.00    +0.005 C 
ENDBRANCH  30  31
ENDBRANCH   8  30
TORSDOF 10
ENDMDL
MODEL 3
REMARK VINA RESULT:      -6.5      1.745      3.216
REMARK  Name = 
REMARK  10 active torsions:
REMARK  status: ('A' for Active; 'I' for Inactive)
REMARK    1  A    between atoms: C_2  and  C_3
REMARK    2  A    between atoms: C_3  and  C_4
REMARK    3  A    between atoms: N_10  and  C_11
REMARK    4  A    between atoms: C_11  and  C_12
REMARK    5  A    between atoms: N_16  and  C_17
REMARK    6  A    between atoms: C_17  and  C_18
REMARK    7  A    between atoms: C_20  and  C_22
REMARK    8  A    between atoms: C_22  and  C_23
REMARK    9  A    between atoms: C_29  and  O_31
REMARK   10  A    between atoms: C_32  and  O_34
REMARK                            x       y       z     vdW  Elec       q    Type
REMARK                         _______ _______ _______ _____ _____    ______ ____
ROOT
ATOM      1  C   UNL     1       8.511  -2.328  23.126  0.00  0.00    +0.113 C 
ATOM      2  C   UNL     1       7.824  -3.608  22.552  0.00  0.00    +0.165 C 
ATOM      3  C   UNL     1       7.723  -4.742  23.608  0.00  0.00    +0.165 C 
ATOM      4  C   UNL     1       6.512  -4.590  24.602  0.00  0.00    +0.113 C 
ATOM      5  N   UNL     1       6.149  -3.157  24.817  0.00  0.00    -0.276 N 
ATOM      6  C   UNL     1       7.217  -2.316  25.158  0.00  0.00    +0.306 C 
ATOM      7  O   UNL     1       7.864  -2.445  26.189  0.00  0.00    -0.252 OA
ATOM      8  N   UNL     1       7.634  -1.569  24.051  0.00  0.00    -0.276 N 
ENDROOT
BRANCH   2   9
ATOM      9  O   UNL     1       6.556  -3.299  21.977  0.00  0.00    -0.387 OA
ATOM     10  H   UNL     1       5.898  -3.645  22.609  0.00  0.00    +0.210 HD
ENDBRANCH   2   9
BRANCH   3  11
ATOM     11  O   UNL     1       9.004  -4.855  24.236  0.00  0.00    -0.387 OA
ATOM     12  H   UNL     1       9.338  -5.758  24.127  0.00  0.00    +0.210 HD
ENDBRANCH   3  11
BRANCH   1  13
ATOM     13  C   UNL     1       9.202  -1.535  21.987  0.00  0.00    +0.060 C 
BRANCH  13  14
ATOM     14  C   UNL     1       9.856  -0.269  22.491  0.00  0.00    -0.046 A 
ATOM     15  C   UNL     1       9.711   0.927  21.781  0.00  0.00    +0.004 A 
ATOM     16  C   UNL     1      10.098   2.134  22.359  0.00  0.00    +0.000 A 
ATOM     17  C   UNL     1      10.656   2.149  23.637  0.00  0.00    +0.000 A 
ATOM     18  C   UNL     1      10.892   0.952  24.310  0.00  0.00    +0.000 A 
ATOM     19  C   UNL     1      10.512  -0.255  23.731  0.00  0.00    +0.004 A 
ENDBRANCH  13  14
ENDBRANCH   1  13
BRANCH   4  20
ATOM     20  C   UNL     1       6.686  -5.431  25.901  0.00  0.00    +0.060 C 
BRANCH  20  21
ATOM     21  C   UNL     1       5.389  -5.977  26.488  0.00  0.00    -0.046 A 
ATOM     22  C   UNL     1       5.018  -5.707  27.813  0.00  0.00    +0.004 A 
ATOM     23  C   UNL     1       3.809  -6.182  28.328  0.00  0.00    +0.000 A 
ATOM     24  C   UNL     1       2.951  -6.936  27.530  0.00  0.00    +0.000 A 
ATOM     25  C   UNL     1       3.313  -7.231  26.219  0.00  0.00    +0.000 A 
ATOM     26  C   UNL     1       4.527  -6.766  25.704  0.00  0.00    +0.004 A 
ENDBRANCH  20  21
ENDBRANCH   4  20
BRANCH   5  27
ATOM     27  C   UNL     1       4.909  -2.824  25.501  0.00  0.00    +0.136 C 
BRANCH  27  28
ATOM     28  C   UNL     1       3.734  -3.378  24.755  0.00  0.00    -0.016 C 
ATOM     29  C   UNL     1       2.551  -3.650  25.319  0.00  0.00    +0.005 C 
ENDBRANCH  27  28
ENDBRANCH   5  27
BRANCH   8  30
ATOM     30  C   UNL     1       6.764  -0.498  23.571  0.00  0.00    +0.136 C 
BRANCH  30  31
ATOM     31  C   UNL     1       6.887   0.659  24.527  0.00  0.00    -0.016 C 
ATOM     32  C   UNL     1       6.860   1.960  24.203  0.00  0.00    +0.005 C 
ENDBRANCH  30  31
ENDBRANCH   8  30
TORSDOF 10
ENDMDL
MODEL 4
REMARK VINA RESULT:      -6.3      2.122      8.376
REMARK  Name = 
REMARK  10 active torsions:
REMARK  status: ('A' for Active; 'I' for Inactive)
REMARK    1  A    between atoms: C_2  and  C_3
REMARK    2  A    between atoms: C_3  and  C_4
REMARK    3  A    between atoms: N_10  and  C_11
REMARK    4  A    between atoms: C_11  and  C_12
REMARK    5  A    between atoms: N_16  and  C_17
REMARK    6  A    between atoms: C_17  and  C_18
REMARK    7  A    between atoms: C_20  and  C_22
REMARK    8  A    between atoms: C_22  and  C_23
REMARK    9  A    between atoms: C_29  and  O_31
REMARK   10  A    between atoms: C_32  and  O_34
REMARK                            x       y       z     vdW  Elec       q    Type
REMARK                         _______ _______ _______ _____ _____    ______ ____
ROOT
ATOM      1  C   UNL     1       8.723  -1.290  24.355  0.00  0.00    +0.113 C 
ATOM      2  C   UNL     1       9.836  -0.454  25.065  0.00  0.00    +0.165 C 
ATOM      3  C   UNL     1      10.207   0.824  24.267  0.00  0.00    +0.165 C 
ATOM      4  C   UNL     1       9.221   2.031  24.487  0.00  0.00    +0.113 C 
ATOM      5  N   UNL     1       7.837   1.564  24.800  0.00  0.00    -0.276 N 
ATOM      6  C   UNL     1       7.314   0.613  23.913  0.00  0.00    +0.306 C 
ATOM      7  O   UNL     1       7.110   0.846  22.728  0.00  0.00    -0.252 OA
ATOM      8  N   UNL     1       7.379  -0.671  24.465  0.00  0.00    -0.276 N 
ENDROOT
BRANCH   2   9
ATOM      9  O   UNL     1       9.477  -0.157  26.413  0.00  0.00    -0.387 OA
ATOM     10  H   UNL     1      10.319   0.052  26.861  0.00  0.00    +0.210 HD
ENDBRANCH   2   9
BRANCH   3  11
ATOM     11  O   UNL     1      10.385   0.436  22.900  0.00  0.00    -0.387 OA
ATOM     12  H   UNL     1       9.833   0.995  22.332  0.00  0.00    +0.210 HD
ENDBRANCH   3  11
BRANCH   1  13
ATOM     13  C   UNL     1       8.851  -2.787  24.738  0.00  0.00    +0.060 C 
BRANCH  13  14
ATOM     14  C   UNL     1       7.983  -3.671  23.873  0.00  0.00    -0.046 A 
ATOM     15  C   UNL     1       7.410  -4.830  24.406  0.00  0.00    +0.004 A 
ATOM     16  C   UNL     1       6.423  -5.511  23.698  0.00  0.00    +0.000 A 
ATOM     17  C   UNL     1       6.023  -5.054  22.442  0.00  0.00    +0.000 A 
ATOM     18  C   UNL     1       6.658  -3.957  21.865  0.00  0.00    +0.000 A 
ATOM     19  C   UNL     1       7.649  -3.280  22.569  0.00  0.00    +0.004 A 
ENDBRANCH  13  14
ENDBRANCH   1  13
BRANCH   4  20
ATOM     20  C   UNL     1       9.319   3.106  23.365  0.00  0.00    +0.060 C 
BRANCH  20  21
ATOM     21  C   UNL     1      10.276   4.255  23.661  0.00  0.00    -0.046 A 
ATOM     22  C   UNL     1       9.846   5.404  24.340  0.00  0.00    +0.004 A 
ATOM     23  C   UNL     1      10.741   6.435  24.639  0.00  0.00    +0.000 A 
ATOM     24  C   UNL     1      12.080   6.336  24.265  0.00  0.00    +0.000 A 
ATOM     25  C   UNL     1      12.519   5.212  23.572  0.00  0.00    +0.000 A 
ATOM     26  C   UNL     1      11.623   4.184  23.262  0.00  0.00    +0.004 A 
ENDBRANCH  20  21
ENDBRANCH   4  20
BRANCH   5  27
ATOM     27  C   UNL     1       6.846   2.517  25.276  0.00  0.00    +0.136 C 
BRANCH  27  28
ATOM     28  C   UNL     1       7.279   3.113  26.581  0.00  0.00    -0.016 C 
ATOM     29  C   UNL     1       7.284   4.426  26.838  0.00  0.00    +0.005 C 
ENDBRANCH  27  28
ENDBRANCH   5  27
BRANCH   8  30
ATOM     30  C   UNL     1       6.476  -0.997  25.565  0.00  0.00    +0.136 C 
BRANCH  30  31
ATOM     31  C   UNL     1       5.221  -1.582  24.974  0.00  0.00    -0.016 C 
ATOM     32  C   UNL     1       4.600  -2.700  25.378  0.00  0.00    +0.005 C 
ENDBRANCH  30  31
ENDBRANCH   8  30
TORSDOF 10
ENDMDL
MODEL 5
REMARK VINA RESULT:      -6.2      1.940      3.596
REMARK  Name = 
REMARK  10 active torsions:
REMARK  status: ('A' for Active; 'I' for Inactive)
REMARK    1  A    between atoms: C_2  and  C_3
REMARK    2  A    between atoms: C_3  and  C_4
REMARK    3  A    between atoms: N_10  and  C_11
REMARK    4  A    between atoms: C_11  and  C_12
REMARK    5  A    between atoms: N_16  and  C_17
REMARK    6  A    between atoms: C_17  and  C_18
REMARK    7  A    between atoms: C_20  and  C_22
REMARK    8  A    between atoms: C_22  and  C_23
REMARK    9  A    between atoms: C_29  and  O_31
REMARK   10  A    between atoms: C_32  and  O_34
REMARK                            x       y       z     vdW  Elec       q    Type
REMARK                         _______ _______ _______ _____ _____    ______ ____
ROOT
ATOM      1  C   UNL     1       7.651   2.129  24.908  0.00  0.00    +0.113 C 
ATOM      2  C   UNL     1       7.183   0.921  25.780  0.00  0.00    +0.165 C 
ATOM      3  C   UNL     1       6.250  -0.041  24.997  0.00  0.00    +0.165 C 
ATOM      4  C   UNL     1       7.009  -1.061  24.069  0.00  0.00    +0.113 C 
ATOM      5  N   UNL     1       8.305  -0.504  23.579  0.00  0.00    -0.276 N 
ATOM      6  C   UNL     1       8.226   0.771  23.003  0.00  0.00    +0.306 C 
ATOM      7  O   UNL     1       7.588   1.005  21.984  0.00  0.00    -0.252 OA
ATOM      8  N   UNL     1       8.670   1.750  23.899  0.00  0.00    -0.276 N 
ENDROOT
BRANCH   2   9
ATOM      9  O   UNL     1       8.295   0.238  26.354  0.00  0.00    -0.387 OA
ATOM     10  H   UNL     1       7.906  -0.394  26.990  0.00  0.00    +0.210 HD
ENDBRANCH   2   9
BRANCH   3  11
ATOM     11  O   UNL     1       5.272   0.763  24.329  0.00  0.00    -0.387 OA
ATOM     12  H   UNL     1       5.213   0.495  23.400  0.00  0.00    +0.210 HD
ENDBRANCH   3  11
BRANCH   1  13
ATOM     13  C   UNL     1       7.960   3.353  25.808  0.00  0.00    +0.060 C 
BRANCH  13  14
ATOM     14  C   UNL     1       8.134   4.621  25.005  0.00  0.00    -0.046 A 
ATOM     15  C   UNL     1       8.980   5.634  25.466  0.00  0.00    +0.004 A 
ATOM     16  C   UNL     1       9.333   6.687  24.625  0.00  0.00    +0.000 A 
ATOM     17  C   UNL     1       8.822   6.746  23.329  0.00  0.00    +0.000 A 
ATOM     18  C   UNL     1       7.903   5.793  22.897  0.00  0.00    +0.000 A 
ATOM     19  C   UNL     1       7.545   4.744  23.738  0.00  0.00    +0.004 A 
ENDBRANCH  13  14
ENDBRANCH   1  13
BRANCH   4  20
ATOM     20  C   UNL     1       6.094  -1.677  22.969  0.00  0.00    +0.060 C 
BRANCH  20  21
ATOM     21  C   UNL     1       6.093  -3.200  22.917  0.00  0.00    -0.046 A 
ATOM     22  C   UNL     1       6.355  -3.888  21.724  0.00  0.00    +0.004 A 
ATOM     23  C   UNL     1       6.387  -5.286  21.696  0.00  0.00    +0.000 A 
ATOM     24  C   UNL     1       6.157  -6.018  22.859  0.00  0.00    +0.000 A 
ATOM     25  C   UNL     1       5.875  -5.351  24.048  0.00  0.00    +0.000 A 
ATOM     26  C   UNL     1       5.831  -3.954  24.076  0.00  0.00    +0.004 A 
ENDBRANCH  20  21
ENDBRANCH   4  20
BRANCH   5  27
ATOM     27  C   UNL     1       9.260  -1.380  22.917  0.00  0.00    +0.136 C 
BRANCH  27  28
ATOM     28  C   UNL     1       9.961  -2.242  23.920  0.00  0.00    -0.016 C 
ATOM     29  C   UNL     1       9.518  -3.442  24.314  0.00  0.00    +0.005 C 
ENDBRANCH  27  28
ENDBRANCH   5  27
BRANCH   8  30
ATOM     30  C   UNL     1      10.099   1.820  24.193  0.00  0.00    +0.136 C 
BRANCH  30  31
ATOM     31  C   UNL     1      10.740   2.706  23.158  0.00  0.00    -0.016 C 
ATOM     32  C   UNL     1      11.455   3.816  23.398  0.00  0.00    +0.005 C 
ENDBRANCH  30  31
ENDBRANCH   8  30
TORSDOF 10
ENDMDL
MODEL 6
REMARK VINA RESULT:      -6.2      1.334      1.725
REMARK  Name = 
REMARK  10 active torsions:
REMARK  status: ('A' for Active; 'I' for Inactive)
REMARK    1  A    between atoms: C_2  and  C_3
REMARK    2  A    between atoms: C_3  and  C_4
REMARK    3  A    between atoms: N_10  and  C_11
REMARK    4  A    between atoms: C_11  and  C_12
REMARK    5  A    between atoms: N_16  and  C_17
REMARK    6  A    between atoms: C_17  and  C_18
REMARK    7  A    between atoms: C_20  and  C_22
REMARK    8  A    between atoms: C_22  and  C_23
REMARK    9  A    between atoms: C_29  and  O_31
REMARK   10  A    between atoms: C_32  and  O_34
REMARK                            x       y       z     vdW  Elec       q    Type
REMARK                         _______ _______ _______ _____ _____    ______ ____
ROOT
ATOM      1  C   UNL     1       7.684  -1.237  25.097  0.00  0.00    +0.113 C 
ATOM      2  C   UNL     1       6.948  -2.076  26.189  0.00  0.00    +0.165 C 
ATOM      3  C   UNL     1       5.549  -2.554  25.717  0.00  0.00    +0.165 C 
ATOM      4  C   UNL     1       5.579  -3.840  24.811  0.00  0.00    +0.113 C 
ATOM      5  N   UNL     1       6.848  -3.936  24.029  0.00  0.00    -0.276 N 
ATOM      6  C   UNL     1       7.197  -2.782  23.314  0.00  0.00    +0.306 C 
ATOM      7  O   UNL     1       6.515  -2.329  22.404  0.00  0.00    -0.252 OA
ATOM      8  N   UNL     1       8.199  -2.068  23.981  0.00  0.00    -0.276 N 
ENDROOT
BRANCH   2   9
ATOM      9  O   UNL     1       7.759  -3.159  26.641  0.00  0.00    -0.387 OA
ATOM     10  H   UNL     1       8.677  -2.833  26.578  0.00  0.00    +0.210 HD
ENDBRANCH   2   9
BRANCH   3  11
ATOM     11  O   UNL     1       4.887  -1.425  25.135  0.00  0.00    -0.387 OA
ATOM     12  H   UNL     1       4.251  -1.732  24.471  0.00  0.00    +0.210 HD
ENDBRANCH   3  11
BRANCH   1  13
ATOM     13  C   UNL     1       8.673  -0.244  25.760  0.00  0.00    +0.060 C 
BRANCH  13  14
ATOM     14  C   UNL     1       8.970   0.942  24.871  0.00  0.00    -0.046 A 
ATOM     15  C   UNL     1      10.293   1.316  24.619  0.00  0.00    +0.004 A 
ATOM     16  C   UNL     1      10.579   2.243  23.618  0.00  0.00    +0.000 A 
ATOM     17  C   UNL     1       9.542   2.820  22.885  0.00  0.00    +0.000 A 
ATOM     18  C   UNL     1       8.218   2.524  23.197  0.00  0.00    +0.000 A 
ATOM     19  C   UNL     1       7.931   1.603  24.200  0.00  0.00    +0.004 A 
ENDBRANCH  13  14
ENDBRANCH   1  13
BRANCH   4  20
ATOM     20  C   UNL     1       4.275  -4.028  23.981  0.00  0.00    +0.060 C 
BRANCH  20  21
ATOM     21  C   UNL     1       3.652  -5.416  24.074  0.00  0.00    -0.046 A 
ATOM     22  C   UNL     1       4.042  -6.325  25.068  0.00  0.00    +0.004 A 
ATOM     23  C   UNL     1       3.438  -7.582  25.166  0.00  0.00    +0.000 A 
ATOM     24  C   UNL     1       2.435  -7.952  24.272  0.00  0.00    +0.000 A 
ATOM     25  C   UNL     1       2.051  -7.071  23.266  0.00  0.00    +0.000 A 
ATOM     26  C   UNL     1       2.662  -5.817  23.159  0.00  0.00    +0.004 A 
ENDBRANCH  20  21
ENDBRANCH   4  20
BRANCH   5  27
ATOM     27  C   UNL     1       7.170  -5.170  23.328  0.00  0.00    +0.136 C 
BRANCH  27  28
ATOM     28  C   UNL     1       6.921  -5.017  21.859  0.00  0.00    -0.016 C 
ATOM     29  C   UNL     1       6.093  -5.799  21.156  0.00  0.00    +0.005 C 
ENDBRANCH  27  28
ENDBRANCH   5  27
BRANCH   8  30
ATOM     30  C   UNL     1       9.547  -2.628  24.005  0.00  0.00    +0.136 C 
BRANCH  30  31
ATOM     31  C   UNL     1      10.348  -1.948  22.926  0.00  0.00    -0.016 C 
ATOM     32  C   UNL     1       9.864  -1.151  21.963  0.00  0.00    +0.005 C 
ENDBRANCH  30  31
ENDBRANCH   8  30
TORSDOF 10
ENDMDL
MODEL 7
REMARK VINA RESULT:      -6.1      1.419      7.637
REMARK  Name = 
REMARK  10 active torsions:
REMARK  status: ('A' for Active; 'I' for Inactive)
REMARK    1  A    between atoms: C_2  and  C_3
REMARK    2  A    between atoms: C_3  and  C_4
REMARK    3  A    between atoms: N_10  and  C_11
REMARK    4  A    between atoms: C_11  and  C_12
REMARK    5  A    between atoms: N_16  and  C_17
REMARK    6  A    between atoms: C_17  and  C_18
REMARK    7  A    between atoms: C_20  and  C_22
REMARK    8  A    between atoms: C_22  and  C_23
REMARK    9  A    between atoms: C_29  and  O_31
REMARK   10  A    between atoms: C_32  and  O_34
REMARK                            x       y       z     vdW  Elec       q    Type
REMARK                         _______ _______ _______ _____ _____    ______ ____
ROOT
ATOM      1  C   UNL     1       6.729  -3.543  24.719  0.00  0.00    +0.113 C 
ATOM      2  C   UNL     1       6.114  -2.109  24.782  0.00  0.00    +0.165 C 
ATOM      3  C   UNL     1       7.106  -1.071  25.370  0.00  0.00    +0.165 C 
ATOM      4  C   UNL     1       8.158  -0.527  24.333  0.00  0.00    +0.113 C 
ATOM      5  N   UNL     1       8.470  -1.538  23.278  0.00  0.00    -0.276 N 
ATOM      6  C   UNL     1       8.812  -2.811  23.755  0.00  0.00    +0.306 C 
ATOM      7  O   UNL     1       9.805  -3.022  24.438  0.00  0.00    -0.252 OA
ATOM      8  N   UNL     1       7.732  -3.693  23.636  0.00  0.00    -0.276 N 
ENDROOT
BRANCH   2   9
ATOM      9  O   UNL     1       5.611  -1.708  23.509  0.00  0.00    -0.387 OA
ATOM     10  H   UNL     1       5.317  -2.534  23.079  0.00  0.00    +0.210 HD
ENDBRANCH   2   9
BRANCH   3  11
ATOM     11  O   UNL     1       7.672  -1.644  26.553  0.00  0.00    -0.387 OA
ATOM     12  H   UNL     1       7.495  -2.597  26.567  0.00  0.00    +0.210 HD
ENDBRANCH   3  11
BRANCH   1  13
ATOM     13  C   UNL     1       5.609  -4.612  24.805  0.00  0.00    +0.060 C 
BRANCH  13  14
ATOM     14  C   UNL     1       5.705  -5.438  26.067  0.00  0.00    -0.046 A 
ATOM     15  C   UNL     1       6.728  -5.194  26.989  0.00  0.00    +0.004 A 
ATOM     16  C   UNL     1       6.681  -5.775  28.254  0.00  0.00    +0.000 A 
ATOM     17  C   UNL     1       5.628  -6.624  28.593  0.00  0.00    +0.000 A 
ATOM     18  C   UNL     1       4.659  -6.948  27.647  0.00  0.00    +0.000 A 
ATOM     19  C   UNL     1       4.708  -6.372  26.381  0.00  0.00    +0.004 A 
ENDBRANCH  13  14
ENDBRANCH   1  13
BRANCH   4  20
ATOM     20  C   UNL     1       9.399   0.123  25.013  0.00  0.00    +0.060 C 
BRANCH  20  21
ATOM     21  C   UNL     1       9.670   1.567  24.604  0.00  0.00    -0.046 A 
ATOM     22  C   UNL     1      10.860   1.929  23.956  0.00  0.00    +0.004 A 
ATOM     23  C   UNL     1      11.081   3.249  23.552  0.00  0.00    +0.000 A 
ATOM     24  C   UNL     1      10.119   4.228  23.789  0.00  0.00    +0.000 A 
ATOM     25  C   UNL     1       8.942   3.890  24.450  0.00  0.00    +0.000 A 
ATOM     26  C   UNL     1       8.723   2.573  24.865  0.00  0.00    +0.004 A 
ENDBRANCH  20  21
ENDBRANCH   4  20
BRANCH   5  27
ATOM     27  C   UNL     1       9.224  -1.140  22.100  0.00  0.00    +0.136 C 
BRANCH  27  28
ATOM     28  C   UNL     1       8.482  -0.087  21.335  0.00  0.00    -0.016 C 
ATOM     29  C   UNL     1       8.890   1.183  21.223  0.00  0.00    +0.005 C 
ENDBRANCH  27  28
ENDBRANCH   5  27
BRANCH   8  30
ATOM     30  C   UNL     1       7.352  -4.144  22.300  0.00  0.00    +0.136 C 
BRANCH  30  31
ATOM     31  C   UNL     1       7.477  -5.644  22.267  0.00  0.00    -0.016 C 
ATOM     32  C   UNL     1       6.549  -6.507  21.828  0.00  0.00    +0.005 C 
ENDBRANCH  30  31
ENDBRANCH   8  30
TORSDOF 10
ENDMDL
MODEL 8
REMARK VINA RESULT:      -6.0      1.743      2.770
REMARK  Name = 
REMARK  10 active torsions:
REMARK  status: ('A' for Active; 'I' for Inactive)
REMARK    1  A    between atoms: C_2  and  C_3
REMARK    2  A    between atoms: C_3  and  C_4
REMARK    3  A    between atoms: N_10  and  C_11
REMARK    4  A    between atoms: C_11  and  C_12
REMARK    5  A    between atoms: N_16  and  C_17
REMARK    6  A    between atoms: C_17  and  C_18
REMARK    7  A    between atoms: C_20  and  C_22
REMARK    8  A    between atoms: C_22  and  C_23
REMARK    9  A    between atoms: C_29  and  O_31
REMARK   10  A    between atoms: C_32  and  O_34
REMARK                            x       y       z     vdW  Elec       q    Type
REMARK                         _______ _______ _______ _____ _____    ______ ____
ROOT
ATOM      1  C   UNL     1       7.605   0.739  24.970  0.00  0.00    +0.113 C 
ATOM      2  C   UNL     1       7.008  -0.193  26.072  0.00  0.00    +0.165 C 
ATOM      3  C   UNL     1       6.155  -1.341  25.468  0.00  0.00    +0.165 C 
ATOM      4  C   UNL     1       6.997  -2.565  24.950  0.00  0.00    +0.113 C 
ATOM      5  N   UNL     1       8.355  -2.147  24.490  0.00  0.00    -0.276 N 
ATOM      6  C   UNL     1       8.375  -1.076  23.587  0.00  0.00    +0.306 C 
ATOM      7  O   UNL     1       7.871  -1.133  22.473  0.00  0.00    -0.252 OA
ATOM      8  N   UNL     1       8.730   0.113  24.234  0.00  0.00    -0.276 N 
ENDROOT
BRANCH   2   9
ATOM      9  O   UNL     1       8.027  -0.683  26.940  0.00  0.00    -0.387 OA
ATOM     10  H   UNL     1       8.832  -0.189  26.693  0.00  0.00    +0.210 HD
ENDBRANCH   2   9
BRANCH   3  11
ATOM     11  O   UNL     1       5.283  -0.757  24.494  0.00  0.00    -0.387 OA
ATOM     12  H   UNL     1       4.365  -0.980  24.708  0.00  0.00    +0.210 HD
ENDBRANCH   3  11
BRANCH   1  13
ATOM     13  C   UNL     1       7.832   2.164  25.539  0.00  0.00    +0.060 C 
BRANCH  13  14
ATOM     14  C   UNL     1       7.575   3.236  24.505  0.00  0.00    -0.046 A 
ATOM     15  C   UNL     1       8.284   4.441  24.553  0.00  0.00    +0.004 A 
ATOM     16  C   UNL     1       8.233   5.324  23.476  0.00  0.00    +0.000 A 
ATOM     17  C   UNL     1       7.453   5.021  22.361  0.00  0.00    +0.000 A 
ATOM     18  C   UNL     1       6.670   3.870  22.349  0.00  0.00    +0.000 A 
ATOM     19  C   UNL     1       6.715   2.990  23.426  0.00  0.00    +0.004 A 
ENDBRANCH  13  14
ENDBRANCH   1  13
BRANCH   4  20
ATOM     20  C   UNL     1       6.208  -3.465  23.953  0.00  0.00    +0.060 C 
BRANCH  20  21
ATOM     21  C   UNL     1       5.640  -4.744  24.557  0.00  0.00    -0.046 A 
ATOM     22  C   UNL     1       5.818  -5.050  25.914  0.00  0.00    +0.004 A 
ATOM     23  C   UNL     1       5.261  -6.208  26.465  0.00  0.00    +0.000 A 
ATOM     24  C   UNL     1       4.518  -7.079  25.670  0.00  0.00    +0.000 A 
ATOM     25  C   UNL     1       4.350  -6.801  24.317  0.00  0.00    +0.000 A 
ATOM     26  C   UNL     1       4.915  -5.649  23.761  0.00  0.00    +0.004 A 
ENDBRANCH  20  21
ENDBRANCH   4  20
BRANCH   5  27
ATOM     27  C   UNL     1       9.363  -3.159  24.211  0.00  0.00    +0.136 C 
BRANCH  27  28
ATOM     28  C   UNL     1       9.435  -4.150  25.332  0.00  0.00    -0.016 C 
ATOM     29  C   UNL     1       9.367  -5.476  25.162  0.00  0.00    +0.005 C 
ENDBRANCH  27  28
ENDBRANCH   5  27
BRANCH   8  30
ATOM     30  C   UNL     1      10.114   0.276  24.671  0.00  0.00    +0.136 C 
BRANCH  30  31
ATOM     31  C   UNL     1      10.735   1.368  23.841  0.00  0.00    -0.016 C 
ATOM     32  C   UNL     1      10.315   1.785  22.638  0.00  0.00    +0.005 C 
ENDBRANCH  30  31
ENDBRANCH   8  30
TORSDOF 10
ENDMDL
MODEL 9
REMARK VINA RESULT:      -6.0      2.699      5.135
REMARK  Name = 
REMARK  10 active torsions:
REMARK  status: ('A' for Active; 'I' for Inactive)
REMARK    1  A    between atoms: C_2  and  C_3
REMARK    2  A    between atoms: C_3  and  C_4
REMARK    3  A    between atoms: N_10  and  C_11
REMARK    4  A    between atoms: C_11  and  C_12
REMARK    5  A    between atoms: N_16  and  C_17
REMARK    6  A    between atoms: C_17  and  C_18
REMARK    7  A    between atoms: C_20  and  C_22
REMARK    8  A    between atoms: C_22  and  C_23
REMARK    9  A    between atoms: C_29  and  O_31
REMARK   10  A    between atoms: C_32  and  O_34
REMARK                            x       y       z     vdW  Elec       q    Type
REMARK                         _______ _______ _______ _____ _____    ______ ____
ROOT
ATOM      1  C   UNL     1       8.285   3.114  22.960  0.00  0.00    +0.113 C 
ATOM      2  C   UNL     1       7.626   2.186  21.891  0.00  0.00    +0.165 C 
ATOM      3  C   UNL     1       8.442   0.885  21.662  0.00  0.00    +0.165 C 
ATOM      4  C   UNL     1       8.180  -0.237  22.734  0.00  0.00    +0.113 C 
ATOM      5  N   UNL     1       7.806   0.341  24.060  0.00  0.00    -0.276 N 
ATOM      6  C   UNL     1       8.668   1.336  24.541  0.00  0.00    +0.306 C 
ATOM      7  O   UNL     1       9.842   1.127  24.815  0.00  0.00    -0.252 OA
ATOM      8  N   UNL     1       8.117   2.608  24.345  0.00  0.00    -0.276 N 
ENDROOT
BRANCH   2   9
ATOM      9  O   UNL     1       6.265   1.913  22.214  0.00  0.00    -0.387 OA
ATOM     10  H   UNL     1       6.207   2.014  23.184  0.00  0.00    +0.210 HD
ENDBRANCH   2   9
BRANCH   3  11
ATOM     11  O   UNL     1       9.815   1.263  21.513  0.00  0.00    -0.387 OA
ATOM     12  H   UNL     1       9.868   2.205  21.290  0.00  0.00    +0.210 HD
ENDBRANCH   3  11
BRANCH   1  13
ATOM     13  C   UNL     1       7.907   4.594  22.692  0.00  0.00    +0.060 C 
BRANCH  13  14
ATOM     14  C   UNL     1       8.715   5.550  23.539  0.00  0.00    -0.046 A 
ATOM     15  C   UNL     1       8.072   6.407  24.438  0.00  0.00    +0.004 A 
ATOM     16  C   UNL     1       8.813   7.108  25.386  0.00  0.00    +0.000 A 
ATOM     17  C   UNL     1      10.201   6.977  25.424  0.00  0.00    +0.000 A 
ATOM     18  C   UNL     1      10.855   6.201  24.470  0.00  0.00    +0.000 A 
ATOM     19  C   UNL     1      10.116   5.505  23.518  0.00  0.00    +0.004 A 
ENDBRANCH  13  14
ENDBRANCH   1  13
BRANCH   4  20
ATOM     20  C   UNL     1       9.307  -1.311  22.775  0.00  0.00    +0.060 C 
BRANCH  20  21
ATOM     21  C   UNL     1       8.864  -2.684  23.269  0.00  0.00    -0.046 A 
ATOM     22  C   UNL     1       7.875  -3.416  22.596  0.00  0.00    +0.004 A 
ATOM     23  C   UNL     1       7.503  -4.689  23.037  0.00  0.00    +0.000 A 
ATOM     24  C   UNL     1       8.112  -5.252  24.158  0.00  0.00    +0.000 A 
ATOM     25  C   UNL     1       9.080  -4.531  24.849  0.00  0.00    +0.000 A 
ATOM     26  C   UNL     1       9.446  -3.252  24.417  0.00  0.00    +0.004 A 
ENDBRANCH  20  21
ENDBRANCH   4  20
BRANCH   5  27
ATOM     27  C   UNL     1       7.287  -0.529  25.104  0.00  0.00    +0.136 C 
BRANCH  27  28
ATOM     28  C   UNL     1       5.884  -0.947  24.788  0.00  0.00    -0.016 C 
ATOM     29  C   UNL     1       5.422  -2.193  24.944  0.00  0.00    +0.005 C 
ENDBRANCH  27  28
ENDBRANCH   5  27
BRANCH   8  30
ATOM     30  C   UNL     1       6.978   3.003  25.169  0.00  0.00    +0.136 C 
BRANCH  30  31
ATOM     31  C   UNL     1       7.514   3.580  26.452  0.00  0.00    -0.016 C 
ATOM     32  C   UNL     1       6.819   4.287  27.355  0.00  0.00    +0.005 C 
ENDBRANCH  30  31
ENDBRANCH   8  30
TORSDOF 10
ENDMDL
