MODEL 1
REMARK VINA RESULT:      -8.0      0.000      0.000
REMARK  Name = 
REMARK  8 active torsions:
REMARK  status: ('A' for Active; 'I' for Inactive)
REMARK    1  A    between atoms: C_2  and  C_3
REMARK    2  A    between atoms: C_12  and  C_17
REMARK    3  A    between atoms: C_22  and  C_25
REMARK    4  A    between atoms: N_27  and  C_28
REMARK    5  A    between atoms: C_28  and  C_29
REMARK    6  A    between atoms: C_29  and  N_30
REMARK    7  A    between atoms: N_30  and  C_31
REMARK    8  A    between atoms: N_30  and  C_32
REMARK                            x       y       z     vdW  Elec       q    Type
REMARK                         _______ _______ _______ _____ _____    ______ ____
ROOT
ATOM      1  C   UNL     1       8.199  -2.840  23.360  0.00  0.00    +0.250 C 
ATOM      2  N   UNL     1       7.757  -1.579  23.006  0.00  0.00    -0.261 N 
ATOM      3  H   UNL     1       6.788  -1.406  22.793  0.00  0.00    +0.157 HD
ATOM      4  C   UNL     1       8.507  -0.424  23.098  0.00  0.00    +0.165 A 
ATOM      5  S   UNL     1      10.204  -0.455  23.297  0.00  0.00    -0.060 S 
ATOM      6  C   UNL     1      10.233   1.244  23.368  0.00  0.00    +0.081 A 
ATOM      7  C   UNL     1       8.958   1.750  23.196  0.00  0.00    +0.135 A 
ATOM      8  N   UNL     1       7.967   0.773  23.003  0.00  0.00    -0.220 NA
ATOM      9  O   UNL     1       9.310  -3.099  23.817  0.00  0.00    -0.270 OA
ENDROOT
BRANCH   1  18
ATOM     10  C   UNL     1       3.963  -5.094  26.515  0.00  0.00    +0.036 C 
ATOM     11  C   UNL     1       4.403  -5.657  25.197  0.00  0.00    -0.006 A 
ATOM     12  C   UNL     1       5.405  -5.216  24.286  0.00  0.00    +0.005 A 
ATOM     13  C   UNL     1       5.416  -6.105  23.211  0.00  0.00    +0.047 A 
ATOM     14  N   UNL     1       4.466  -7.068  23.477  0.00  0.00    -0.350 N 
ATOM     15  H   UNL     1       4.260  -7.871  22.897  0.00  0.00    +0.166 HD
ATOM     16  C   UNL     1       6.293  -5.956  22.127  0.00  0.00    +0.027 A 
ATOM     17  C   UNL     1       7.209  -4.887  22.155  0.00  0.00    +0.015 A 
ATOM     18  C   UNL     1       7.241  -3.988  23.224  0.00  0.00    +0.038 A 
ATOM     19  C   UNL     1       6.329  -4.156  24.287  0.00  0.00    +0.023 A 
ATOM     20  C   UNL     1       3.917  -6.855  24.714  0.00  0.00    +0.106 A 
ATOM     21  C   UNL     1       3.042  -7.750  25.420  0.00  0.00    +0.261 C 
ATOM     22  O   UNL     1       2.613  -8.802  24.964  0.00  0.00    -0.269 OA
ATOM     23  N   UNL     1       2.766  -7.354  26.710  0.00  0.00    -0.310 N 
ATOM     24  H   UNL     1       2.127  -7.976  27.190  0.00  0.00    +0.149 HD
ATOM     25  C   UNL     1       2.839  -5.965  27.147  0.00  0.00    +0.112 C 
ATOM     26  C   UNL     1       3.448  -3.657  26.375  0.00  0.00    +0.014 C 
ENDBRANCH   1  18
BRANCH   7  27
ATOM     27  C   UNL     1       8.682   3.189  23.220  0.00  0.00    +0.263 C 
ATOM     28  N   UNL     1       9.360   3.884  24.193  0.00  0.00    -0.309 N 
ATOM     29  H   UNL     1      10.079   3.397  24.719  0.00  0.00    +0.149 HD
ATOM     30  O   UNL     1       7.906   3.723  22.432  0.00  0.00    -0.269 OA
BRANCH  28  31
ATOM     31  C   UNL     1       9.264   5.325  24.292  0.00  0.00    +0.120 C 
BRANCH  31  32
ATOM     32  C   UNL     1      10.453   6.038  23.628  0.00  0.00    +0.102 C 
BRANCH  32  33
ATOM     33  N   UNL     1      11.781   5.674  24.171  0.00  0.00    -0.307 NA
ATOM     34  C   UNL     1      12.269   6.764  25.024  0.00  0.00    +0.104 C 
ATOM     35  C   UNL     1      12.751   5.423  23.102  0.00  0.00    +0.104 C 
ENDBRANCH  32  33
ENDBRANCH  31  32
ENDBRANCH  28  31
ENDBRANCH   7  27
TORSDOF 5
ENDMDL
MODEL 2
REMARK VINA RESULT:      -7.9      2.811     10.512
REMARK  Name = 
REMARK  8 active torsions:
REMARK  status: ('A' for Active; 'I' for Inactive)
REMARK    1  A    between atoms: C_2  and  C_3
REMARK    2  A    between atoms: C_12  and  C_17
REMARK    3  A    between atoms: C_22  and  C_25
REMARK    4  A    between atoms: N_27  and  C_28
REMARK    5  A    between atoms: C_28  and  C_29
REMARK    6  A    between atoms: C_29  and  N_30
REMARK    7  A    between atoms: N_30  and  C_31
REMARK    8  A    between atoms: N_30  and  C_32
REMARK                            x       y       z     vdW  Elec       q    Type
REMARK                         _______ _______ _______ _____ _____    ______ ____
ROOT
ATOM      1  C   UNL     1       9.618  -1.281  24.245  0.00  0.00    +0.250 C 
ATOM      2  N   UNL     1       8.834  -1.770  25.274  0.00  0.00    -0.261 N 
ATOM      3  H   UNL     1       8.208  -1.169  25.784  0.00  0.00    +0.157 HD
ATOM      4  C   UNL     1       8.667  -3.107  25.574  0.00  0.00    +0.165 A 
ATOM      5  S   UNL     1       9.709  -4.314  24.960  0.00  0.00    -0.060 S 
ATOM      6  C   UNL     1       8.783  -5.515  25.730  0.00  0.00    +0.081 A 
ATOM      7  C   UNL     1       7.754  -4.935  26.448  0.00  0.00    +0.135 A 
ATOM      8  N   UNL     1       7.718  -3.532  26.381  0.00  0.00    -0.220 NA
ATOM      9  O   UNL     1      10.258  -1.970  23.454  0.00  0.00    -0.270 OA
ENDROOT
BRANCH   1  18
ATOM     10  C   UNL     1       5.816   2.860  23.075  0.00  0.00    +0.036 C 
ATOM     11  C   UNL     1       7.287   3.107  23.229  0.00  0.00    -0.006 A 
ATOM     12  C   UNL     1       8.351   2.212  23.538  0.00  0.00    +0.005 A 
ATOM     13  C   UNL     1       9.533   2.953  23.552  0.00  0.00    +0.047 A 
ATOM     14  N   UNL     1       9.194   4.253  23.236  0.00  0.00    -0.350 N 
ATOM     15  H   UNL     1       9.842   5.024  23.135  0.00  0.00    +0.166 HD
ATOM     16  C   UNL     1      10.778   2.371  23.827  0.00  0.00    +0.027 A 
ATOM     17  C   UNL     1      10.826   0.984  24.064  0.00  0.00    +0.015 A 
ATOM     18  C   UNL     1       9.666   0.204  24.038  0.00  0.00    +0.038 A 
ATOM     19  C   UNL     1       8.428   0.828  23.779  0.00  0.00    +0.023 A 
ATOM     20  C   UNL     1       7.857   4.332  22.951  0.00  0.00    +0.106 A 
ATOM     21  C   UNL     1       7.174   5.467  22.395  0.00  0.00    +0.261 C 
ATOM     22  O   UNL     1       7.699   6.549  22.170  0.00  0.00    -0.269 OA
ATOM     23  N   UNL     1       5.859   5.218  22.066  0.00  0.00    -0.310 N 
ATOM     24  H   UNL     1       5.379   6.030  21.701  0.00  0.00    +0.149 HD
ATOM     25  C   UNL     1       5.067   4.171  22.701  0.00  0.00    +0.112 C 
ATOM     26  C   UNL     1       5.198   2.293  24.359  0.00  0.00    +0.014 C 
ENDBRANCH   1  18
BRANCH   7  27
ATOM     27  C   UNL     1       6.788  -5.734  27.207  0.00  0.00    +0.263 C 
ATOM     28  N   UNL     1       5.660  -6.084  26.505  0.00  0.00    -0.309 N 
ATOM     29  H   UNL     1       5.634  -5.889  25.509  0.00  0.00    +0.149 HD
ATOM     30  O   UNL     1       6.978  -6.060  28.375  0.00  0.00    -0.269 OA
BRANCH  28  31
ATOM     31  C   UNL     1       4.651  -6.946  27.084  0.00  0.00    +0.120 C 
BRANCH  31  32
ATOM     32  C   UNL     1       3.332  -6.916  26.296  0.00  0.00    +0.102 C 
BRANCH  32  33
ATOM     33  N   UNL     1       3.322  -7.737  25.065  0.00  0.00    -0.307 NA
ATOM     34  C   UNL     1       3.264  -6.853  23.895  0.00  0.00    +0.104 C 
ATOM     35  C   UNL     1       2.178  -8.653  25.037  0.00  0.00    +0.104 C 
ENDBRANCH  32  33
ENDBRANCH  31  32
ENDBRANCH  28  31
ENDBRANCH   7  27
TORSDOF 5
ENDMDL
MODEL 3
REMARK VINA RESULT:      -7.9      3.011      3.463
REMARK  Name = 
REMARK  8 active torsions:
REMARK  status: ('A' for Active; 'I' for Inactive)
REMARK    1  A    between atoms: C_2  and  C_3
REMARK    2  A    between atoms: C_12  and  C_17
REMARK    3  A    between atoms: C_22  and  C_25
REMARK    4  A    between atoms: N_27  and  C_28
REMARK    5  A    between atoms: C_28  and  C_29
REMARK    6  A    between atoms: C_29  and  N_30
REMARK    7  A    between atoms: N_30  and  C_31
REMARK    8  A    between atoms: N_30  and  C_32
REMARK                            x       y       z     vdW  Elec       q    Type
REMARK                         _______ _______ _______ _____ _____    ______ ____
ROOT
ATOM      1  C   UNL     1       9.308  -2.141  23.768  0.00  0.00    +0.250 C 
ATOM      2  N   UNL     1       9.290  -0.863  24.296  0.00  0.00    -0.261 N 
ATOM      3  H   UNL     1       9.183  -0.708  25.285  0.00  0.00    +0.157 HD
ATOM      4  C   UNL     1       9.607   0.284  23.598  0.00  0.00    +0.165 A 
ATOM      5  S   UNL     1       9.690   0.318  21.891  0.00  0.00    -0.060 S 
ATOM      6  C   UNL     1      10.159   1.952  21.940  0.00  0.00    +0.081 A 
ATOM      7  C   UNL     1      10.190   2.400  23.247  0.00  0.00    +0.135 A 
ATOM      8  N   UNL     1       9.831   1.433  24.201  0.00  0.00    -0.220 NA
ATOM      9  O   UNL     1       9.622  -2.427  22.615  0.00  0.00    -0.270 OA
ENDROOT
BRANCH   1  18
ATOM     10  C   UNL     1       5.146  -3.314  27.548  0.00  0.00    +0.036 C 
ATOM     11  C   UNL     1       6.290  -4.241  27.261  0.00  0.00    -0.006 A 
ATOM     12  C   UNL     1       7.379  -4.120  26.351  0.00  0.00    +0.005 A 
ATOM     13  C   UNL     1       8.168  -5.262  26.486  0.00  0.00    +0.047 A 
ATOM     14  N   UNL     1       7.586  -6.039  27.465  0.00  0.00    -0.350 N 
ATOM     15  H   UNL     1       7.946  -6.918  27.813  0.00  0.00    +0.166 HD
ATOM     16  C   UNL     1       9.329  -5.462  25.726  0.00  0.00    +0.027 A 
ATOM     17  C   UNL     1       9.716  -4.452  24.824  0.00  0.00    +0.015 A 
ATOM     18  C   UNL     1       8.962  -3.285  24.676  0.00  0.00    +0.038 A 
ATOM     19  C   UNL     1       7.788  -3.128  25.442  0.00  0.00    +0.023 A 
ATOM     20  C   UNL     1       6.507  -5.386  28.000  0.00  0.00    +0.106 A 
ATOM     21  C   UNL     1       5.768  -5.783  29.167  0.00  0.00    +0.261 C 
ATOM     22  O   UNL     1       5.971  -6.812  29.798  0.00  0.00    -0.269 OA
ATOM     23  N   UNL     1       4.829  -4.859  29.571  0.00  0.00    -0.310 N 
ATOM     24  H   UNL     1       4.295  -5.160  30.376  0.00  0.00    +0.149 HD
ATOM     25  C   UNL     1       4.226  -3.891  28.661  0.00  0.00    +0.112 C 
ATOM     26  C   UNL     1       4.298  -3.056  26.297  0.00  0.00    +0.014 C 
ENDBRANCH   1  18
BRANCH   7  27
ATOM     27  C   UNL     1      10.571   3.773  23.590  0.00  0.00    +0.263 C 
ATOM     28  N   UNL     1       9.550   4.538  24.101  0.00  0.00    -0.309 N 
ATOM     29  H   UNL     1       8.672   4.080  24.324  0.00  0.00    +0.149 HD
ATOM     30  O   UNL     1      11.712   4.198  23.431  0.00  0.00    -0.269 OA
BRANCH  28  31
ATOM     31  C   UNL     1       9.785   5.887  24.572  0.00  0.00    +0.120 C 
BRANCH  31  32
ATOM     32  C   UNL     1       8.749   6.885  24.030  0.00  0.00    +0.102 C 
BRANCH  32  33
ATOM     33  N   UNL     1       7.509   6.272  23.503  0.00  0.00    -0.307 NA
ATOM     34  C   UNL     1       7.464   6.450  22.047  0.00  0.00    +0.104 C 
ATOM     35  C   UNL     1       6.314   6.873  24.102  0.00  0.00    +0.104 C 
ENDBRANCH  32  33
ENDBRANCH  31  32
ENDBRANCH  28  31
ENDBRANCH   7  27
TORSDOF 5
ENDMDL
MODEL 4
REMARK VINA RESULT:      -7.8      1.393      2.050
REMARK  Name = 
REMARK  8 active torsions:
REMARK  status: ('A' for Active; 'I' for Inactive)
REMARK    1  A    between atoms: C_2  and  C_3
REMARK    2  A    between atoms: C_12  and  C_17
REMARK    3  A    between atoms: C_22  and  C_25
REMARK    4  A    between atoms: N_27  and  C_28
REMARK    5  A    between atoms: C_28  and  C_29
REMARK    6  A    between atoms: C_29  and  N_30
REMARK    7  A    between atoms: N_30  and  C_31
REMARK    8  A    between atoms: N_30  and  C_32
REMARK                            x       y       z     vdW  Elec       q    Type
REMARK                         _______ _______ _______ _____ _____    ______ ____
ROOT
ATOM      1  C   UNL     1       8.504  -2.504  23.530  0.00  0.00    +0.250 C 
ATOM      2  N   UNL     1       8.012  -1.214  23.459  0.00  0.00    -0.261 N 
ATOM      3  H   UNL     1       7.023  -1.035  23.395  0.00  0.00    +0.157 HD
ATOM      4  C   UNL     1       8.757  -0.071  23.668  0.00  0.00    +0.165 A 
ATOM      5  S   UNL     1      10.466  -0.085  23.658  0.00  0.00    -0.060 S 
ATOM      6  C   UNL     1      10.489   1.575  24.026  0.00  0.00    +0.081 A 
ATOM      7  C   UNL     1       9.198   2.065  24.097  0.00  0.00    +0.135 A 
ATOM      8  N   UNL     1       8.200   1.107  23.850  0.00  0.00    -0.220 NA
ATOM      9  O   UNL     1       9.664  -2.805  23.800  0.00  0.00    -0.270 OA
ENDROOT
BRANCH   1  18
ATOM     10  C   UNL     1       4.320  -5.049  26.529  0.00  0.00    +0.036 C 
ATOM     11  C   UNL     1       4.742  -5.489  25.159  0.00  0.00    -0.006 A 
ATOM     12  C   UNL     1       5.730  -4.964  24.278  0.00  0.00    +0.005 A 
ATOM     13  C   UNL     1       5.727  -5.752  23.127  0.00  0.00    +0.047 A 
ATOM     14  N   UNL     1       4.783  -6.738  23.318  0.00  0.00    -0.350 N 
ATOM     15  H   UNL     1       4.571  -7.487  22.671  0.00  0.00    +0.166 HD
ATOM     16  C   UNL     1       6.588  -5.503  22.048  0.00  0.00    +0.027 A 
ATOM     17  C   UNL     1       7.502  -4.437  22.159  0.00  0.00    +0.015 A 
ATOM     18  C   UNL     1       7.548  -3.638  23.304  0.00  0.00    +0.038 A 
ATOM     19  C   UNL     1       6.652  -3.905  24.361  0.00  0.00    +0.023 A 
ATOM     20  C   UNL     1       4.252  -6.640  24.577  0.00  0.00    +0.106 A 
ATOM     21  C   UNL     1       3.390  -7.598  25.212  0.00  0.00    +0.261 C 
ATOM     22  O   UNL     1       2.957  -8.606  24.669  0.00  0.00    -0.269 OA
ATOM     23  N   UNL     1       3.132  -7.322  26.537  0.00  0.00    -0.310 N 
ATOM     24  H   UNL     1       2.502  -7.986  26.967  0.00  0.00    +0.149 HD
ATOM     25  C   UNL     1       3.208  -5.977  27.095  0.00  0.00    +0.112 C 
ATOM     26  C   UNL     1       3.800  -3.606  26.526  0.00  0.00    +0.014 C 
ENDBRANCH   1  18
BRANCH   7  27
ATOM     27  C   UNL     1       8.914   3.468  24.409  0.00  0.00    +0.263 C 
ATOM     28  N   UNL     1       9.390   4.366  23.484  0.00  0.00    -0.309 N 
ATOM     29  H   UNL     1       9.772   4.004  22.615  0.00  0.00    +0.149 HD
ATOM     30  O   UNL     1       8.299   3.807  25.417  0.00  0.00    -0.269 OA
BRANCH  28  31
ATOM     31  C   UNL     1       9.115   5.783  23.601  0.00  0.00    +0.120 C 
BRANCH  31  32
ATOM     32  C   UNL     1       8.061   6.261  22.590  0.00  0.00    +0.102 C 
BRANCH  32  33
ATOM     33  N   UNL     1       6.719   6.512  23.160  0.00  0.00    -0.307 NA
ATOM     34  C   UNL     1       6.859   6.925  24.562  0.00  0.00    +0.104 C 
ATOM     35  C   UNL     1       5.871   5.318  23.089  0.00  0.00    +0.104 C 
ENDBRANCH  32  33
ENDBRANCH  31  32
ENDBRANCH  28  31
ENDBRANCH   7  27
TORSDOF 5
ENDMDL
MODEL 5
REMARK VINA RESULT:      -7.8      2.972      3.185
REMARK  Name = 
REMARK  8 active torsions:
REMARK  status: ('A' for Active; 'I' for Inactive)
REMARK    1  A    between atoms: C_2  and  C_3
REMARK    2  A    between atoms: C_12  and  C_17
REMARK    3  A    between atoms: C_22  and  C_25
REMARK    4  A    between atoms: N_27  and  C_28
REMARK    5  A    between atoms: C_28  and  C_29
REMARK    6  A    between atoms: C_29  and  N_30
REMARK    7  A    between atoms: N_30  and  C_31
REMARK    8  A    between atoms: N_30  and  C_32
REMARK                            x       y       z     vdW  Elec       q    Type
REMARK                         _______ _______ _______ _____ _____    ______ ____
ROOT
ATOM      1  C   UNL     1       8.984  -2.045  23.824  0.00  0.00    +0.250 C 
ATOM      2  N   UNL     1       8.011  -1.069  23.717  0.00  0.00    -0.261 N 
ATOM      3  H   UNL     1       7.206  -1.065  24.322  0.00  0.00    +0.157 HD
ATOM      4  C   UNL     1       8.120   0.075  22.952  0.00  0.00    +0.165 A 
ATOM      5  S   UNL     1       9.308   0.247  21.736  0.00  0.00    -0.060 S 
ATOM      6  C   UNL     1       8.766   1.827  21.420  0.00  0.00    +0.081 A 
ATOM      7  C   UNL     1       7.683   2.129  22.225  0.00  0.00    +0.135 A 
ATOM      8  N   UNL     1       7.292   1.090  23.086  0.00  0.00    -0.220 NA
ATOM      9  O   UNL     1      10.078  -2.018  23.266  0.00  0.00    -0.270 OA
ENDROOT
BRANCH   1  18
ATOM     10  C   UNL     1       5.026  -3.421  27.750  0.00  0.00    +0.036 C 
ATOM     11  C   UNL     1       6.187  -4.303  27.401  0.00  0.00    -0.006 A 
ATOM     12  C   UNL     1       7.232  -4.130  26.450  0.00  0.00    +0.005 A 
ATOM     13  C   UNL     1       8.065  -5.245  26.532  0.00  0.00    +0.047 A 
ATOM     14  N   UNL     1       7.551  -6.057  27.521  0.00  0.00    -0.350 N 
ATOM     15  H   UNL     1       7.954  -6.929  27.839  0.00  0.00    +0.166 HD
ATOM     16  C   UNL     1       9.200  -5.393  25.722  0.00  0.00    +0.027 A 
ATOM     17  C   UNL     1       9.514  -4.357  24.822  0.00  0.00    +0.015 A 
ATOM     18  C   UNL     1       8.715  -3.214  24.726  0.00  0.00    +0.038 A 
ATOM     19  C   UNL     1       7.569  -3.110  25.541  0.00  0.00    +0.023 A 
ATOM     20  C   UNL     1       6.473  -5.451  28.111  0.00  0.00    +0.106 A 
ATOM     21  C   UNL     1       5.798  -5.891  29.300  0.00  0.00    +0.261 C 
ATOM     22  O   UNL     1       6.061  -6.923  29.905  0.00  0.00    -0.269 OA
ATOM     23  N   UNL     1       4.845  -5.008  29.758  0.00  0.00    -0.310 N 
ATOM     24  H   UNL     1       4.356  -5.339  30.579  0.00  0.00    +0.149 HD
ATOM     25  C   UNL     1       4.173  -4.047  28.891  0.00  0.00    +0.112 C 
ATOM     26  C   UNL     1       4.118  -3.173  26.540  0.00  0.00    +0.014 C 
ENDBRANCH   1  18
BRANCH   7  27
ATOM     27  C   UNL     1       7.014   3.432  22.173  0.00  0.00    +0.263 C 
ATOM     28  N   UNL     1       7.865   4.509  22.126  0.00  0.00    -0.309 N 
ATOM     29  H   UNL     1       8.857   4.333  21.999  0.00  0.00    +0.149 HD
ATOM     30  O   UNL     1       5.791   3.544  22.171  0.00  0.00    -0.269 OA
BRANCH  28  31
ATOM     31  C   UNL     1       7.363   5.859  21.982  0.00  0.00    +0.120 C 
BRANCH  31  32
ATOM     32  C   UNL     1       7.763   6.762  23.160  0.00  0.00    +0.102 C 
BRANCH  32  33
ATOM     33  N   UNL     1       8.627   6.118  24.173  0.00  0.00    -0.307 NA
ATOM     34  C   UNL     1       8.249   6.600  25.507  0.00  0.00    +0.104 C 
ATOM     35  C   UNL     1      10.045   6.410  23.937  0.00  0.00    +0.104 C 
ENDBRANCH  32  33
ENDBRANCH  31  32
ENDBRANCH  28  31
ENDBRANCH   7  27
TORSDOF 5
ENDMDL
MODEL 6
REMARK VINA RESULT:      -7.3      3.877      5.156
REMARK  Name = 
REMARK  8 active torsions:
REMARK  status: ('A' for Active; 'I' for Inactive)
REMARK    1  A    between atoms: C_2  and  C_3
REMARK    2  A    between atoms: C_12  and  C_17
REMARK    3  A    between atoms: C_22  and  C_25
REMARK    4  A    between atoms: N_27  and  C_28
REMARK    5  A    between atoms: C_28  and  C_29
REMARK    6  A    between atoms: C_29  and  N_30
REMARK    7  A    between atoms: N_30  and  C_31
REMARK    8  A    between atoms: N_30  and  C_32
REMARK                            x       y       z     vdW  Elec       q    Type
REMARK                         _______ _______ _______ _____ _____    ______ ____
ROOT
ATOM      1  C   UNL     1       8.729  -1.512  23.814  0.00  0.00    +0.250 C 
ATOM      2  N   UNL     1       7.585  -0.743  23.701  0.00  0.00    -0.261 N 
ATOM      3  H   UNL     1       6.761  -0.951  24.241  0.00  0.00    +0.157 HD
ATOM      4  C   UNL     1       7.505   0.461  23.031  0.00  0.00    +0.165 A 
ATOM      5  S   UNL     1       8.706   0.969  21.926  0.00  0.00    -0.060 S 
ATOM      6  C   UNL     1       7.873   2.431  21.682  0.00  0.00    +0.081 A 
ATOM      7  C   UNL     1       6.704   2.441  22.420  0.00  0.00    +0.135 A 
ATOM      8  N   UNL     1       6.481   1.276  23.172  0.00  0.00    -0.220 NA
ATOM      9  O   UNL     1       9.827  -1.221  23.345  0.00  0.00    -0.270 OA
ENDROOT
BRANCH   1  18
ATOM     10  C   UNL     1       5.052  -3.829  27.567  0.00  0.00    +0.036 C 
ATOM     11  C   UNL     1       6.335  -4.486  27.152  0.00  0.00    -0.006 A 
ATOM     12  C   UNL     1       7.335  -4.068  26.229  0.00  0.00    +0.005 A 
ATOM     13  C   UNL     1       8.332  -5.044  26.219  0.00  0.00    +0.047 A 
ATOM     14  N   UNL     1       7.955  -6.010  27.128  0.00  0.00    -0.350 N 
ATOM     15  H   UNL     1       8.490  -6.834  27.371  0.00  0.00    +0.166 HD
ATOM     16  C   UNL     1       9.472  -4.941  25.409  0.00  0.00    +0.027 A 
ATOM     17  C   UNL     1       9.617  -3.793  24.608  0.00  0.00    +0.015 A 
ATOM     18  C   UNL     1       8.650  -2.784  24.606  0.00  0.00    +0.038 A 
ATOM     19  C   UNL     1       7.505  -2.932  25.417  0.00  0.00    +0.023 A 
ATOM     20  C   UNL     1       6.799  -5.634  27.760  0.00  0.00    +0.106 A 
ATOM     21  C   UNL     1       6.206  -6.277  28.899  0.00  0.00    +0.261 C 
ATOM     22  O   UNL     1       6.629  -7.305  29.412  0.00  0.00    -0.269 OA
ATOM     23  N   UNL     1       5.130  -5.596  29.424  0.00  0.00    -0.310 N 
ATOM     24  H   UNL     1       4.702  -6.071  30.209  0.00  0.00    +0.149 HD
ATOM     25  C   UNL     1       4.312  -4.678  28.640  0.00  0.00    +0.112 C 
ATOM     26  C   UNL     1       4.111  -3.618  26.375  0.00  0.00    +0.014 C 
ENDBRANCH   1  18
BRANCH   7  27
ATOM     27  C   UNL     1       5.787   3.585  22.409  0.00  0.00    +0.263 C 
ATOM     28  N   UNL     1       4.479   3.265  22.140  0.00  0.00    -0.309 N 
ATOM     29  H   UNL     1       4.221   2.283  22.102  0.00  0.00    +0.149 HD
ATOM     30  O   UNL     1       6.166   4.733  22.624  0.00  0.00    -0.269 OA
BRANCH  28  31
ATOM     31  C   UNL     1       3.436   4.269  22.180  0.00  0.00    +0.120 C 
BRANCH  31  32
ATOM     32  C   UNL     1       2.030   3.651  22.249  0.00  0.00    +0.102 C 
BRANCH  32  33
ATOM     33  N   UNL     1       1.271   3.685  20.980  0.00  0.00    -0.307 NA
ATOM     34  C   UNL     1       1.357   2.372  20.330  0.00  0.00    +0.104 C 
ATOM     35  C   UNL     1       1.788   4.711  20.069  0.00  0.00    +0.104 C 
ENDBRANCH  32  33
ENDBRANCH  31  32
ENDBRANCH  28  31
ENDBRANCH   7  27
TORSDOF 5
ENDMDL
MODEL 7
REMARK VINA RESULT:      -7.3      2.224     10.858
REMARK  Name = 
REMARK  8 active torsions:
REMARK  status: ('A' for Active; 'I' for Inactive)
REMARK    1  A    between atoms: C_2  and  C_3
REMARK    2  A    between atoms: C_12  and  C_17
REMARK    3  A    between atoms: C_22  and  C_25
REMARK    4  A    between atoms: N_27  and  C_28
REMARK    5  A    between atoms: C_28  and  C_29
REMARK    6  A    between atoms: C_29  and  N_30
REMARK    7  A    between atoms: N_30  and  C_31
REMARK    8  A    between atoms: N_30  and  C_32
REMARK                            x       y       z     vdW  Elec       q    Type
REMARK                         _______ _______ _______ _____ _____    ______ ____
ROOT
ATOM      1  C   UNL     1       8.194  -1.855  22.863  0.00  0.00    +0.250 C 
ATOM      2  N   UNL     1       7.091  -2.406  23.489  0.00  0.00    -0.261 N 
ATOM      3  H   UNL     1       6.576  -1.894  24.186  0.00  0.00    +0.157 HD
ATOM      4  C   UNL     1       6.469  -3.577  23.107  0.00  0.00    +0.165 A 
ATOM      5  S   UNL     1       7.211  -4.701  22.055  0.00  0.00    -0.060 S 
ATOM      6  C   UNL     1       5.821  -5.678  22.107  0.00  0.00    +0.081 A 
ATOM      7  C   UNL     1       4.880  -5.123  22.953  0.00  0.00    +0.135 A 
ATOM      8  N   UNL     1       5.281  -3.921  23.559  0.00  0.00    -0.220 NA
ATOM      9  O   UNL     1       8.757  -2.325  21.877  0.00  0.00    -0.270 OA
ENDROOT
BRANCH   1  18
ATOM     10  C   UNL     1       7.010   3.715  22.120  0.00  0.00    +0.036 C 
ATOM     11  C   UNL     1       8.113   3.214  23.005  0.00  0.00    -0.006 A 
ATOM     12  C   UNL     1       8.522   1.886  23.317  0.00  0.00    +0.005 A 
ATOM     13  C   UNL     1       9.609   1.975  24.186  0.00  0.00    +0.047 A 
ATOM     14  N   UNL     1       9.864   3.317  24.373  0.00  0.00    -0.350 N 
ATOM     15  H   UNL     1      10.617   3.704  24.928  0.00  0.00    +0.166 HD
ATOM     16  C   UNL     1      10.257   0.839  24.692  0.00  0.00    +0.027 A 
ATOM     17  C   UNL     1       9.803  -0.427  24.275  0.00  0.00    +0.015 A 
ATOM     18  C   UNL     1       8.729  -0.555  23.390  0.00  0.00    +0.038 A 
ATOM     19  C   UNL     1       8.088   0.609  22.918  0.00  0.00    +0.023 A 
ATOM     20  C   UNL     1       9.025   4.067  23.592  0.00  0.00    +0.106 A 
ATOM     21  C   UNL     1       9.115   5.483  23.365  0.00  0.00    +0.261 C 
ATOM     22  O   UNL     1       9.925   6.221  23.910  0.00  0.00    -0.269 OA
ATOM     23  N   UNL     1       8.235   5.950  22.414  0.00  0.00    -0.310 N 
ATOM     24  H   UNL     1       8.287   6.952  22.281  0.00  0.00    +0.149 HD
ATOM     25  C   UNL     1       6.988   5.270  22.084  0.00  0.00    +0.112 C 
ATOM     26  C   UNL     1       5.638   3.216  22.586  0.00  0.00    +0.014 C 
ENDBRANCH   1  18
BRANCH   7  27
ATOM     27  C   UNL     1       3.575  -5.750  23.184  0.00  0.00    +0.263 C 
ATOM     28  N   UNL     1       3.633  -6.981  23.790  0.00  0.00    -0.309 N 
ATOM     29  H   UNL     1       4.529  -7.301  24.145  0.00  0.00    +0.149 HD
ATOM     30  O   UNL     1       2.520  -5.211  22.860  0.00  0.00    -0.269 OA
BRANCH  28  31
ATOM     31  C   UNL     1       2.428  -7.691  24.167  0.00  0.00    +0.120 C 
BRANCH  31  32
ATOM     32  C   UNL     1       1.690  -7.015  25.332  0.00  0.00    +0.102 C 
BRANCH  32  33
ATOM     33  N   UNL     1       2.076  -7.495  26.678  0.00  0.00    -0.307 NA
ATOM     34  C   UNL     1       0.863  -7.763  27.461  0.00  0.00    +0.104 C 
ATOM     35  C   UNL     1       2.902  -6.512  27.386  0.00  0.00    +0.104 C 
ENDBRANCH  32  33
ENDBRANCH  31  32
ENDBRANCH  28  31
ENDBRANCH   7  27
TORSDOF 5
ENDMDL
MODEL 8
REMARK VINA RESULT:      -7.3      2.461     10.423
REMARK  Name = 
REMARK  8 active torsions:
REMARK  status: ('A' for Active; 'I' for Inactive)
REMARK    1  A    between atoms: C_2  and  C_3
REMARK    2  A    between atoms: C_12  and  C_17
REMARK    3  A    between atoms: C_22  and  C_25
REMARK    4  A    between atoms: N_27  and  C_28
REMARK    5  A    between atoms: C_28  and  C_29
REMARK    6  A    between atoms: C_29  and  N_30
REMARK    7  A    between atoms: N_30  and  C_31
REMARK    8  A    between atoms: N_30  and  C_32
REMARK                            x       y       z     vdW  Elec       q    Type
REMARK                         _______ _______ _______ _____ _____    ______ ____
ROOT
ATOM      1  C   UNL     1       8.158  -1.553  22.510  0.00  0.00    +0.250 C 
ATOM      2  N   UNL     1       6.959  -1.984  23.049  0.00  0.00    -0.261 N 
ATOM      3  H   UNL     1       6.256  -1.329  23.349  0.00  0.00    +0.157 HD
ATOM      4  C   UNL     1       6.518  -3.292  23.049  0.00  0.00    +0.165 A 
ATOM      5  S   UNL     1       7.563  -4.605  22.731  0.00  0.00    -0.060 S 
ATOM      6  C   UNL     1       6.258  -5.686  22.870  0.00  0.00    +0.081 A 
ATOM      7  C   UNL     1       5.103  -4.999  23.192  0.00  0.00    +0.135 A 
ATOM      8  N   UNL     1       5.272  -3.612  23.331  0.00  0.00    -0.220 NA
ATOM      9  O   UNL     1       8.981  -2.272  21.949  0.00  0.00    -0.270 OA
ENDROOT
BRANCH   1  18
ATOM     10  C   UNL     1       5.133   3.320  22.797  0.00  0.00    +0.036 C 
ATOM     11  C   UNL     1       6.630   3.278  22.729  0.00  0.00    -0.006 A 
ATOM     12  C   UNL     1       7.527   2.173  22.679  0.00  0.00    +0.005 A 
ATOM     13  C   UNL     1       8.822   2.686  22.616  0.00  0.00    +0.047 A 
ATOM     14  N   UNL     1       8.710   4.060  22.605  0.00  0.00    -0.350 N 
ATOM     15  H   UNL     1       9.477   4.715  22.530  0.00  0.00    +0.166 HD
ATOM     16  C   UNL     1       9.953   1.858  22.557  0.00  0.00    +0.027 A 
ATOM     17  C   UNL     1       9.755   0.464  22.528  0.00  0.00    +0.015 A 
ATOM     18  C   UNL     1       8.472  -0.087  22.569  0.00  0.00    +0.038 A 
ATOM     19  C   UNL     1       7.359   0.777  22.650  0.00  0.00    +0.023 A 
ATOM     20  C   UNL     1       7.388   4.421  22.580  0.00  0.00    +0.106 A 
ATOM     21  C   UNL     1       6.874   5.745  22.367  0.00  0.00    +0.261 C 
ATOM     22  O   UNL     1       7.568   6.747  22.251  0.00  0.00    -0.269 OA
ATOM     23  N   UNL     1       5.504   5.795  22.236  0.00  0.00    -0.310 N 
ATOM     24  H   UNL     1       5.149   6.735  22.114  0.00  0.00    +0.149 HD
ATOM     25  C   UNL     1       4.616   4.787  22.803  0.00  0.00    +0.112 C 
ATOM     26  C   UNL     1       4.601   2.608  24.047  0.00  0.00    +0.014 C 
ENDBRANCH   1  18
BRANCH   7  27
ATOM     27  C   UNL     1       3.816  -5.679  23.367  0.00  0.00    +0.263 C 
ATOM     28  N   UNL     1       3.868  -6.805  24.153  0.00  0.00    -0.309 N 
ATOM     29  H   UNL     1       4.730  -7.005  24.650  0.00  0.00    +0.149 HD
ATOM     30  O   UNL     1       2.780  -5.270  22.849  0.00  0.00    -0.269 OA
BRANCH  28  31
ATOM     31  C   UNL     1       2.667  -7.538  24.495  0.00  0.00    +0.120 C 
BRANCH  31  32
ATOM     32  C   UNL     1       1.986  -6.992  25.760  0.00  0.00    +0.102 C 
BRANCH  32  33
ATOM     33  N   UNL     1       2.848  -6.146  26.616  0.00  0.00    -0.307 NA
ATOM     34  C   UNL     1       2.971  -6.766  27.940  0.00  0.00    +0.104 C 
ATOM     35  C   UNL     1       2.300  -4.794  26.763  0.00  0.00    +0.104 C 
ENDBRANCH  32  33
ENDBRANCH  31  32
ENDBRANCH  28  31
ENDBRANCH   7  27
TORSDOF 5
ENDMDL
MODEL 9
REMARK VINA RESULT:      -7.0      2.154      2.877
REMARK  Name = 
REMARK  8 active torsions:
REMARK  status: ('A' for Active; 'I' for Inactive)
REMARK    1  A    between atoms: C_2  and  C_3
REMARK    2  A    between atoms: C_12  and  C_17
REMARK    3  A    between atoms: C_22  and  C_25
REMARK    4  A    between atoms: N_27  and  C_28
REMARK    5  A    between atoms: C_28  and  C_29
REMARK    6  A    between atoms: C_29  and  N_30
REMARK    7  A    between atoms: N_30  and  C_31
REMARK    8  A    between atoms: N_30  and  C_32
REMARK                            x       y       z     vdW  Elec       q    Type
REMARK                         _______ _______ _______ _____ _____    ______ ____
ROOT
ATOM      1  C   UNL     1       8.199  -3.852  25.077  0.00  0.00    +0.250 C 
ATOM      2  N   UNL     1       7.992  -2.485  25.096  0.00  0.00    -0.261 N 
ATOM      3  H   UNL     1       7.324  -2.066  25.722  0.00  0.00    +0.157 HD
ATOM      4  C   UNL     1       8.781  -1.557  24.445  0.00  0.00    +0.165 A 
ATOM      5  S   UNL     1       9.884  -2.002  23.218  0.00  0.00    -0.060 S 
ATOM      6  C   UNL     1      10.389  -0.385  23.076  0.00  0.00    +0.081 A 
ATOM      7  C   UNL     1       9.665   0.418  23.938  0.00  0.00    +0.135 A 
ATOM      8  N   UNL     1       8.707  -0.269  24.703  0.00  0.00    -0.220 NA
ATOM      9  O   UNL     1       9.118  -4.421  24.493  0.00  0.00    -0.270 OA
ENDROOT
BRANCH   1  18
ATOM     10  C   UNL     1       2.821  -5.768  24.455  0.00  0.00    +0.036 C 
ATOM     11  C   UNL     1       3.676  -6.074  25.649  0.00  0.00    -0.006 A 
ATOM     12  C   UNL     1       5.019  -5.705  25.949  0.00  0.00    +0.005 A 
ATOM     13  C   UNL     1       5.333  -6.242  27.196  0.00  0.00    +0.047 A 
ATOM     14  N   UNL     1       4.206  -6.896  27.647  0.00  0.00    -0.350 N 
ATOM     15  H   UNL     1       4.110  -7.361  28.541  0.00  0.00    +0.166 HD
ATOM     16  C   UNL     1       6.591  -6.066  27.792  0.00  0.00    +0.027 A 
ATOM     17  C   UNL     1       7.547  -5.290  27.109  0.00  0.00    +0.015 A 
ATOM     18  C   UNL     1       7.261  -4.718  25.866  0.00  0.00    +0.038 A 
ATOM     19  C   UNL     1       5.993  -4.935  25.288  0.00  0.00    +0.023 A 
ATOM     20  C   UNL     1       3.176  -6.720  26.761  0.00  0.00    +0.106 A 
ATOM     21  C   UNL     1       1.802  -7.079  26.974  0.00  0.00    +0.261 C 
ATOM     22  O   UNL     1       1.385  -7.665  27.964  0.00  0.00    -0.269 OA
ATOM     23  N   UNL     1       0.954  -6.646  25.978  0.00  0.00    -0.310 N 
ATOM     24  H   UNL     1      -0.007  -6.928  26.123  0.00  0.00    +0.149 HD
ATOM     25  C   UNL     1       1.400  -6.379  24.616  0.00  0.00    +0.112 C 
ATOM     26  C   UNL     1       3.442  -6.305  23.160  0.00  0.00    +0.014 C 
ENDBRANCH   1  18
BRANCH   7  27
ATOM     27  C   UNL     1       9.894   1.862  24.035  0.00  0.00    +0.263 C 
ATOM     28  N   UNL     1       8.796   2.590  24.424  0.00  0.00    -0.309 N 
ATOM     29  H   UNL     1       7.971   2.086  24.736  0.00  0.00    +0.149 HD
ATOM     30  O   UNL     1      10.983   2.373  23.787  0.00  0.00    -0.269 OA
BRANCH  28  31
ATOM     31  C   UNL     1       8.882   4.017  24.652  0.00  0.00    +0.120 C 
BRANCH  31  32
ATOM     32  C   UNL     1       8.412   4.834  23.439  0.00  0.00    +0.102 C 
BRANCH  32  33
ATOM     33  N   UNL     1       8.868   6.242  23.420  0.00  0.00    -0.307 NA
ATOM     34  C   UNL     1      10.228   6.316  23.967  0.00  0.00    +0.104 C 
ATOM     35  C   UNL     1       7.983   7.107  24.205  0.00  0.00    +0.104 C 
ENDBRANCH  32  33
ENDBRANCH  31  32
ENDBRANCH  28  31
ENDBRANCH   7  27
TORSDOF 5
ENDMDL
