MODEL 1
REMARK VINA RESULT:      -7.4      0.000      0.000
REMARK  Name = 
REMARK  19 active torsions:
REMARK  status: ('A' for Active; 'I' for Inactive)
REMARK    1  A    between atoms: C_1  and  C_2
REMARK    2  A    between atoms: C_2  and  C_3
REMARK    3  A    between atoms: C_3  and  C_5
REMARK    4  A    between atoms: C_3  and  C_6
REMARK    5  A    between atoms: C_6  and  N_8
REMARK    6  A    between atoms: C_6  and  C_22
REMARK    7  A    between atoms: N_8  and  S_9
REMARK    8  A    between atoms: S_9  and  C_12
REMARK    9  A    between atoms: C_12  and  C_13
REMARK   10  A    between atoms: C_15  and  C_19
REMARK   11  A    between atoms: C_19  and  O_20
REMARK   12  A    between atoms: N_24  and  C_25
REMARK   13  A    between atoms: C_25  and  C_27
REMARK   14  A    between atoms: C_25  and  C_32
REMARK   15  A    between atoms: C_27  and  C_28
REMARK   16  A    between atoms: C_28  and  C_29
REMARK   17  A    between atoms: N_34  and  C_35
REMARK   18  A    between atoms: C_35  and  C_36
REMARK   19  A    between atoms: C_39  and  C_42
REMARK                            x       y       z     vdW  Elec       q    Type
REMARK                         _______ _______ _______ _____ _____    ______ ____
ROOT
ATOM      1  C   UNL     1       8.141  -2.489  23.758  0.00  0.00    +0.159 C 
ENDROOT
BRANCH   1   3
ATOM      2  C   UNL     1       8.332  -4.947  24.506  0.00  0.00    +0.233 C 
ATOM      3  N   UNL     1       8.807  -3.673  24.323  0.00  0.00    -0.303 N 
ATOM      4  H   UNL     1       9.828  -3.636  24.307  0.00  0.00    +0.149 HD
ATOM      5  O   UNL     1       9.153  -5.843  24.691  0.00  0.00    -0.274 OA
BRANCH   2   6
ATOM      6  C   UNL     1       6.811  -5.185  24.582  0.00  0.00    +0.164 C 
BRANCH   6   7
ATOM      7  C   UNL     1       6.166  -5.811  23.318  0.00  0.00    +0.013 C 
ATOM      8  C   UNL     1       7.166  -5.857  22.151  0.00  0.00    +0.009 C 
BRANCH   7  10
ATOM      9  C   UNL     1       4.786  -3.646  23.620  0.00  0.00    +0.004 C 
ATOM     10  C   UNL     1       4.909  -4.994  22.925  0.00  0.00    +0.002 C 
ENDBRANCH   7  10
ENDBRANCH   6   7
BRANCH   6  11
ATOM     11  N   UNL     1       6.472  -5.939  25.820  0.00  0.00    -0.182 NA
ATOM     12  H   UNL     1       6.855  -6.886  25.883  0.00  0.00    +0.148 HD
BRANCH  11  13
ATOM     13  S   UNL     1       6.341  -5.293  27.348  0.00  0.00    +0.034 S 
ATOM     14  O   UNL     1       6.303  -3.857  27.219  0.00  0.00    -0.158 OA
ATOM     15  O   UNL     1       7.421  -5.928  28.082  0.00  0.00    -0.158 OA
BRANCH  13  16
ATOM     16  C   UNL     1       4.782  -5.913  28.009  0.00  0.00    +0.220 C 
BRANCH  16  17
ATOM     17  C   UNL     1       3.740  -5.840  26.926  0.00  0.00    -0.024 A 
ATOM     18  C   UNL     1       3.012  -4.654  26.729  0.00  0.00    +0.005 A 
ATOM     19  C   UNL     1       2.053  -4.570  25.729  0.00  0.00    +0.001 A 
ATOM     20  C   UNL     1       1.809  -5.671  24.904  0.00  0.00    +0.015 A 
ATOM     21  C   UNL     1       2.512  -6.866  25.104  0.00  0.00    +0.059 A 
ATOM     22  C   UNL     1       3.482  -6.945  26.110  0.00  0.00    +0.020 A 
BRANCH  21  23
ATOM     23  C   UNL     1       2.314  -8.069  24.254  0.00  0.00    +0.337 C 
ATOM     24  O   UNL     1       2.264  -9.196  24.714  0.00  0.00    -0.245 OA
BRANCH  23  25
ATOM     25  O   UNL     1       2.163  -7.801  22.941  0.00  0.00    -0.477 OA
ATOM     26  H   UNL     1       2.994  -7.724  22.439  0.00  0.00    +0.295 HD
ENDBRANCH  23  25
ENDBRANCH  21  23
ENDBRANCH  16  17
ENDBRANCH  13  16
ENDBRANCH  11  13
ENDBRANCH   6  11
ENDBRANCH   2   6
ENDBRANCH   1   3
BRANCH   1  27
ATOM     27  C   UNL     1       9.159  -1.768  22.832  0.00  0.00    +0.234 C 
ATOM     28  N   UNL     1       8.579  -0.888  21.949  0.00  0.00    -0.310 N 
ATOM     29  H   UNL     1       7.597  -0.988  21.729  0.00  0.00    +0.149 HD
ATOM     30  O   UNL     1      10.373  -1.940  22.920  0.00  0.00    -0.274 OA
BRANCH  28  31
ATOM     31  C   UNL     1       9.317   0.049  21.140  0.00  0.00    +0.139 C 
BRANCH  31  32
ATOM     32  C   UNL     1       9.293   1.394  21.803  0.00  0.00    -0.030 A 
ATOM     33  C   UNL     1       8.073   2.066  21.943  0.00  0.00    +0.006 A 
ATOM     34  C   UNL     1       8.015   3.270  22.641  0.00  0.00    +0.016 A 
ATOM     35  C   UNL     1       9.171   3.808  23.213  0.00  0.00    +0.065 A 
ATOM     36  C   UNL     1      10.392   3.144  23.072  0.00  0.00    +0.016 A 
ATOM     37  C   UNL     1      10.452   1.937  22.373  0.00  0.00    +0.006 A 
BRANCH  35  38
ATOM     38  C   UNL     1       9.078   5.086  23.971  0.00  0.00    +0.308 C 
ATOM     39  N   UNL     1       8.698   5.145  25.208  0.00  0.00    -0.099 NA
ATOM     40  H   UNL     1       8.429   4.224  25.561  0.00  0.00    +0.363 HD
ATOM     41  N   UNL     1       9.398   6.266  23.370  0.00  0.00    -0.247 N 
ATOM     42  H   UNL     1       9.491   7.009  24.055  0.00  0.00    +0.288 HD
ATOM     43  H   UNL     1      10.167   6.240  22.711  0.00  0.00    +0.288 HD
ENDBRANCH  35  38
ENDBRANCH  31  32
ENDBRANCH  28  31
ENDBRANCH   1  27
BRANCH   1  44
ATOM     44  C   UNL     1       7.651  -1.514  24.843  0.00  0.00    +0.044 C 
BRANCH  44  45
ATOM     45  C   UNL     1       8.686  -1.145  25.904  0.00  0.00    +0.130 C 
BRANCH  45  46
ATOM     46  C   UNL     1       9.285   0.209  25.622  0.00  0.00    +0.276 C 
ATOM     47  N   UNL     1      10.534   0.347  25.338  0.00  0.00    -0.104 NA
ATOM     48  H   UNL     1      11.026  -0.551  25.356  0.00  0.00    +0.363 HD
ATOM     49  N   UNL     1       8.478   1.300  25.659  0.00  0.00    -0.251 N 
ATOM     50  H   UNL     1       8.909   2.123  25.253  0.00  0.00    +0.288 HD
ATOM     51  H   UNL     1       7.505   1.181  25.402  0.00  0.00    +0.288 HD
ENDBRANCH  45  46
ENDBRANCH  44  45
ENDBRANCH   1  44
TORSDOF 17
ENDMDL
MODEL 2
REMARK VINA RESULT:      -7.3      2.562      6.395
REMARK  Name = 
REMARK  19 active torsions:
REMARK  status: ('A' for Active; 'I' for Inactive)
REMARK    1  A    between atoms: C_1  and  C_2
REMARK    2  A    between atoms: C_2  and  C_3
REMARK    3  A    between atoms: C_3  and  C_5
REMARK    4  A    between atoms: C_3  and  C_6
REMARK    5  A    between atoms: C_6  and  N_8
REMARK    6  A    between atoms: C_6  and  C_22
REMARK    7  A    between atoms: N_8  and  S_9
REMARK    8  A    between atoms: S_9  and  C_12
REMARK    9  A    between atoms: C_12  and  C_13
REMARK   10  A    between atoms: C_15  and  C_19
REMARK   11  A    between atoms: C_19  and  O_20
REMARK   12  A    between atoms: N_24  and  C_25
REMARK   13  A    between atoms: C_25  and  C_27
REMARK   14  A    between atoms: C_25  and  C_32
REMARK   15  A    between atoms: C_27  and  C_28
REMARK   16  A    between atoms: C_28  and  C_29
REMARK   17  A    between atoms: N_34  and  C_35
REMARK   18  A    between atoms: C_35  and  C_36
REMARK   19  A    between atoms: C_39  and  C_42
REMARK                            x       y       z     vdW  Elec       q    Type
REMARK                         _______ _______ _______ _____ _____    ______ ____
ROOT
ATOM      1  C   UNL     1       4.457  -3.119  25.657  0.00  0.00    +0.159 C 
ENDROOT
BRANCH   1   3
ATOM      2  C   UNL     1       5.516  -3.386  23.324  0.00  0.00    +0.233 C 
ATOM      3  N   UNL     1       4.824  -2.705  24.293  0.00  0.00    -0.303 N 
ATOM      4  H   UNL     1       4.253  -1.950  23.908  0.00  0.00    +0.149 HD
ATOM      5  O   UNL     1       5.426  -2.981  22.166  0.00  0.00    -0.274 OA
BRANCH   2   6
ATOM      6  C   UNL     1       6.450  -4.542  23.729  0.00  0.00    +0.164 C 
BRANCH   6   7
ATOM      7  C   UNL     1       6.113  -5.925  23.111  0.00  0.00    +0.013 C 
ATOM      8  C   UNL     1       6.650  -6.035  21.675  0.00  0.00    +0.009 C 
BRANCH   7  10
ATOM      9  C   UNL     1       4.066  -6.938  24.322  0.00  0.00    +0.004 C 
ATOM     10  C   UNL     1       4.578  -6.136  23.136  0.00  0.00    +0.002 C 
ENDBRANCH   7  10
ENDBRANCH   6   7
BRANCH   6  11
ATOM     11  N   UNL     1       7.870  -4.156  23.505  0.00  0.00    -0.182 NA
ATOM     12  H   UNL     1       8.054  -3.608  22.661  0.00  0.00    +0.148 HD
BRANCH  11  13
ATOM     13  S   UNL     1       8.962  -3.732  24.687  0.00  0.00    +0.034 S 
ATOM     14  O   UNL     1      10.236  -3.505  24.050  0.00  0.00    -0.158 OA
ATOM     15  O   UNL     1       8.822  -4.785  25.677  0.00  0.00    -0.158 OA
BRANCH  13  16
ATOM     16  C   UNL     1       8.332  -2.205  25.410  0.00  0.00    +0.220 C 
BRANCH  16  17
ATOM     17  C   UNL     1       9.053  -1.044  24.781  0.00  0.00    -0.024 A 
ATOM     18  C   UNL     1       9.986  -0.307  25.529  0.00  0.00    +0.005 A 
ATOM     19  C   UNL     1      10.664   0.763  24.960  0.00  0.00    +0.001 A 
ATOM     20  C   UNL     1      10.424   1.109  23.628  0.00  0.00    +0.015 A 
ATOM     21  C   UNL     1       9.480   0.396  22.877  0.00  0.00    +0.059 A 
ATOM     22  C   UNL     1       8.803  -0.684  23.453  0.00  0.00    +0.020 A 
BRANCH  21  23
ATOM     23  C   UNL     1       9.188   0.700  21.453  0.00  0.00    +0.337 C 
ATOM     24  O   UNL     1       9.029  -0.171  20.615  0.00  0.00    -0.245 OA
BRANCH  23  25
ATOM     25  O   UNL     1       9.081   2.016  21.177  0.00  0.00    -0.477 OA
ATOM     26  H   UNL     1       8.499   2.233  20.427  0.00  0.00    +0.295 HD
ENDBRANCH  23  25
ENDBRANCH  21  23
ENDBRANCH  16  17
ENDBRANCH  13  16
ENDBRANCH  11  13
ENDBRANCH   6  11
ENDBRANCH   2   6
ENDBRANCH   1   3
BRANCH   1  27
ATOM     27  C   UNL     1       4.416  -1.844  26.544  0.00  0.00    +0.234 C 
ATOM     28  N   UNL     1       5.551  -1.074  26.461  0.00  0.00    -0.310 N 
ATOM     29  H   UNL     1       6.408  -1.494  26.127  0.00  0.00    +0.149 HD
ATOM     30  O   UNL     1       3.435  -1.538  27.219  0.00  0.00    -0.274 OA
BRANCH  28  31
ATOM     31  C   UNL     1       5.670   0.251  27.017  0.00  0.00    +0.139 C 
BRANCH  31  32
ATOM     32  C   UNL     1       6.264   1.163  25.985  0.00  0.00    -0.030 A 
ATOM     33  C   UNL     1       5.756   1.145  24.681  0.00  0.00    +0.006 A 
ATOM     34  C   UNL     1       6.227   2.051  23.735  0.00  0.00    +0.016 A 
ATOM     35  C   UNL     1       7.204   2.989  24.083  0.00  0.00    +0.065 A 
ATOM     36  C   UNL     1       7.720   3.007  25.382  0.00  0.00    +0.016 A 
ATOM     37  C   UNL     1       7.247   2.100  26.333  0.00  0.00    +0.006 A 
BRANCH  35  38
ATOM     38  C   UNL     1       7.678   3.958  23.058  0.00  0.00    +0.308 C 
ATOM     39  N   UNL     1       8.848   4.512  23.100  0.00  0.00    -0.099 NA
ATOM     40  H   UNL     1       9.363   4.237  23.940  0.00  0.00    +0.363 HD
ATOM     41  N   UNL     1       6.872   4.304  22.016  0.00  0.00    -0.247 N 
ATOM     42  H   UNL     1       7.396   4.797  21.300  0.00  0.00    +0.288 HD
ATOM     43  H   UNL     1       6.286   3.569  21.638  0.00  0.00    +0.288 HD
ENDBRANCH  35  38
ENDBRANCH  31  32
ENDBRANCH  28  31
ENDBRANCH   1  27
BRANCH   1  44
ATOM     44  C   UNL     1       5.450  -4.131  26.254  0.00  0.00    +0.044 C 
BRANCH  44  45
ATOM     45  C   UNL     1       5.001  -4.799  27.551  0.00  0.00    +0.130 C 
BRANCH  45  46
ATOM     46  C   UNL     1       5.819  -6.034  27.830  0.00  0.00    +0.276 C 
ATOM     47  N   UNL     1       7.080  -5.965  28.082  0.00  0.00    -0.104 NA
ATOM     48  H   UNL     1       7.420  -5.000  28.041  0.00  0.00    +0.363 HD
ATOM     49  N   UNL     1       5.198  -7.242  27.825  0.00  0.00    -0.251 N 
ATOM     50  H   UNL     1       5.766  -7.979  28.226  0.00  0.00    +0.288 HD
ATOM     51  H   UNL     1       4.225  -7.277  28.107  0.00  0.00    +0.288 HD
ENDBRANCH  45  46
ENDBRANCH  44  45
ENDBRANCH   1  44
TORSDOF 17
ENDMDL
MODEL 3
REMARK VINA RESULT:      -7.3      2.013      3.850
REMARK  Name = 
REMARK  19 active torsions:
REMARK  status: ('A' for Active; 'I' for Inactive)
REMARK    1  A    between atoms: C_1  and  C_2
REMARK    2  A    between atoms: C_2  and  C_3
REMARK    3  A    between atoms: C_3  and  C_5
REMARK    4  A    between atoms: C_3  and  C_6
REMARK    5  A    between atoms: C_6  and  N_8
REMARK    6  A    between atoms: C_6  and  C_22
REMARK    7  A    between atoms: N_8  and  S_9
REMARK    8  A    between atoms: S_9  and  C_12
REMARK    9  A    between atoms: C_12  and  C_13
REMARK   10  A    between atoms: C_15  and  C_19
REMARK   11  A    between atoms: C_19  and  O_20
REMARK   12  A    between atoms: N_24  and  C_25
REMARK   13  A    between atoms: C_25  and  C_27
REMARK   14  A    between atoms: C_25  and  C_32
REMARK   15  A    between atoms: C_27  and  C_28
REMARK   16  A    between atoms: C_28  and  C_29
REMARK   17  A    between atoms: N_34  and  C_35
REMARK   18  A    between atoms: C_35  and  C_36
REMARK   19  A    between atoms: C_39  and  C_42
REMARK                            x       y       z     vdW  Elec       q    Type
REMARK                         _______ _______ _______ _____ _____    ______ ____
ROOT
ATOM      1  C   UNL     1       8.186  -2.956  24.161  0.00  0.00    +0.159 C 
ENDROOT
BRANCH   1   3
ATOM      2  C   UNL     1       6.238  -1.436  24.890  0.00  0.00    +0.233 C 
ATOM      3  N   UNL     1       6.921  -2.222  23.997  0.00  0.00    -0.303 N 
ATOM      4  H   UNL     1       6.666  -2.024  23.028  0.00  0.00    +0.149 HD
ATOM      5  O   UNL     1       5.386  -0.670  24.443  0.00  0.00    -0.274 OA
BRANCH   2   6
ATOM      6  C   UNL     1       6.481  -1.619  26.401  0.00  0.00    +0.164 C 
BRANCH   6   7
ATOM      7  C   UNL     1       7.342  -0.522  27.080  0.00  0.00    +0.013 C 
ATOM      8  C   UNL     1       6.487   0.364  27.999  0.00  0.00    +0.009 C 
BRANCH   7  10
ATOM      9  C   UNL     1       7.558   1.778  25.918  0.00  0.00    +0.004 C 
ATOM     10  C   UNL     1       8.033   0.335  25.988  0.00  0.00    +0.002 C 
ENDBRANCH   7  10
ENDBRANCH   6   7
BRANCH   6  11
ATOM     11  N   UNL     1       5.187  -1.834  27.105  0.00  0.00    -0.182 NA
ATOM     12  H   UNL     1       4.366  -1.408  26.667  0.00  0.00    +0.148 HD
BRANCH  11  13
ATOM     13  S   UNL     1       4.730  -3.224  27.899  0.00  0.00    +0.034 S 
ATOM     14  O   UNL     1       4.398  -2.868  29.256  0.00  0.00    -0.158 OA
ATOM     15  O   UNL     1       5.821  -4.144  27.635  0.00  0.00    -0.158 OA
BRANCH  13  16
ATOM     16  C   UNL     1       3.272  -3.828  27.026  0.00  0.00    +0.220 C 
BRANCH  16  17
ATOM     17  C   UNL     1       3.705  -4.877  26.039  0.00  0.00    -0.024 A 
ATOM     18  C   UNL     1       3.705  -6.233  26.407  0.00  0.00    +0.005 A 
ATOM     19  C   UNL     1       4.096  -7.212  25.503  0.00  0.00    +0.001 A 
ATOM     20  C   UNL     1       4.490  -6.851  24.213  0.00  0.00    +0.015 A 
ATOM     21  C   UNL     1       4.516  -5.501  23.840  0.00  0.00    +0.059 A 
ATOM     22  C   UNL     1       4.116  -4.517  24.751  0.00  0.00    +0.020 A 
BRANCH  21  23
ATOM     23  C   UNL     1       4.909  -5.048  22.480  0.00  0.00    +0.337 C 
ATOM     24  O   UNL     1       4.974  -3.870  22.174  0.00  0.00    -0.245 OA
BRANCH  23  25
ATOM     25  O   UNL     1       5.217  -6.049  21.630  0.00  0.00    -0.477 OA
ATOM     26  H   UNL     1       5.503  -6.876  22.057  0.00  0.00    +0.295 HD
ENDBRANCH  23  25
ENDBRANCH  21  23
ENDBRANCH  16  17
ENDBRANCH  13  16
ENDBRANCH  11  13
ENDBRANCH   6  11
ENDBRANCH   2   6
ENDBRANCH   1   3
BRANCH   1  27
ATOM     27  C   UNL     1       9.236  -2.312  23.214  0.00  0.00    +0.234 C 
ATOM     28  N   UNL     1       8.691  -1.472  22.272  0.00  0.00    -0.310 N 
ATOM     29  H   UNL     1       7.711  -1.562  22.040  0.00  0.00    +0.149 HD
ATOM     30  O   UNL     1      10.444  -2.505  23.334  0.00  0.00    -0.274 OA
BRANCH  28  31
ATOM     31  C   UNL     1       9.465  -0.599  21.424  0.00  0.00    +0.139 C 
BRANCH  31  32
ATOM     32  C   UNL     1       9.359   0.805  21.941  0.00  0.00    -0.030 A 
ATOM     33  C   UNL     1       8.251   1.583  21.587  0.00  0.00    +0.006 A 
ATOM     34  C   UNL     1       8.085   2.853  22.134  0.00  0.00    +0.016 A 
ATOM     35  C   UNL     1       9.020   3.354  23.044  0.00  0.00    +0.065 A 
ATOM     36  C   UNL     1      10.131   2.584  23.396  0.00  0.00    +0.016 A 
ATOM     37  C   UNL     1      10.298   1.310  22.850  0.00  0.00    +0.006 A 
BRANCH  35  38
ATOM     38  C   UNL     1       8.810   4.707  23.629  0.00  0.00    +0.308 C 
ATOM     39  N   UNL     1       8.479   5.737  22.918  0.00  0.00    -0.099 NA
ATOM     40  H   UNL     1       8.436   5.508  21.922  0.00  0.00    +0.363 HD
ATOM     41  N   UNL     1       8.965   4.909  24.967  0.00  0.00    -0.247 N 
ATOM     42  H   UNL     1       8.589   5.810  25.244  0.00  0.00    +0.288 HD
ATOM     43  H   UNL     1       8.664   4.155  25.572  0.00  0.00    +0.288 HD
ENDBRANCH  35  38
ENDBRANCH  31  32
ENDBRANCH  28  31
ENDBRANCH   1  27
BRANCH   1  44
ATOM     44  C   UNL     1       8.046  -4.453  23.832  0.00  0.00    +0.044 C 
BRANCH  44  45
ATOM     45  C   UNL     1       7.908  -5.376  25.041  0.00  0.00    +0.130 C 
BRANCH  45  46
ATOM     46  C   UNL     1       9.060  -5.187  25.995  0.00  0.00    +0.276 C 
ATOM     47  N   UNL     1       8.877  -4.756  27.195  0.00  0.00    -0.104 NA
ATOM     48  H   UNL     1       7.890  -4.554  27.376  0.00  0.00    +0.363 HD
ATOM     49  N   UNL     1      10.314  -5.494  25.573  0.00  0.00    -0.251 N 
ATOM     50  H   UNL     1      10.984  -5.541  26.331  0.00  0.00    +0.288 HD
ATOM     51  H   UNL     1      10.417  -6.235  24.889  0.00  0.00    +0.288 HD
ENDBRANCH  45  46
ENDBRANCH  44  45
ENDBRANCH   1  44
TORSDOF 17
ENDMDL
MODEL 4
REMARK VINA RESULT:      -7.2      2.630      4.661
REMARK  Name = 
REMARK  19 active torsions:
REMARK  status: ('A' for Active; 'I' for Inactive)
REMARK    1  A    between atoms: C_1  and  C_2
REMARK    2  A    between atoms: C_2  and  C_3
REMARK    3  A    between atoms: C_3  and  C_5
REMARK    4  A    between atoms: C_3  and  C_6
REMARK    5  A    between atoms: C_6  and  N_8
REMARK    6  A    between atoms: C_6  and  C_22
REMARK    7  A    between atoms: N_8  and  S_9
REMARK    8  A    between atoms: S_9  and  C_12
REMARK    9  A    between atoms: C_12  and  C_13
REMARK   10  A    between atoms: C_15  and  C_19
REMARK   11  A    between atoms: C_19  and  O_20
REMARK   12  A    between atoms: N_24  and  C_25
REMARK   13  A    between atoms: C_25  and  C_27
REMARK   14  A    between atoms: C_25  and  C_32
REMARK   15  A    between atoms: C_27  and  C_28
REMARK   16  A    between atoms: C_28  and  C_29
REMARK   17  A    between atoms: N_34  and  C_35
REMARK   18  A    between atoms: C_35  and  C_36
REMARK   19  A    between atoms: C_39  and  C_42
REMARK                            x       y       z     vdW  Elec       q    Type
REMARK                         _______ _______ _______ _____ _____    ______ ____
ROOT
ATOM      1  C   UNL     1       7.411   0.486  26.320  0.00  0.00    +0.159 C 
ENDROOT
BRANCH   1   3
ATOM      2  C   UNL     1       9.556  -0.347  25.162  0.00  0.00    +0.233 C 
ATOM      3  N   UNL     1       8.861   0.309  26.146  0.00  0.00    -0.303 N 
ATOM      4  H   UNL     1       9.437   0.994  26.640  0.00  0.00    +0.149 HD
ATOM      5  O   UNL     1      10.753  -0.095  25.042  0.00  0.00    -0.274 OA
BRANCH   2   6
ATOM      6  C   UNL     1       8.849  -1.437  24.333  0.00  0.00    +0.164 C 
BRANCH   6   7
ATOM      7  C   UNL     1       8.751  -1.163  22.809  0.00  0.00    +0.013 C 
ATOM      8  C   UNL     1      10.086  -1.458  22.107  0.00  0.00    +0.009 C 
BRANCH   7  10
ATOM      9  C   UNL     1       9.032   0.999  21.420  0.00  0.00    +0.004 C 
ATOM     10  C   UNL     1       8.330   0.311  22.581  0.00  0.00    +0.002 C 
ENDBRANCH   7  10
ENDBRANCH   6   7
BRANCH   6  11
ATOM     11  N   UNL     1       9.441  -2.770  24.628  0.00  0.00    -0.182 NA
ATOM     12  H   UNL     1      10.348  -2.760  25.102  0.00  0.00    +0.148 HD
BRANCH  11  13
ATOM     13  S   UNL     1       8.598  -4.131  25.084  0.00  0.00    +0.034 S 
ATOM     14  O   UNL     1       9.176  -4.618  26.312  0.00  0.00    -0.158 OA
ATOM     15  O   UNL     1       8.617  -4.961  23.893  0.00  0.00    -0.158 OA
BRANCH  13  16
ATOM     16  C   UNL     1       6.900  -3.586  25.353  0.00  0.00    +0.220 C 
BRANCH  16  17
ATOM     17  C   UNL     1       6.042  -4.796  25.602  0.00  0.00    -0.024 A 
ATOM     18  C   UNL     1       5.263  -5.333  24.563  0.00  0.00    +0.005 A 
ATOM     19  C   UNL     1       4.472  -6.454  24.777  0.00  0.00    +0.001 A 
ATOM     20  C   UNL     1       4.451  -7.061  26.035  0.00  0.00    +0.015 A 
ATOM     21  C   UNL     1       5.206  -6.523  27.086  0.00  0.00    +0.059 A 
ATOM     22  C   UNL     1       6.006  -5.397  26.865  0.00  0.00    +0.020 A 
BRANCH  21  23
ATOM     23  C   UNL     1       5.243  -7.127  28.443  0.00  0.00    +0.337 C 
ATOM     24  O   UNL     1       6.276  -7.250  29.079  0.00  0.00    -0.245 OA
BRANCH  23  25
ATOM     25  O   UNL     1       4.036  -7.496  28.918  0.00  0.00    -0.477 OA
ATOM     26  H   UNL     1       4.063  -8.069  29.706  0.00  0.00    +0.295 HD
ENDBRANCH  23  25
ENDBRANCH  21  23
ENDBRANCH  16  17
ENDBRANCH  13  16
ENDBRANCH  11  13
ENDBRANCH   6  11
ENDBRANCH   2   6
ENDBRANCH   1   3
BRANCH   1  27
ATOM     27  C   UNL     1       7.009   1.818  25.629  0.00  0.00    +0.234 C 
ATOM     28  N   UNL     1       7.865   2.861  25.894  0.00  0.00    -0.310 N 
ATOM     29  H   UNL     1       8.462   2.813  26.709  0.00  0.00    +0.149 HD
ATOM     30  O   UNL     1       6.040   1.910  24.879  0.00  0.00    -0.274 OA
BRANCH  28  31
ATOM     31  C   UNL     1       7.829   4.129  25.210  0.00  0.00    +0.139 C 
BRANCH  31  32
ATOM     32  C   UNL     1       9.185   4.412  24.634  0.00  0.00    -0.030 A 
ATOM     33  C   UNL     1       9.901   3.374  24.026  0.00  0.00    +0.006 A 
ATOM     34  C   UNL     1      11.117   3.638  23.400  0.00  0.00    +0.016 A 
ATOM     35  C   UNL     1      11.625   4.940  23.368  0.00  0.00    +0.065 A 
ATOM     36  C   UNL     1      10.917   5.978  23.979  0.00  0.00    +0.016 A 
ATOM     37  C   UNL     1       9.697   5.717  24.606  0.00  0.00    +0.006 A 
BRANCH  35  38
ATOM     38  C   UNL     1      12.917   5.197  22.676  0.00  0.00    +0.308 C 
ATOM     39  N   UNL     1      14.063   5.122  23.275  0.00  0.00    -0.099 NA
ATOM     40  H   UNL     1      13.954   4.918  24.271  0.00  0.00    +0.363 HD
ATOM     41  N   UNL     1      12.935   5.531  21.356  0.00  0.00    -0.247 N 
ATOM     42  H   UNL     1      13.875   5.468  20.978  0.00  0.00    +0.288 HD
ATOM     43  H   UNL     1      12.244   5.079  20.769  0.00  0.00    +0.288 HD
ENDBRANCH  35  38
ENDBRANCH  31  32
ENDBRANCH  28  31
ENDBRANCH   1  27
BRANCH   1  44
ATOM     44  C   UNL     1       6.995   0.528  27.801  0.00  0.00    +0.044 C 
BRANCH  44  45
ATOM     45  C   UNL     1       5.499   0.698  28.054  0.00  0.00    +0.130 C 
BRANCH  45  46
ATOM     46  C   UNL     1       4.709  -0.370  27.342  0.00  0.00    +0.276 C 
ATOM     47  N   UNL     1       3.921  -0.086  26.364  0.00  0.00    -0.104 NA
ATOM     48  H   UNL     1       3.902   0.920  26.175  0.00  0.00    +0.363 HD
ATOM     49  N   UNL     1       4.849  -1.661  27.742  0.00  0.00    -0.251 N 
ATOM     50  H   UNL     1       4.455  -2.322  27.083  0.00  0.00    +0.288 HD
ATOM     51  H   UNL     1       5.743  -1.946  28.122  0.00  0.00    +0.288 HD
ENDBRANCH  45  46
ENDBRANCH  44  45
ENDBRANCH   1  44
TORSDOF 17
ENDMDL
MODEL 5
REMARK VINA RESULT:      -7.2      3.100      8.109
REMARK  Name = 
REMARK  19 active torsions:
REMARK  status: ('A' for Active; 'I' for Inactive)
REMARK    1  A    between atoms: C_1  and  C_2
REMARK    2  A    between atoms: C_2  and  C_3
REMARK    3  A    between atoms: C_3  and  C_5
REMARK    4  A    between atoms: C_3  and  C_6
REMARK    5  A    between atoms: C_6  and  N_8
REMARK    6  A    between atoms: C_6  and  C_22
REMARK    7  A    between atoms: N_8  and  S_9
REMARK    8  A    between atoms: S_9  and  C_12
REMARK    9  A    between atoms: C_12  and  C_13
REMARK   10  A    between atoms: C_15  and  C_19
REMARK   11  A    between atoms: C_19  and  O_20
REMARK   12  A    between atoms: N_24  and  C_25
REMARK   13  A    between atoms: C_25  and  C_27
REMARK   14  A    between atoms: C_25  and  C_32
REMARK   15  A    between atoms: C_27  and  C_28
REMARK   16  A    between atoms: C_28  and  C_29
REMARK   17  A    between atoms: N_34  and  C_35
REMARK   18  A    between atoms: C_35  and  C_36
REMARK   19  A    between atoms: C_39  and  C_42
REMARK                            x       y       z     vdW  Elec       q    Type
REMARK                         _______ _______ _______ _____ _____    ______ ____
ROOT
ATOM      1  C   UNL     1       7.499   1.060  26.255  0.00  0.00    +0.159 C 
ENDROOT
BRANCH   1   3
ATOM      2  C   UNL     1       9.748   0.766  25.034  0.00  0.00    +0.233 C 
ATOM      3  N   UNL     1       8.796   0.430  25.963  0.00  0.00    -0.303 N 
ATOM      4  H   UNL     1       9.175  -0.138  26.723  0.00  0.00    +0.149 HD
ATOM      5  O   UNL     1      10.879   0.307  25.183  0.00  0.00    -0.274 OA
BRANCH   2   6
ATOM      6  C   UNL     1       9.345   1.601  23.802  0.00  0.00    +0.164 C 
BRANCH   6   7
ATOM      7  C   UNL     1       9.696   3.110  23.871  0.00  0.00    +0.013 C 
ATOM      8  C   UNL     1       8.672   3.952  23.093  0.00  0.00    +0.009 C 
BRANCH   7  10
ATOM      9  C   UNL     1      11.623   4.764  23.384  0.00  0.00    +0.004 C 
ATOM     10  C   UNL     1      11.123   3.330  23.306  0.00  0.00    +0.002 C 
ENDBRANCH   7  10
ENDBRANCH   6   7
BRANCH   6  11
ATOM     11  N   UNL     1       9.856   0.959  22.560  0.00  0.00    -0.182 NA
ATOM     12  H   UNL     1      10.841   1.130  22.343  0.00  0.00    +0.148 HD
BRANCH  11  13
ATOM     13  S   UNL     1       9.419  -0.542  21.989  0.00  0.00    +0.034 S 
ATOM     14  O   UNL     1      10.467  -1.470  22.336  0.00  0.00    -0.158 OA
ATOM     15  O   UNL     1       9.097  -0.297  20.594  0.00  0.00    -0.158 OA
BRANCH  13  16
ATOM     16  C   UNL     1       7.889  -0.964  22.845  0.00  0.00    +0.220 C 
BRANCH  16  17
ATOM     17  C   UNL     1       7.905  -2.435  23.159  0.00  0.00    -0.024 A 
ATOM     18  C   UNL     1       7.321  -3.351  22.268  0.00  0.00    +0.005 A 
ATOM     19  C   UNL     1       7.335  -4.712  22.542  0.00  0.00    +0.001 A 
ATOM     20  C   UNL     1       7.940  -5.181  23.711  0.00  0.00    +0.015 A 
ATOM     21  C   UNL     1       8.507  -4.276  24.618  0.00  0.00    +0.059 A 
ATOM     22  C   UNL     1       8.495  -2.906  24.336  0.00  0.00    +0.020 A 
BRANCH  21  23
ATOM     23  C   UNL     1       9.180  -4.707  25.870  0.00  0.00    +0.337 C 
ATOM     24  O   UNL     1       8.800  -4.355  26.974  0.00  0.00    -0.245 OA
BRANCH  23  25
ATOM     25  O   UNL     1      10.221  -5.543  25.681  0.00  0.00    -0.477 OA
ATOM     26  H   UNL     1      10.232  -6.323  26.264  0.00  0.00    +0.295 HD
ENDBRANCH  23  25
ENDBRANCH  21  23
ENDBRANCH  16  17
ENDBRANCH  13  16
ENDBRANCH  11  13
ENDBRANCH   6  11
ENDBRANCH   2   6
ENDBRANCH   1   3
BRANCH   1  27
ATOM     27  C   UNL     1       6.723   0.125  27.223  0.00  0.00    +0.234 C 
ATOM     28  N   UNL     1       6.299  -1.046  26.641  0.00  0.00    -0.310 N 
ATOM     29  H   UNL     1       6.219  -1.095  25.635  0.00  0.00    +0.149 HD
ATOM     30  O   UNL     1       6.552   0.395  28.410  0.00  0.00    -0.274 OA
BRANCH  28  31
ATOM     31  C   UNL     1       5.750  -2.160  27.375  0.00  0.00    +0.139 C 
BRANCH  31  32
ATOM     32  C   UNL     1       5.320  -3.220  26.405  0.00  0.00    -0.030 A 
ATOM     33  C   UNL     1       5.439  -4.567  26.765  0.00  0.00    +0.006 A 
ATOM     34  C   UNL     1       4.956  -5.562  25.919  0.00  0.00    +0.016 A 
ATOM     35  C   UNL     1       4.343  -5.222  24.710  0.00  0.00    +0.065 A 
ATOM     36  C   UNL     1       4.227  -3.878  24.342  0.00  0.00    +0.016 A 
ATOM     37  C   UNL     1       4.709  -2.879  25.190  0.00  0.00    +0.006 A 
BRANCH  35  38
ATOM     38  C   UNL     1       3.818  -6.303  23.833  0.00  0.00    +0.308 C 
ATOM     39  N   UNL     1       4.231  -7.529  23.903  0.00  0.00    -0.099 NA
ATOM     40  H   UNL     1       4.983  -7.633  24.588  0.00  0.00    +0.363 HD
ATOM     41  N   UNL     1       2.861  -6.030  22.903  0.00  0.00    -0.247 N 
ATOM     42  H   UNL     1       2.457  -6.886  22.535  0.00  0.00    +0.288 HD
ATOM     43  H   UNL     1       2.162  -5.347  23.166  0.00  0.00    +0.288 HD
ENDBRANCH  35  38
ENDBRANCH  31  32
ENDBRANCH  28  31
ENDBRANCH   1  27
BRANCH   1  44
ATOM     44  C   UNL     1       6.660   1.299  24.987  0.00  0.00    +0.044 C 
BRANCH  44  45
ATOM     45  C   UNL     1       5.769   2.539  25.017  0.00  0.00    +0.130 C 
BRANCH  45  46
ATOM     46  C   UNL     1       4.819   2.546  23.847  0.00  0.00    +0.276 C 
ATOM     47  N   UNL     1       3.542   2.572  24.017  0.00  0.00    -0.104 NA
ATOM     48  H   UNL     1       3.293   2.565  25.010  0.00  0.00    +0.363 HD
ATOM     49  N   UNL     1       5.331   2.536  22.590  0.00  0.00    -0.251 N 
ATOM     50  H   UNL     1       4.641   2.755  21.881  0.00  0.00    +0.288 HD
ATOM     51  H   UNL     1       6.228   2.983  22.439  0.00  0.00    +0.288 HD
ENDBRANCH  45  46
ENDBRANCH  44  45
ENDBRANCH   1  44
TORSDOF 17
ENDMDL
MODEL 6
REMARK VINA RESULT:      -7.2      3.244      9.383
REMARK  Name = 
REMARK  19 active torsions:
REMARK  status: ('A' for Active; 'I' for Inactive)
REMARK    1  A    between atoms: C_1  and  C_2
REMARK    2  A    between atoms: C_2  and  C_3
REMARK    3  A    between atoms: C_3  and  C_5
REMARK    4  A    between atoms: C_3  and  C_6
REMARK    5  A    between atoms: C_6  and  N_8
REMARK    6  A    between atoms: C_6  and  C_22
REMARK    7  A    between atoms: N_8  and  S_9
REMARK    8  A    between atoms: S_9  and  C_12
REMARK    9  A    between atoms: C_12  and  C_13
REMARK   10  A    between atoms: C_15  and  C_19
REMARK   11  A    between atoms: C_19  and  O_20
REMARK   12  A    between atoms: N_24  and  C_25
REMARK   13  A    between atoms: C_25  and  C_27
REMARK   14  A    between atoms: C_25  and  C_32
REMARK   15  A    between atoms: C_27  and  C_28
REMARK   16  A    between atoms: C_28  and  C_29
REMARK   17  A    between atoms: N_34  and  C_35
REMARK   18  A    between atoms: C_35  and  C_36
REMARK   19  A    between atoms: C_39  and  C_42
REMARK                            x       y       z     vdW  Elec       q    Type
REMARK                         _______ _______ _______ _____ _____    ______ ____
ROOT
ATOM      1  C   UNL     1       7.959  -1.201  22.898  0.00  0.00    +0.159 C 
ENDROOT
BRANCH   1   3
ATOM      2  C   UNL     1       8.056  -1.353  25.468  0.00  0.00    +0.233 C 
ATOM      3  N   UNL     1       8.600  -1.392  24.209  0.00  0.00    -0.303 N 
ATOM      4  H   UNL     1       9.484  -1.903  24.181  0.00  0.00    +0.149 HD
ATOM      5  O   UNL     1       8.703  -1.854  26.386  0.00  0.00    -0.274 OA
BRANCH   2   6
ATOM      6  C   UNL     1       6.733  -0.598  25.700  0.00  0.00    +0.164 C 
BRANCH   6   7
ATOM      7  C   UNL     1       5.743  -1.268  26.688  0.00  0.00    +0.013 C 
ATOM      8  C   UNL     1       4.925  -2.367  25.993  0.00  0.00    +0.009 C 
BRANCH   7  10
ATOM      9  C   UNL     1       4.501  -0.358  28.766  0.00  0.00    +0.004 C 
ATOM     10  C   UNL     1       4.806  -0.187  27.285  0.00  0.00    +0.002 C 
ENDBRANCH   7  10
ENDBRANCH   6   7
BRANCH   6  11
ATOM     11  N   UNL     1       7.008   0.822  26.053  0.00  0.00    -0.182 NA
ATOM     12  H   UNL     1       7.326   0.988  27.011  0.00  0.00    +0.148 HD
BRANCH  11  13
ATOM     13  S   UNL     1       7.676   1.964  25.044  0.00  0.00    +0.034 S 
ATOM     14  O   UNL     1       6.918   1.968  23.818  0.00  0.00    -0.158 OA
ATOM     15  O   UNL     1       9.087   1.622  25.025  0.00  0.00    -0.158 OA
BRANCH  13  16
ATOM     16  C   UNL     1       7.500   3.539  25.905  0.00  0.00    +0.220 C 
BRANCH  16  17
ATOM     17  C   UNL     1       8.015   4.634  25.012  0.00  0.00    -0.024 A 
ATOM     18  C   UNL     1       7.123   5.561  24.448  0.00  0.00    +0.005 A 
ATOM     19  C   UNL     1       7.585   6.581  23.627  0.00  0.00    +0.001 A 
ATOM     20  C   UNL     1       8.952   6.693  23.360  0.00  0.00    +0.015 A 
ATOM     21  C   UNL     1       9.850   5.762  23.898  0.00  0.00    +0.059 A 
ATOM     22  C   UNL     1       9.381   4.739  24.729  0.00  0.00    +0.020 A 
BRANCH  21  23
ATOM     23  C   UNL     1      11.316   5.832  23.668  0.00  0.00    +0.337 C 
ATOM     24  O   UNL     1      12.078   6.380  24.446  0.00  0.00    -0.245 OA
BRANCH  23  25
ATOM     25  O   UNL     1      11.731   5.211  22.545  0.00  0.00    -0.477 OA
ATOM     26  H   UNL     1      12.388   5.705  22.022  0.00  0.00    +0.295 HD
ENDBRANCH  23  25
ENDBRANCH  21  23
ENDBRANCH  16  17
ENDBRANCH  13  16
ENDBRANCH  11  13
ENDBRANCH   6  11
ENDBRANCH   2   6
ENDBRANCH   1   3
BRANCH   1  27
ATOM     27  C   UNL     1       7.072  -2.446  22.617  0.00  0.00    +0.234 C 
ATOM     28  N   UNL     1       7.755  -3.637  22.678  0.00  0.00    -0.310 N 
ATOM     29  H   UNL     1       8.761  -3.634  22.577  0.00  0.00    +0.149 HD
ATOM     30  O   UNL     1       5.864  -2.365  22.407  0.00  0.00    -0.274 OA
BRANCH  28  31
ATOM     31  C   UNL     1       7.121  -4.932  22.665  0.00  0.00    +0.139 C 
BRANCH  31  32
ATOM     32  C   UNL     1       6.797  -5.332  24.074  0.00  0.00    -0.030 A 
ATOM     33  C   UNL     1       7.756  -5.145  25.076  0.00  0.00    +0.006 A 
ATOM     34  C   UNL     1       7.440  -5.419  26.405  0.00  0.00    +0.016 A 
ATOM     35  C   UNL     1       6.163  -5.875  26.745  0.00  0.00    +0.065 A 
ATOM     36  C   UNL     1       5.204  -6.069  25.747  0.00  0.00    +0.016 A 
ATOM     37  C   UNL     1       5.519  -5.794  24.415  0.00  0.00    +0.006 A 
BRANCH  35  38
ATOM     38  C   UNL     1       5.845  -6.142  28.175  0.00  0.00    +0.308 C 
ATOM     39  N   UNL     1       5.893  -5.227  29.089  0.00  0.00    -0.099 NA
ATOM     40  H   UNL     1       6.221  -4.336  28.711  0.00  0.00    +0.363 HD
ATOM     41  N   UNL     1       5.485  -7.393  28.576  0.00  0.00    -0.247 N 
ATOM     42  H   UNL     1       5.100  -7.376  29.515  0.00  0.00    +0.288 HD
ATOM     43  H   UNL     1       4.918  -7.927  27.928  0.00  0.00    +0.288 HD
ENDBRANCH  35  38
ENDBRANCH  31  32
ENDBRANCH  28  31
ENDBRANCH   1  27
BRANCH   1  44
ATOM     44  C   UNL     1       8.981  -1.029  21.761  0.00  0.00    +0.044 C 
BRANCH  44  45
ATOM     45  C   UNL     1      10.087  -0.010  22.026  0.00  0.00    +0.130 C 
BRANCH  45  46
ATOM     46  C   UNL     1       9.620   1.385  21.699  0.00  0.00    +0.276 C 
ATOM     47  N   UNL     1      10.306   2.422  22.038  0.00  0.00    -0.104 NA
ATOM     48  H   UNL     1      11.153   2.162  22.552  0.00  0.00    +0.363 HD
ATOM     49  N   UNL     1       8.454   1.541  21.020  0.00  0.00    -0.251 N 
ATOM     50  H   UNL     1       8.329   2.481  20.663  0.00  0.00    +0.288 HD
ATOM     51  H   UNL     1       8.185   0.816  20.367  0.00  0.00    +0.288 HD
ENDBRANCH  45  46
ENDBRANCH  44  45
ENDBRANCH   1  44
TORSDOF 17
ENDMDL
MODEL 7
REMARK VINA RESULT:      -7.1      3.414      8.634
REMARK  Name = 
REMARK  19 active torsions:
REMARK  status: ('A' for Active; 'I' for Inactive)
REMARK    1  A    between atoms: C_1  and  C_2
REMARK    2  A    between atoms: C_2  and  C_3
REMARK    3  A    between atoms: C_3  and  C_5
REMARK    4  A    between atoms: C_3  and  C_6
REMARK    5  A    between atoms: C_6  and  N_8
REMARK    6  A    between atoms: C_6  and  C_22
REMARK    7  A    between atoms: N_8  and  S_9
REMARK    8  A    between atoms: S_9  and  C_12
REMARK    9  A    between atoms: C_12  and  C_13
REMARK   10  A    between atoms: C_15  and  C_19
REMARK   11  A    between atoms: C_19  and  O_20
REMARK   12  A    between atoms: N_24  and  C_25
REMARK   13  A    between atoms: C_25  and  C_27
REMARK   14  A    between atoms: C_25  and  C_32
REMARK   15  A    between atoms: C_27  and  C_28
REMARK   16  A    between atoms: C_28  and  C_29
REMARK   17  A    between atoms: N_34  and  C_35
REMARK   18  A    between atoms: C_35  and  C_36
REMARK   19  A    between atoms: C_39  and  C_42
REMARK                            x       y       z     vdW  Elec       q    Type
REMARK                         _______ _______ _______ _____ _____    ______ ____
ROOT
ATOM      1  C   UNL     1       9.374  -0.743  24.150  0.00  0.00    +0.159 C 
ENDROOT
BRANCH   1   3
ATOM      2  C   UNL     1       8.221  -0.485  26.439  0.00  0.00    +0.233 C 
ATOM      3  N   UNL     1       9.296  -0.443  25.589  0.00  0.00    -0.303 N 
ATOM      4  H   UNL     1      10.188  -0.496  26.084  0.00  0.00    +0.149 HD
ATOM      5  O   UNL     1       8.448  -0.509  27.647  0.00  0.00    -0.274 OA
BRANCH   2   6
ATOM      6  C   UNL     1       6.794  -0.390  25.863  0.00  0.00    +0.164 C 
BRANCH   6   7
ATOM      7  C   UNL     1       6.108  -1.744  25.545  0.00  0.00    +0.013 C 
ATOM      8  C   UNL     1       5.890  -1.911  24.032  0.00  0.00    +0.009 C 
BRANCH   7  10
ATOM      9  C   UNL     1       3.738  -2.768  25.683  0.00  0.00    +0.004 C 
ATOM     10  C   UNL     1       4.757  -1.823  26.301  0.00  0.00    +0.002 C 
ENDBRANCH   7  10
ENDBRANCH   6   7
BRANCH   6  11
ATOM     11  N   UNL     1       5.951   0.480  26.728  0.00  0.00    -0.182 NA
ATOM     12  H   UNL     1       5.821   0.159  27.691  0.00  0.00    +0.148 HD
BRANCH  11  13
ATOM     13  S   UNL     1       5.910   2.144  26.691  0.00  0.00    +0.034 S 
ATOM     14  O   UNL     1       5.759   2.612  28.047  0.00  0.00    -0.158 OA
ATOM     15  O   UNL     1       4.889   2.440  25.702  0.00  0.00    -0.158 OA
BRANCH  13  16
ATOM     16  C   UNL     1       7.502   2.656  26.015  0.00  0.00    +0.220 C 
BRANCH  16  17
ATOM     17  C   UNL     1       7.304   3.063  24.580  0.00  0.00    -0.024 A 
ATOM     18  C   UNL     1       6.926   2.106  23.624  0.00  0.00    +0.005 A 
ATOM     19  C   UNL     1       6.733   2.469  22.297  0.00  0.00    +0.001 A 
ATOM     20  C   UNL     1       6.911   3.798  21.906  0.00  0.00    +0.015 A 
ATOM     21  C   UNL     1       7.310   4.758  22.846  0.00  0.00    +0.059 A 
ATOM     22  C   UNL     1       7.498   4.389  24.183  0.00  0.00    +0.020 A 
BRANCH  21  23
ATOM     23  C   UNL     1       7.501   6.190  22.502  0.00  0.00    +0.337 C 
ATOM     24  O   UNL     1       7.916   7.008  23.305  0.00  0.00    -0.245 OA
BRANCH  23  25
ATOM     25  O   UNL     1       7.209   6.497  21.222  0.00  0.00    -0.477 OA
ATOM     26  H   UNL     1       7.268   7.444  21.003  0.00  0.00    +0.295 HD
ENDBRANCH  23  25
ENDBRANCH  21  23
ENDBRANCH  16  17
ENDBRANCH  13  16
ENDBRANCH  11  13
ENDBRANCH   6  11
ENDBRANCH   2   6
ENDBRANCH   1   3
BRANCH   1  27
ATOM     27  C   UNL     1       9.803  -2.228  23.997  0.00  0.00    +0.234 C 
ATOM     28  N   UNL     1       9.275  -3.059  24.956  0.00  0.00    -0.310 N 
ATOM     29  H   UNL     1       8.942  -2.661  25.824  0.00  0.00    +0.149 HD
ATOM     30  O   UNL     1      10.512  -2.622  23.073  0.00  0.00    -0.274 OA
BRANCH  28  31
ATOM     31  C   UNL     1       9.350  -4.498  24.908  0.00  0.00    +0.139 C 
BRANCH  31  32
ATOM     32  C   UNL     1       7.992  -5.049  24.587  0.00  0.00    -0.030 A 
ATOM     33  C   UNL     1       7.092  -5.302  25.628  0.00  0.00    +0.006 A 
ATOM     34  C   UNL     1       5.795  -5.721  25.344  0.00  0.00    +0.016 A 
ATOM     35  C   UNL     1       5.381  -5.882  24.018  0.00  0.00    +0.065 A 
ATOM     36  C   UNL     1       6.278  -5.636  22.975  0.00  0.00    +0.016 A 
ATOM     37  C   UNL     1       7.579  -5.215  23.258  0.00  0.00    +0.006 A 
BRANCH  35  38
ATOM     38  C   UNL     1       3.984  -6.312  23.741  0.00  0.00    +0.308 C 
ATOM     39  N   UNL     1       3.578  -7.532  23.899  0.00  0.00    -0.099 NA
ATOM     40  H   UNL     1       4.344  -8.148  24.181  0.00  0.00    +0.363 HD
ATOM     41  N   UNL     1       3.063  -5.411  23.300  0.00  0.00    -0.247 N 
ATOM     42  H   UNL     1       2.124  -5.793  23.358  0.00  0.00    +0.288 HD
ATOM     43  H   UNL     1       3.131  -4.475  23.682  0.00  0.00    +0.288 HD
ENDBRANCH  35  38
ENDBRANCH  31  32
ENDBRANCH  28  31
ENDBRANCH   1  27
BRANCH   1  44
ATOM     44  C   UNL     1      10.377   0.161  23.412  0.00  0.00    +0.044 C 
BRANCH  44  45
ATOM     45  C   UNL     1      10.578   1.546  24.022  0.00  0.00    +0.130 C 
BRANCH  45  46
ATOM     46  C   UNL     1      10.584   2.609  22.953  0.00  0.00    +0.276 C 
ATOM     47  N   UNL     1      10.233   2.347  21.741  0.00  0.00    -0.104 NA
ATOM     48  H   UNL     1       9.988   1.360  21.625  0.00  0.00    +0.363 HD
ATOM     49  N   UNL     1      10.957   3.871  23.288  0.00  0.00    -0.251 N 
ATOM     50  H   UNL     1      10.729   4.552  22.574  0.00  0.00    +0.288 HD
ATOM     51  H   UNL     1      10.766   4.188  24.231  0.00  0.00    +0.288 HD
ENDBRANCH  45  46
ENDBRANCH  44  45
ENDBRANCH   1  44
TORSDOF 17
ENDMDL
MODEL 8
REMARK VINA RESULT:      -6.9      2.469      4.863
REMARK  Name = 
REMARK  19 active torsions:
REMARK  status: ('A' for Active; 'I' for Inactive)
REMARK    1  A    between atoms: C_1  and  C_2
REMARK    2  A    between atoms: C_2  and  C_3
REMARK    3  A    between atoms: C_3  and  C_5
REMARK    4  A    between atoms: C_3  and  C_6
REMARK    5  A    between atoms: C_6  and  N_8
REMARK    6  A    between atoms: C_6  and  C_22
REMARK    7  A    between atoms: N_8  and  S_9
REMARK    8  A    between atoms: S_9  and  C_12
REMARK    9  A    between atoms: C_12  and  C_13
REMARK   10  A    between atoms: C_15  and  C_19
REMARK   11  A    between atoms: C_19  and  O_20
REMARK   12  A    between atoms: N_24  and  C_25
REMARK   13  A    between atoms: C_25  and  C_27
REMARK   14  A    between atoms: C_25  and  C_32
REMARK   15  A    between atoms: C_27  and  C_28
REMARK   16  A    between atoms: C_28  and  C_29
REMARK   17  A    between atoms: N_34  and  C_35
REMARK   18  A    between atoms: C_35  and  C_36
REMARK   19  A    between atoms: C_39  and  C_42
REMARK                            x       y       z     vdW  Elec       q    Type
REMARK                         _______ _______ _______ _____ _____    ______ ____
ROOT
ATOM      1  C   UNL     1       6.733  -2.382  23.464  0.00  0.00    +0.159 C 
ENDROOT
BRANCH   1   3
ATOM      2  C   UNL     1       5.859  -0.254  24.623  0.00  0.00    +0.233 C 
ATOM      3  N   UNL     1       5.964  -1.133  23.575  0.00  0.00    -0.303 N 
ATOM      4  H   UNL     1       5.712  -0.707  22.681  0.00  0.00    +0.149 HD
ATOM      5  O   UNL     1       5.427   0.872  24.384  0.00  0.00    -0.274 OA
BRANCH   2   6
ATOM      6  C   UNL     1       6.176  -0.737  26.052  0.00  0.00    +0.164 C 
BRANCH   6   7
ATOM      7  C   UNL     1       7.439  -0.116  26.705  0.00  0.00    +0.013 C 
ATOM      8  C   UNL     1       7.058   0.951  27.743  0.00  0.00    +0.009 C 
BRANCH   7  10
ATOM      9  C   UNL     1       9.767  -0.024  25.585  0.00  0.00    +0.004 C 
ATOM     10  C   UNL     1       8.338   0.496  25.600  0.00  0.00    +0.002 C 
ENDBRANCH   7  10
ENDBRANCH   6   7
BRANCH   6  11
ATOM     11  N   UNL     1       4.972  -0.603  26.917  0.00  0.00    -0.182 NA
ATOM     12  H   UNL     1       4.642   0.352  27.076  0.00  0.00    +0.148 HD
BRANCH  11  13
ATOM     13  S   UNL     1       3.676  -1.647  26.949  0.00  0.00    +0.034 S 
ATOM     14  O   UNL     1       3.522  -2.202  25.626  0.00  0.00    -0.158 OA
ATOM     15  O   UNL     1       2.610  -0.853  27.532  0.00  0.00    -0.158 OA
BRANCH  13  16
ATOM     16  C   UNL     1       4.117  -2.936  28.131  0.00  0.00    +0.220 C 
BRANCH  16  17
ATOM     17  C   UNL     1       4.713  -4.093  27.377  0.00  0.00    -0.024 A 
ATOM     18  C   UNL     1       3.929  -5.222  27.086  0.00  0.00    +0.005 A 
ATOM     19  C   UNL     1       4.465  -6.295  26.385  0.00  0.00    +0.001 A 
ATOM     20  C   UNL     1       5.794  -6.253  25.958  0.00  0.00    +0.015 A 
ATOM     21  C   UNL     1       6.593  -5.143  26.261  0.00  0.00    +0.059 A 
ATOM     22  C   UNL     1       6.048  -4.062  26.963  0.00  0.00    +0.020 A 
BRANCH  21  23
ATOM     23  C   UNL     1       8.008  -5.026  25.825  0.00  0.00    +0.337 C 
ATOM     24  O   UNL     1       8.908  -4.718  26.588  0.00  0.00    -0.245 OA
BRANCH  23  25
ATOM     25  O   UNL     1       8.214  -5.320  24.525  0.00  0.00    -0.477 OA
ATOM     26  H   UNL     1       7.641  -6.022  24.167  0.00  0.00    +0.295 HD
ENDBRANCH  23  25
ENDBRANCH  21  23
ENDBRANCH  16  17
ENDBRANCH  13  16
ENDBRANCH  11  13
ENDBRANCH   6  11
ENDBRANCH   2   6
ENDBRANCH   1   3
BRANCH   1  27
ATOM     27  C   UNL     1       8.153  -2.021  22.948  0.00  0.00    +0.234 C 
ATOM     28  N   UNL     1       8.167  -0.991  22.037  0.00  0.00    -0.310 N 
ATOM     29  H   UNL     1       7.317  -0.764  21.539  0.00  0.00    +0.149 HD
ATOM     30  O   UNL     1       9.169  -2.579  23.357  0.00  0.00    -0.274 OA
BRANCH  28  31
ATOM     31  C   UNL     1       9.366  -0.337  21.576  0.00  0.00    +0.139 C 
BRANCH  31  32
ATOM     32  C   UNL     1       9.381   1.073  22.089  0.00  0.00    -0.030 A 
ATOM     33  C   UNL     1       8.193   1.813  22.092  0.00  0.00    +0.006 A 
ATOM     34  C   UNL     1       8.165   3.088  22.653  0.00  0.00    +0.016 A 
ATOM     35  C   UNL     1       9.321   3.632  23.222  0.00  0.00    +0.065 A 
ATOM     36  C   UNL     1      10.511   2.899  23.215  0.00  0.00    +0.016 A 
ATOM     37  C   UNL     1      10.540   1.621  22.655  0.00  0.00    +0.006 A 
BRANCH  35  38
ATOM     38  C   UNL     1       9.260   4.988  23.831  0.00  0.00    +0.308 C 
ATOM     39  N   UNL     1       9.028   5.184  25.090  0.00  0.00    -0.099 NA
ATOM     40  H   UNL     1       8.845   4.305  25.579  0.00  0.00    +0.363 HD
ATOM     41  N   UNL     1       9.451   6.095  23.062  0.00  0.00    -0.247 N 
ATOM     42  H   UNL     1       9.591   6.919  23.640  0.00  0.00    +0.288 HD
ATOM     43  H   UNL     1      10.136   6.015  22.321  0.00  0.00    +0.288 HD
ENDBRANCH  35  38
ENDBRANCH  31  32
ENDBRANCH  28  31
ENDBRANCH   1  27
BRANCH   1  44
ATOM     44  C   UNL     1       6.080  -3.395  22.508  0.00  0.00    +0.044 C 
BRANCH  44  45
ATOM     45  C   UNL     1       4.826  -4.083  23.043  0.00  0.00    +0.130 C 
BRANCH  45  46
ATOM     46  C   UNL     1       4.810  -5.542  22.665  0.00  0.00    +0.276 C 
ATOM     47  N   UNL     1       3.715  -6.220  22.639  0.00  0.00    -0.104 NA
ATOM     48  H   UNL     1       2.913  -5.650  22.921  0.00  0.00    +0.363 HD
ATOM     49  N   UNL     1       5.983  -6.142  22.333  0.00  0.00    -0.251 N 
ATOM     50  H   UNL     1       5.852  -7.046  21.894  0.00  0.00    +0.288 HD
ATOM     51  H   UNL     1       6.699  -5.575  21.896  0.00  0.00    +0.288 HD
ENDBRANCH  45  46
ENDBRANCH  44  45
ENDBRANCH   1  44
TORSDOF 17
ENDMDL
MODEL 9
REMARK VINA RESULT:      -6.9      3.899      7.315
REMARK  Name = 
REMARK  19 active torsions:
REMARK  status: ('A' for Active; 'I' for Inactive)
REMARK    1  A    between atoms: C_1  and  C_2
REMARK    2  A    between atoms: C_2  and  C_3
REMARK    3  A    between atoms: C_3  and  C_5
REMARK    4  A    between atoms: C_3  and  C_6
REMARK    5  A    between atoms: C_6  and  N_8
REMARK    6  A    between atoms: C_6  and  C_22
REMARK    7  A    between atoms: N_8  and  S_9
REMARK    8  A    between atoms: S_9  and  C_12
REMARK    9  A    between atoms: C_12  and  C_13
REMARK   10  A    between atoms: C_15  and  C_19
REMARK   11  A    between atoms: C_19  and  O_20
REMARK   12  A    between atoms: N_24  and  C_25
REMARK   13  A    between atoms: C_25  and  C_27
REMARK   14  A    between atoms: C_25  and  C_32
REMARK   15  A    between atoms: C_27  and  C_28
REMARK   16  A    between atoms: C_28  and  C_29
REMARK   17  A    between atoms: N_34  and  C_35
REMARK   18  A    between atoms: C_35  and  C_36
REMARK   19  A    between atoms: C_39  and  C_42
REMARK                            x       y       z     vdW  Elec       q    Type
REMARK                         _______ _______ _______ _____ _____    ______ ____
ROOT
ATOM      1  C   UNL     1       9.229   4.203  24.229  0.00  0.00    +0.159 C 
ENDROOT
BRANCH   1   3
ATOM      2  C   UNL     1       7.725   2.586  22.903  0.00  0.00    +0.233 C 
ATOM      3  N   UNL     1       8.573   3.656  23.031  0.00  0.00    -0.303 N 
ATOM      4  H   UNL     1       8.496   4.312  22.251  0.00  0.00    +0.149 HD
ATOM      5  O   UNL     1       7.051   2.510  21.877  0.00  0.00    -0.274 OA
BRANCH   2   6
ATOM      6  C   UNL     1       7.728   1.483  23.979  0.00  0.00    +0.164 C 
BRANCH   6   7
ATOM      7  C   UNL     1       6.335   1.080  24.531  0.00  0.00    +0.013 C 
ATOM      8  C   UNL     1       5.737   2.200  25.397  0.00  0.00    +0.009 C 
BRANCH   7  10
ATOM      9  C   UNL     1       5.496  -1.328  24.955  0.00  0.00    +0.004 C 
ATOM     10  C   UNL     1       6.469  -0.229  25.351  0.00  0.00    +0.002 C 
ENDBRANCH   7  10
ENDBRANCH   6   7
BRANCH   6  11
ATOM     11  N   UNL     1       8.507   0.307  23.504  0.00  0.00    -0.182 NA
ATOM     12  H   UNL     1       8.052  -0.272  22.793  0.00  0.00    +0.148 HD
BRANCH  11  13
ATOM     13  S   UNL     1      10.156   0.257  23.281  0.00  0.00    +0.034 S 
ATOM     14  O   UNL     1      10.779   0.312  24.581  0.00  0.00    -0.158 OA
ATOM     15  O   UNL     1      10.403   1.309  22.312  0.00  0.00    -0.158 OA
BRANCH  13  16
ATOM     16  C   UNL     1      10.494  -1.324  22.482  0.00  0.00    +0.220 C 
BRANCH  16  17
ATOM     17  C   UNL     1       9.499  -2.336  22.983  0.00  0.00    -0.024 A 
ATOM     18  C   UNL     1       8.308  -2.562  22.273  0.00  0.00    +0.005 A 
ATOM     19  C   UNL     1       7.385  -3.498  22.721  0.00  0.00    +0.001 A 
ATOM     20  C   UNL     1       7.640  -4.227  23.885  0.00  0.00    +0.015 A 
ATOM     21  C   UNL     1       8.814  -3.995  24.613  0.00  0.00    +0.059 A 
ATOM     22  C   UNL     1       9.745  -3.055  24.157  0.00  0.00    +0.020 A 
BRANCH  21  23
ATOM     23  C   UNL     1       9.156  -4.745  25.849  0.00  0.00    +0.337 C 
ATOM     24  O   UNL     1       8.822  -4.369  26.959  0.00  0.00    -0.245 OA
BRANCH  23  25
ATOM     25  O   UNL     1       9.837  -5.889  25.633  0.00  0.00    -0.477 OA
ATOM     26  H   UNL     1      10.751  -5.770  25.317  0.00  0.00    +0.295 HD
ENDBRANCH  23  25
ENDBRANCH  21  23
ENDBRANCH  16  17
ENDBRANCH  13  16
ENDBRANCH  11  13
ENDBRANCH   6  11
ENDBRANCH   2   6
ENDBRANCH   1   3
BRANCH   1  27
ATOM     27  C   UNL     1       8.149   4.942  25.066  0.00  0.00    +0.234 C 
ATOM     28  N   UNL     1       7.356   5.786  24.326  0.00  0.00    -0.310 N 
ATOM     29  H   UNL     1       7.688   6.115  23.430  0.00  0.00    +0.149 HD
ATOM     30  O   UNL     1       7.995   4.748  26.270  0.00  0.00    -0.274 OA
BRANCH  28  31
ATOM     31  C   UNL     1       6.159   6.417  24.827  0.00  0.00    +0.139 C 
BRANCH  31  32
ATOM     32  C   UNL     1       4.965   5.633  24.370  0.00  0.00    -0.030 A 
ATOM     33  C   UNL     1       4.967   5.068  23.089  0.00  0.00    +0.006 A 
ATOM     34  C   UNL     1       3.911   4.256  22.682  0.00  0.00    +0.016 A 
ATOM     35  C   UNL     1       2.848   3.995  23.551  0.00  0.00    +0.065 A 
ATOM     36  C   UNL     1       2.839   4.562  24.829  0.00  0.00    +0.016 A 
ATOM     37  C   UNL     1       3.897   5.374  25.239  0.00  0.00    +0.006 A 
BRANCH  35  38
ATOM     38  C   UNL     1       1.741   3.109  23.099  0.00  0.00    +0.308 C 
ATOM     39  N   UNL     1       0.810   2.684  23.893  0.00  0.00    -0.099 NA
ATOM     40  H   UNL     1       0.969   2.991  24.855  0.00  0.00    +0.363 HD
ATOM     41  N   UNL     1       1.671   2.706  21.800  0.00  0.00    -0.247 N 
ATOM     42  H   UNL     1       0.767   2.292  21.596  0.00  0.00    +0.288 HD
ATOM     43  H   UNL     1       1.959   3.383  21.104  0.00  0.00    +0.288 HD
ENDBRANCH  35  38
ENDBRANCH  31  32
ENDBRANCH  28  31
ENDBRANCH   1  27
BRANCH   1  44
ATOM     44  C   UNL     1      10.370   5.177  23.886  0.00  0.00    +0.044 C 
BRANCH  44  45
ATOM     45  C   UNL     1      11.640   4.528  23.341  0.00  0.00    +0.130 C 
BRANCH  45  46
ATOM     46  C   UNL     1      12.840   5.407  23.587  0.00  0.00    +0.276 C 
ATOM     47  N   UNL     1      13.997   5.119  23.101  0.00  0.00    -0.104 NA
ATOM     48  H   UNL     1      13.977   4.241  22.574  0.00  0.00    +0.363 HD
ATOM     49  N   UNL     1      12.682   6.534  24.329  0.00  0.00    -0.251 N 
ATOM     50  H   UNL     1      13.474   7.163  24.263  0.00  0.00    +0.288 HD
ATOM     51  H   UNL     1      11.784   7.002  24.296  0.00  0.00    +0.288 HD
ENDBRANCH  45  46
ENDBRANCH  44  45
ENDBRANCH   1  44
TORSDOF 17
ENDMDL
