MODEL 1
REMARK VINA RESULT:      -7.5      0.000      0.000
REMARK  Name = 
REMARK  10 active torsions:
REMARK  status: ('A' for Active; 'I' for Inactive)
REMARK    1  A    between atoms: C_2  and  C_3
REMARK    2  A    between atoms: C_3  and  O_4
REMARK    3  A    between atoms: C_6  and  O_8
REMARK    4  A    between atoms: O_8  and  C_9
REMARK    5  A    between atoms: C_13  and  C_15
REMARK    6  A    between atoms: N_17  and  C_18
REMARK    7  A    between atoms: C_18  and  C_19
REMARK    8  A    between atoms: C_25  and  O_27
REMARK    9  A    between atoms: C_28  and  O_30
REMARK   10  A    between atoms: C_31  and  O_33
REMARK                            x       y       z     vdW  Elec       q    Type
REMARK                         _______ _______ _______ _____ _____    ______ ____
ROOT
ATOM      1  C   UNL     1       9.627  -1.338  23.569  0.00  0.00    +0.125 A 
ATOM      2  C   UNL     1       9.228  -0.137  24.161  0.00  0.00    +0.058 A 
ATOM      3  C   UNL     1       9.156   1.035  23.393  0.00  0.00    +0.040 A 
ATOM      4  C   UNL     1       9.387   0.985  22.014  0.00  0.00    +0.013 A 
ATOM      5  C   UNL     1       9.751  -0.219  21.417  0.00  0.00    +0.004 A 
ATOM      6  C   UNL     1       9.896  -1.367  22.198  0.00  0.00    +0.046 A 
ENDROOT
BRANCH   3   7
ATOM      7  C   UNL     1       8.903   2.365  24.013  0.00  0.00    +0.244 C 
ATOM      8  N   UNL     1       9.061   3.456  23.183  0.00  0.00    -0.307 N 
ATOM      9  H   UNL     1       9.300   3.329  22.212  0.00  0.00    +0.149 HD
ATOM     10  O   UNL     1       8.514   2.443  25.173  0.00  0.00    -0.270 OA
BRANCH   8  11
ATOM     11  C   UNL     1       8.742   4.804  23.601  0.00  0.00    +0.139 C 
BRANCH  11  12
ATOM     12  C   UNL     1       9.963   5.519  24.118  0.00  0.00    -0.030 A 
ATOM     13  C   UNL     1      11.221   5.260  23.558  0.00  0.00    +0.005 A 
ATOM     14  C   UNL     1      12.361   5.902  24.041  0.00  0.00    +0.000 A 
ATOM     15  C   UNL     1      12.258   6.806  25.096  0.00  0.00    +0.000 A 
ATOM     16  C   UNL     1      11.015   7.067  25.669  0.00  0.00    +0.000 A 
ATOM     17  C   UNL     1       9.871   6.427  25.183  0.00  0.00    +0.005 A 
ENDBRANCH  11  12
ENDBRANCH   8  11
ENDBRANCH   3   7
BRANCH   1  18
ATOM     18  O   UNL     1       9.868  -2.517  24.226  0.00  0.00    -0.461 OA
BRANCH  18  23
ATOM     19  C   UNL     1       6.616  -4.167  24.358  0.00  0.00    +0.179 C 
ATOM     20  C   UNL     1       6.957  -5.410  25.200  0.00  0.00    +0.177 C 
ATOM     21  C   UNL     1       8.094  -5.174  26.211  0.00  0.00    +0.180 C 
ATOM     22  C   UNL     1       9.267  -4.425  25.565  0.00  0.00    +0.214 C 
ATOM     23  C   UNL     1       8.746  -3.162  24.840  0.00  0.00    +0.339 C 
ATOM     24  O   UNL     1       7.791  -3.525  23.845  0.00  0.00    -0.331 OA
BRANCH  20  25
ATOM     25  O   UNL     1       5.794  -5.913  25.866  0.00  0.00    -0.386 OA
ATOM     26  H   UNL     1       5.336  -5.138  26.252  0.00  0.00    +0.210 HD
ENDBRANCH  20  25
BRANCH  21  27
ATOM     27  O   UNL     1       7.562  -4.535  27.383  0.00  0.00    -0.386 OA
ATOM     28  H   UNL     1       7.135  -3.693  27.163  0.00  0.00    +0.210 HD
ENDBRANCH  21  27
BRANCH  22  29
ATOM     29  O   UNL     1       9.928  -5.311  24.647  0.00  0.00    -0.383 OA
ATOM     30  H   UNL     1       9.241  -5.909  24.294  0.00  0.00    +0.210 HD
ENDBRANCH  22  29
BRANCH  19  31
ATOM     31  C   UNL     1       5.677  -3.155  25.039  0.00  0.00    +0.190 C 
BRANCH  31  32
ATOM     32  O   UNL     1       4.309  -3.510  24.834  0.00  0.00    -0.392 OA
ATOM     33  H   UNL     1       4.193  -3.720  23.888  0.00  0.00    +0.210 HD
ENDBRANCH  31  32
ENDBRANCH  19  31
ENDBRANCH  18  23
ENDBRANCH   1  18
TORSDOF 10
ENDMDL
MODEL 2
REMARK VINA RESULT:      -7.1      1.537      2.273
REMARK  Name = 
REMARK  10 active torsions:
REMARK  status: ('A' for Active; 'I' for Inactive)
REMARK    1  A    between atoms: C_2  and  C_3
REMARK    2  A    between atoms: C_3  and  O_4
REMARK    3  A    between atoms: C_6  and  O_8
REMARK    4  A    between atoms: O_8  and  C_9
REMARK    5  A    between atoms: C_13  and  C_15
REMARK    6  A    between atoms: N_17  and  C_18
REMARK    7  A    between atoms: C_18  and  C_19
REMARK    8  A    between atoms: C_25  and  O_27
REMARK    9  A    between atoms: C_28  and  O_30
REMARK   10  A    between atoms: C_31  and  O_33
REMARK                            x       y       z     vdW  Elec       q    Type
REMARK                         _______ _______ _______ _____ _____    ______ ____
ROOT
ATOM      1  C   UNL     1       8.774  -1.179  23.301  0.00  0.00    +0.125 A 
ATOM      2  C   UNL     1       8.482   0.049  23.901  0.00  0.00    +0.058 A 
ATOM      3  C   UNL     1       8.744   1.245  23.215  0.00  0.00    +0.040 A 
ATOM      4  C   UNL     1       9.203   1.209  21.894  0.00  0.00    +0.013 A 
ATOM      5  C   UNL     1       9.462  -0.015  21.283  0.00  0.00    +0.004 A 
ATOM      6  C   UNL     1       9.272  -1.201  21.995  0.00  0.00    +0.046 A 
ENDROOT
BRANCH   3   7
ATOM      7  C   UNL     1       8.611   2.572  23.875  0.00  0.00    +0.244 C 
ATOM      8  N   UNL     1       8.836   3.670  23.071  0.00  0.00    -0.307 N 
ATOM      9  H   UNL     1       9.043   3.552  22.091  0.00  0.00    +0.149 HD
ATOM     10  O   UNL     1       8.254   2.649  25.046  0.00  0.00    -0.270 OA
BRANCH   8  11
ATOM     11  C   UNL     1       8.633   5.027  23.530  0.00  0.00    +0.139 C 
BRANCH  11  12
ATOM     12  C   UNL     1       9.915   5.624  24.052  0.00  0.00    -0.030 A 
ATOM     13  C   UNL     1      11.140   5.284  23.463  0.00  0.00    +0.005 A 
ATOM     14  C   UNL     1      12.334   5.816  23.950  0.00  0.00    +0.000 A 
ATOM     15  C   UNL     1      12.319   6.689  25.035  0.00  0.00    +0.000 A 
ATOM     16  C   UNL     1      11.108   7.028  25.637  0.00  0.00    +0.000 A 
ATOM     17  C   UNL     1       9.910   6.499  25.149  0.00  0.00    +0.005 A 
ENDBRANCH  11  12
ENDBRANCH   8  11
ENDBRANCH   3   7
BRANCH   1  18
ATOM     18  O   UNL     1       8.695  -2.407  23.905  0.00  0.00    -0.461 OA
BRANCH  18  23
ATOM     19  C   UNL     1       7.214  -5.643  23.095  0.00  0.00    +0.179 C 
ATOM     20  C   UNL     1       5.829  -5.500  23.755  0.00  0.00    +0.177 C 
ATOM     21  C   UNL     1       5.313  -4.049  23.790  0.00  0.00    +0.180 C 
ATOM     22  C   UNL     1       6.409  -3.079  24.249  0.00  0.00    +0.214 C 
ATOM     23  C   UNL     1       7.694  -3.310  23.420  0.00  0.00    +0.339 C 
ATOM     24  O   UNL     1       8.140  -4.655  23.568  0.00  0.00    -0.331 OA
BRANCH  20  25
ATOM     25  O   UNL     1       4.871  -6.355  23.125  0.00  0.00    -0.386 OA
ATOM     26  H   UNL     1       5.322  -6.766  22.360  0.00  0.00    +0.210 HD
ENDBRANCH  20  25
BRANCH  21  27
ATOM     27  O   UNL     1       4.732  -3.721  22.517  0.00  0.00    -0.386 OA
ATOM     28  H   UNL     1       3.789  -3.949  22.490  0.00  0.00    +0.210 HD
ENDBRANCH  21  27
BRANCH  22  29
ATOM     29  O   UNL     1       6.653  -3.291  25.649  0.00  0.00    -0.383 OA
ATOM     30  H   UNL     1       6.596  -2.415  26.078  0.00  0.00    +0.210 HD
ENDBRANCH  22  29
BRANCH  19  31
ATOM     31  C   UNL     1       7.200  -5.707  21.558  0.00  0.00    +0.190 C 
BRANCH  31  32
ATOM     32  O   UNL     1       5.934  -6.163  21.078  0.00  0.00    -0.392 OA
ATOM     33  H   UNL     1       5.574  -5.477  20.484  0.00  0.00    +0.210 HD
ENDBRANCH  31  32
ENDBRANCH  19  31
ENDBRANCH  18  23
ENDBRANCH   1  18
TORSDOF 10
ENDMDL
MODEL 3
REMARK VINA RESULT:      -6.9      2.085      3.381
REMARK  Name = 
REMARK  10 active torsions:
REMARK  status: ('A' for Active; 'I' for Inactive)
REMARK    1  A    between atoms: C_2  and  C_3
REMARK    2  A    between atoms: C_3  and  O_4
REMARK    3  A    between atoms: C_6  and  O_8
REMARK    4  A    between atoms: O_8  and  C_9
REMARK    5  A    between atoms: C_13  and  C_15
REMARK    6  A    between atoms: N_17  and  C_18
REMARK    7  A    between atoms: C_18  and  C_19
REMARK    8  A    between atoms: C_25  and  O_27
REMARK    9  A    between atoms: C_28  and  O_30
REMARK   10  A    between atoms: C_31  and  O_33
REMARK                            x       y       z     vdW  Elec       q    Type
REMARK                         _______ _______ _______ _____ _____    ______ ____
ROOT
ATOM      1  C   UNL     1       8.998  -2.886  25.004  0.00  0.00    +0.125 A 
ATOM      2  C   UNL     1       9.553  -1.928  24.152  0.00  0.00    +0.058 A 
ATOM      3  C   UNL     1       9.618  -0.585  24.553  0.00  0.00    +0.040 A 
ATOM      4  C   UNL     1       9.220  -0.218  25.842  0.00  0.00    +0.013 A 
ATOM      5  C   UNL     1       8.698  -1.178  26.705  0.00  0.00    +0.004 A 
ATOM      6  C   UNL     1       8.565  -2.499  26.276  0.00  0.00    +0.046 A 
ENDROOT
BRANCH   3   7
ATOM      7  C   UNL     1      10.041   0.493  23.617  0.00  0.00    +0.244 C 
ATOM      8  N   UNL     1      10.345   1.708  24.195  0.00  0.00    -0.307 N 
ATOM      9  H   UNL     1      10.307   1.821  25.196  0.00  0.00    +0.149 HD
ATOM     10  O   UNL     1      10.167   0.259  22.420  0.00  0.00    -0.270 OA
BRANCH   8  11
ATOM     11  C   UNL     1      10.881   2.819  23.438  0.00  0.00    +0.139 C 
BRANCH  11  12
ATOM     12  C   UNL     1      10.016   4.044  23.580  0.00  0.00    -0.030 A 
ATOM     13  C   UNL     1       8.624   3.942  23.449  0.00  0.00    +0.005 A 
ATOM     14  C   UNL     1       7.815   5.073  23.560  0.00  0.00    +0.000 A 
ATOM     15  C   UNL     1       8.387   6.321  23.794  0.00  0.00    +0.000 A 
ATOM     16  C   UNL     1       9.771   6.439  23.916  0.00  0.00    +0.000 A 
ATOM     17  C   UNL     1      10.583   5.306  23.810  0.00  0.00    +0.005 A 
ENDBRANCH  11  12
ENDBRANCH   8  11
ENDBRANCH   3   7
BRANCH   1  18
ATOM     18  O   UNL     1       8.751  -4.197  24.688  0.00  0.00    -0.461 OA
BRANCH  18  23
ATOM     19  C   UNL     1       6.610  -5.981  22.332  0.00  0.00    +0.179 C 
ATOM     20  C   UNL     1       5.348  -6.190  23.191  0.00  0.00    +0.177 C 
ATOM     21  C   UNL     1       5.123  -5.079  24.233  0.00  0.00    +0.180 C 
ATOM     22  C   UNL     1       6.423  -4.738  24.974  0.00  0.00    +0.214 C 
ATOM     23  C   UNL     1       7.554  -4.476  23.953  0.00  0.00    +0.339 C 
ATOM     24  O   UNL     1       7.748  -5.622  23.128  0.00  0.00    -0.331 OA
BRANCH  20  25
ATOM     25  O   UNL     1       4.188  -6.343  22.368  0.00  0.00    -0.386 OA
ATOM     26  H   UNL     1       3.479  -5.809  22.781  0.00  0.00    +0.210 HD
ENDBRANCH  20  25
BRANCH  21  27
ATOM     27  O   UNL     1       4.496  -3.952  23.599  0.00  0.00    -0.386 OA
ATOM     28  H   UNL     1       4.452  -3.190  24.197  0.00  0.00    +0.210 HD
ENDBRANCH  21  27
BRANCH  22  29
ATOM     29  O   UNL     1       6.756  -5.833  25.843  0.00  0.00    -0.383 OA
ATOM     30  H   UNL     1       6.087  -5.838  26.555  0.00  0.00    +0.210 HD
ENDBRANCH  22  29
BRANCH  19  31
ATOM     31  C   UNL     1       6.435  -5.023  21.140  0.00  0.00    +0.190 C 
BRANCH  31  32
ATOM     32  O   UNL     1       5.855  -5.699  20.024  0.00  0.00    -0.392 OA
ATOM     33  H   UNL     1       5.087  -6.207  20.347  0.00  0.00    +0.210 HD
ENDBRANCH  31  32
ENDBRANCH  19  31
ENDBRANCH  18  23
ENDBRANCH   1  18
TORSDOF 10
ENDMDL
MODEL 4
REMARK VINA RESULT:      -6.8      3.580      9.667
REMARK  Name = 
REMARK  10 active torsions:
REMARK  status: ('A' for Active; 'I' for Inactive)
REMARK    1  A    between atoms: C_2  and  C_3
REMARK    2  A    between atoms: C_3  and  O_4
REMARK    3  A    between atoms: C_6  and  O_8
REMARK    4  A    between atoms: O_8  and  C_9
REMARK    5  A    between atoms: C_13  and  C_15
REMARK    6  A    between atoms: N_17  and  C_18
REMARK    7  A    between atoms: C_18  and  C_19
REMARK    8  A    between atoms: C_25  and  O_27
REMARK    9  A    between atoms: C_28  and  O_30
REMARK   10  A    between atoms: C_31  and  O_33
REMARK                            x       y       z     vdW  Elec       q    Type
REMARK                         _______ _______ _______ _____ _____    ______ ____
ROOT
ATOM      1  C   UNL     1       8.684  -3.273  24.480  0.00  0.00    +0.125 A 
ATOM      2  C   UNL     1       7.372  -3.161  24.010  0.00  0.00    +0.058 A 
ATOM      3  C   UNL     1       6.414  -4.120  24.370  0.00  0.00    +0.040 A 
ATOM      4  C   UNL     1       6.741  -5.133  25.277  0.00  0.00    +0.013 A 
ATOM      5  C   UNL     1       8.039  -5.225  25.773  0.00  0.00    +0.004 A 
ATOM      6  C   UNL     1       9.010  -4.314  25.353  0.00  0.00    +0.046 A 
ENDROOT
BRANCH   3   7
ATOM      7  C   UNL     1       5.056  -4.138  23.761  0.00  0.00    +0.244 C 
ATOM      8  N   UNL     1       4.018  -4.458  24.611  0.00  0.00    -0.307 N 
ATOM      9  H   UNL     1       4.193  -4.630  25.589  0.00  0.00    +0.149 HD
ATOM     10  O   UNL     1       4.899  -3.817  22.588  0.00  0.00    -0.270 OA
BRANCH   8  11
ATOM     11  C   UNL     1       2.631  -4.406  24.202  0.00  0.00    +0.139 C 
BRANCH  11  12
ATOM     12  C   UNL     1       2.134  -5.765  23.782  0.00  0.00    -0.030 A 
ATOM     13  C   UNL     1       2.598  -6.916  24.433  0.00  0.00    +0.005 A 
ATOM     14  C   UNL     1       2.160  -8.180  24.040  0.00  0.00    +0.000 A 
ATOM     15  C   UNL     1       1.257  -8.310  22.987  0.00  0.00    +0.000 A 
ATOM     16  C   UNL     1       0.794  -7.175  22.325  0.00  0.00    +0.000 A 
ATOM     17  C   UNL     1       1.229  -5.906  22.719  0.00  0.00    +0.005 A 
ENDBRANCH  11  12
ENDBRANCH   8  11
ENDBRANCH   3   7
BRANCH   1  18
ATOM     18  O   UNL     1       9.742  -2.488  24.101  0.00  0.00    -0.461 OA
BRANCH  18  23
ATOM     19  C   UNL     1      10.273   1.103  23.726  0.00  0.00    +0.179 C 
ATOM     20  C   UNL     1      10.053   1.270  22.210  0.00  0.00    +0.177 C 
ATOM     21  C   UNL     1       9.060   0.253  21.618  0.00  0.00    +0.180 C 
ATOM     22  C   UNL     1       9.343  -1.165  22.130  0.00  0.00    +0.214 C 
ATOM     23  C   UNL     1       9.445  -1.154  23.673  0.00  0.00    +0.339 C 
ATOM     24  O   UNL     1      10.481  -0.268  24.092  0.00  0.00    -0.331 OA
BRANCH  20  25
ATOM     25  O   UNL     1       9.647   2.605  21.896  0.00  0.00    -0.386 OA
ATOM     26  H   UNL     1       8.720   2.550  21.583  0.00  0.00    +0.210 HD
ENDBRANCH  20  25
BRANCH  21  27
ATOM     27  O   UNL     1       7.718   0.707  21.855  0.00  0.00    -0.386 OA
ATOM     28  H   UNL     1       7.428   0.496  22.756  0.00  0.00    +0.210 HD
ENDBRANCH  21  27
BRANCH  22  29
ATOM     29  O   UNL     1      10.565  -1.632  21.536  0.00  0.00    -0.383 OA
ATOM     30  H   UNL     1      10.593  -2.598  21.678  0.00  0.00    +0.210 HD
ENDBRANCH  22  29
BRANCH  19  31
ATOM     31  C   UNL     1       9.205   1.764  24.616  0.00  0.00    +0.190 C 
BRANCH  31  32
ATOM     32  O   UNL     1       9.270   3.187  24.519  0.00  0.00    -0.392 OA
ATOM     33  H   UNL     1      10.050   3.415  23.979  0.00  0.00    +0.210 HD
ENDBRANCH  31  32
ENDBRANCH  19  31
ENDBRANCH  18  23
ENDBRANCH   1  18
TORSDOF 10
ENDMDL
MODEL 5
REMARK VINA RESULT:      -6.8      1.337      2.348
REMARK  Name = 
REMARK  10 active torsions:
REMARK  status: ('A' for Active; 'I' for Inactive)
REMARK    1  A    between atoms: C_2  and  C_3
REMARK    2  A    between atoms: C_3  and  O_4
REMARK    3  A    between atoms: C_6  and  O_8
REMARK    4  A    between atoms: O_8  and  C_9
REMARK    5  A    between atoms: C_13  and  C_15
REMARK    6  A    between atoms: N_17  and  C_18
REMARK    7  A    between atoms: C_18  and  C_19
REMARK    8  A    between atoms: C_25  and  O_27
REMARK    9  A    between atoms: C_28  and  O_30
REMARK   10  A    between atoms: C_31  and  O_33
REMARK                            x       y       z     vdW  Elec       q    Type
REMARK                         _______ _______ _______ _____ _____    ______ ____
ROOT
ATOM      1  C   UNL     1       9.629  -1.552  23.589  0.00  0.00    +0.125 A 
ATOM      2  C   UNL     1       9.308  -0.370  24.261  0.00  0.00    +0.058 A 
ATOM      3  C   UNL     1       9.279   0.848  23.564  0.00  0.00    +0.040 A 
ATOM      4  C   UNL     1       9.473   0.867  22.179  0.00  0.00    +0.013 A 
ATOM      5  C   UNL     1       9.759  -0.315  21.502  0.00  0.00    +0.004 A 
ATOM      6  C   UNL     1       9.863  -1.514  22.211  0.00  0.00    +0.046 A 
ENDROOT
BRANCH   3   7
ATOM      7  C   UNL     1       9.111   2.149  24.266  0.00  0.00    +0.244 C 
ATOM      8  N   UNL     1       9.495   3.270  23.559  0.00  0.00    -0.307 N 
ATOM      9  H   UNL     1       9.834   3.185  22.613  0.00  0.00    +0.149 HD
ATOM     10  O   UNL     1       8.595   2.191  25.378  0.00  0.00    -0.270 OA
BRANCH   8  11
ATOM     11  C   UNL     1       9.289   4.613  24.056  0.00  0.00    +0.139 C 
BRANCH  11  12
ATOM     12  C   UNL     1       8.062   5.238  23.444  0.00  0.00    -0.030 A 
ATOM     13  C   UNL     1       8.164   6.446  22.740  0.00  0.00    +0.005 A 
ATOM     14  C   UNL     1       7.032   7.043  22.186  0.00  0.00    +0.000 A 
ATOM     15  C   UNL     1       5.783   6.445  22.335  0.00  0.00    +0.000 A 
ATOM     16  C   UNL     1       5.665   5.249  23.040  0.00  0.00    +0.000 A 
ATOM     17  C   UNL     1       6.799   4.646  23.593  0.00  0.00    +0.005 A 
ENDBRANCH  11  12
ENDBRANCH   8  11
ENDBRANCH   3   7
BRANCH   1  18
ATOM     18  O   UNL     1       9.825  -2.779  24.170  0.00  0.00    -0.461 OA
BRANCH  18  23
ATOM     19  C   UNL     1       6.564  -4.403  24.390  0.00  0.00    +0.179 C 
ATOM     20  C   UNL     1       6.896  -5.594  25.309  0.00  0.00    +0.177 C 
ATOM     21  C   UNL     1       8.031  -5.300  26.308  0.00  0.00    +0.180 C 
ATOM     22  C   UNL     1       9.209  -4.598  25.622  0.00  0.00    +0.214 C 
ATOM     23  C   UNL     1       8.697  -3.380  24.817  0.00  0.00    +0.339 C 
ATOM     24  O   UNL     1       7.745  -3.799  23.844  0.00  0.00    -0.331 OA
BRANCH  20  25
ATOM     25  O   UNL     1       5.729  -6.049  26.000  0.00  0.00    -0.386 OA
ATOM     26  H   UNL     1       6.042  -6.600  26.746  0.00  0.00    +0.210 HD
ENDBRANCH  20  25
BRANCH  21  27
ATOM     27  O   UNL     1       7.498  -4.588  27.437  0.00  0.00    -0.386 OA
ATOM     28  H   UNL     1       7.655  -5.069  28.264  0.00  0.00    +0.210 HD
ENDBRANCH  21  27
BRANCH  22  29
ATOM     29  O   UNL     1       9.869  -5.542  24.763  0.00  0.00    -0.383 OA
ATOM     30  H   UNL     1      10.692  -5.114  24.457  0.00  0.00    +0.210 HD
ENDBRANCH  22  29
BRANCH  19  31
ATOM     31  C   UNL     1       5.627  -3.347  25.004  0.00  0.00    +0.190 C 
BRANCH  31  32
ATOM     32  O   UNL     1       4.258  -3.704  24.808  0.00  0.00    -0.392 OA
ATOM     33  H   UNL     1       4.111  -3.810  23.850  0.00  0.00    +0.210 HD
ENDBRANCH  31  32
ENDBRANCH  19  31
ENDBRANCH  18  23
ENDBRANCH   1  18
TORSDOF 10
ENDMDL
MODEL 6
REMARK VINA RESULT:      -6.7      2.693      8.984
REMARK  Name = 
REMARK  10 active torsions:
REMARK  status: ('A' for Active; 'I' for Inactive)
REMARK    1  A    between atoms: C_2  and  C_3
REMARK    2  A    between atoms: C_3  and  O_4
REMARK    3  A    between atoms: C_6  and  O_8
REMARK    4  A    between atoms: O_8  and  C_9
REMARK    5  A    between atoms: C_13  and  C_15
REMARK    6  A    between atoms: N_17  and  C_18
REMARK    7  A    between atoms: C_18  and  C_19
REMARK    8  A    between atoms: C_25  and  O_27
REMARK    9  A    between atoms: C_28  and  O_30
REMARK   10  A    between atoms: C_31  and  O_33
REMARK                            x       y       z     vdW  Elec       q    Type
REMARK                         _______ _______ _______ _____ _____    ______ ____
ROOT
ATOM      1  C   UNL     1       9.571   1.463  23.620  0.00  0.00    +0.125 A 
ATOM      2  C   UNL     1       9.514   0.224  24.263  0.00  0.00    +0.058 A 
ATOM      3  C   UNL     1       9.543  -0.960  23.511  0.00  0.00    +0.040 A 
ATOM      4  C   UNL     1       9.728  -0.906  22.125  0.00  0.00    +0.013 A 
ATOM      5  C   UNL     1       9.819   0.328  21.486  0.00  0.00    +0.004 A 
ATOM      6  C   UNL     1       9.713   1.505  22.230  0.00  0.00    +0.046 A 
ENDROOT
BRANCH   3   7
ATOM      7  C   UNL     1       9.314  -2.292  24.135  0.00  0.00    +0.244 C 
ATOM      8  N   UNL     1       8.056  -2.502  24.662  0.00  0.00    -0.307 N 
ATOM      9  H   UNL     1       7.345  -1.793  24.583  0.00  0.00    +0.149 HD
ATOM     10  O   UNL     1      10.191  -3.149  24.105  0.00  0.00    -0.270 OA
BRANCH   8  11
ATOM     11  C   UNL     1       7.640  -3.780  25.198  0.00  0.00    +0.139 C 
BRANCH  11  12
ATOM     12  C   UNL     1       6.871  -4.576  24.177  0.00  0.00    -0.030 A 
ATOM     13  C   UNL     1       7.552  -5.287  23.179  0.00  0.00    +0.005 A 
ATOM     14  C   UNL     1       6.849  -6.012  22.218  0.00  0.00    +0.000 A 
ATOM     15  C   UNL     1       5.456  -6.030  22.236  0.00  0.00    +0.000 A 
ATOM     16  C   UNL     1       4.765  -5.321  23.217  0.00  0.00    +0.000 A 
ATOM     17  C   UNL     1       5.468  -4.596  24.184  0.00  0.00    +0.005 A 
ENDBRANCH  11  12
ENDBRANCH   8  11
ENDBRANCH   3   7
BRANCH   1  18
ATOM     18  O   UNL     1       9.417   2.687  24.218  0.00  0.00    -0.461 OA
BRANCH  18  23
ATOM     19  C   UNL     1       6.166   4.242  23.639  0.00  0.00    +0.179 C 
ATOM     20  C   UNL     1       6.536   5.733  23.750  0.00  0.00    +0.177 C 
ATOM     21  C   UNL     1       7.979   6.042  23.311  0.00  0.00    +0.180 C 
ATOM     22  C   UNL     1       8.970   5.032  23.902  0.00  0.00    +0.214 C 
ATOM     23  C   UNL     1       8.481   3.592  23.620  0.00  0.00    +0.339 C 
ATOM     24  O   UNL     1       7.187   3.392  24.182  0.00  0.00    -0.331 OA
BRANCH  20  25
ATOM     25  O   UNL     1       5.609   6.546  23.024  0.00  0.00    -0.386 OA
ATOM     26  H   UNL     1       4.964   5.935  22.612  0.00  0.00    +0.210 HD
ENDBRANCH  20  25
BRANCH  21  27
ATOM     27  O   UNL     1       8.028   6.145  21.878  0.00  0.00    -0.386 OA
ATOM     28  H   UNL     1       8.938   6.267  21.564  0.00  0.00    +0.210 HD
ENDBRANCH  21  27
BRANCH  22  29
ATOM     29  O   UNL     1       9.081   5.271  25.315  0.00  0.00    -0.383 OA
ATOM     30  H   UNL     1       8.408   5.942  25.538  0.00  0.00    +0.210 HD
ENDBRANCH  22  29
BRANCH  19  31
ATOM     31  C   UNL     1       5.741   3.779  22.234  0.00  0.00    +0.190 C 
BRANCH  31  32
ATOM     32  O   UNL     1       4.380   4.122  21.973  0.00  0.00    -0.392 OA
ATOM     33  H   UNL     1       4.370   4.794  21.266  0.00  0.00    +0.210 HD
ENDBRANCH  31  32
ENDBRANCH  19  31
ENDBRANCH  18  23
ENDBRANCH   1  18
TORSDOF 10
ENDMDL
MODEL 7
REMARK VINA RESULT:      -6.7      1.996      3.115
REMARK  Name = 
REMARK  10 active torsions:
REMARK  status: ('A' for Active; 'I' for Inactive)
REMARK    1  A    between atoms: C_2  and  C_3
REMARK    2  A    between atoms: C_3  and  O_4
REMARK    3  A    between atoms: C_6  and  O_8
REMARK    4  A    between atoms: O_8  and  C_9
REMARK    5  A    between atoms: C_13  and  C_15
REMARK    6  A    between atoms: N_17  and  C_18
REMARK    7  A    between atoms: C_18  and  C_19
REMARK    8  A    between atoms: C_25  and  O_27
REMARK    9  A    between atoms: C_28  and  O_30
REMARK   10  A    between atoms: C_31  and  O_33
REMARK                            x       y       z     vdW  Elec       q    Type
REMARK                         _______ _______ _______ _____ _____    ______ ____
ROOT
ATOM      1  C   UNL     1       7.936  -1.906  26.080  0.00  0.00    +0.125 A 
ATOM      2  C   UNL     1       9.021  -1.300  25.442  0.00  0.00    +0.058 A 
ATOM      3  C   UNL     1       9.069   0.097  25.314  0.00  0.00    +0.040 A 
ATOM      4  C   UNL     1       8.084   0.890  25.912  0.00  0.00    +0.013 A 
ATOM      5  C   UNL     1       7.020   0.288  26.578  0.00  0.00    +0.004 A 
ATOM      6  C   UNL     1       6.936  -1.105  26.637  0.00  0.00    +0.046 A 
ENDROOT
BRANCH   3   7
ATOM      7  C   UNL     1      10.113   0.774  24.497  0.00  0.00    +0.244 C 
ATOM      8  N   UNL     1       9.652   1.629  23.518  0.00  0.00    -0.307 N 
ATOM      9  H   UNL     1       8.663   1.793  23.408  0.00  0.00    +0.149 HD
ATOM     10  O   UNL     1      11.302   0.610  24.752  0.00  0.00    -0.270 OA
BRANCH   8  11
ATOM     11  C   UNL     1      10.537   2.449  22.719  0.00  0.00    +0.139 C 
BRANCH  11  12
ATOM     12  C   UNL     1      10.731   3.808  23.339  0.00  0.00    -0.030 A 
ATOM     13  C   UNL     1       9.646   4.479  23.919  0.00  0.00    +0.005 A 
ATOM     14  C   UNL     1       9.811   5.745  24.479  0.00  0.00    +0.000 A 
ATOM     15  C   UNL     1      11.060   6.361  24.460  0.00  0.00    +0.000 A 
ATOM     16  C   UNL     1      12.147   5.709  23.878  0.00  0.00    +0.000 A 
ATOM     17  C   UNL     1      11.985   4.438  23.319  0.00  0.00    +0.005 A 
ENDBRANCH  11  12
ENDBRANCH   8  11
ENDBRANCH   3   7
BRANCH   1  18
ATOM     18  O   UNL     1       7.698  -3.254  26.154  0.00  0.00    -0.461 OA
BRANCH  18  23
ATOM     19  C   UNL     1       6.600  -4.773  23.022  0.00  0.00    +0.179 C 
ATOM     20  C   UNL     1       5.756  -5.948  23.552  0.00  0.00    +0.177 C 
ATOM     21  C   UNL     1       5.089  -5.662  24.910  0.00  0.00    +0.180 C 
ATOM     22  C   UNL     1       6.077  -5.014  25.890  0.00  0.00    +0.214 C 
ATOM     23  C   UNL     1       6.765  -3.804  25.216  0.00  0.00    +0.339 C 
ATOM     24  O   UNL     1       7.449  -4.220  24.037  0.00  0.00    -0.331 OA
BRANCH  20  25
ATOM     25  O   UNL     1       4.775  -6.349  22.590  0.00  0.00    -0.386 OA
ATOM     26  H   UNL     1       4.626  -7.307  22.725  0.00  0.00    +0.210 HD
ENDBRANCH  20  25
BRANCH  21  27
ATOM     27  O   UNL     1       3.887  -4.903  24.699  0.00  0.00    -0.386 OA
ATOM     28  H   UNL     1       3.102  -5.404  24.971  0.00  0.00    +0.210 HD
ENDBRANCH  21  27
BRANCH  22  29
ATOM     29  O   UNL     1       7.042  -6.001  26.287  0.00  0.00    -0.383 OA
ATOM     30  H   UNL     1       7.718  -6.030  25.582  0.00  0.00    +0.210 HD
ENDBRANCH  22  29
BRANCH  19  31
ATOM     31  C   UNL     1       5.803  -3.674  22.297  0.00  0.00    +0.190 C 
BRANCH  31  32
ATOM     32  O   UNL     1       5.598  -4.013  20.925  0.00  0.00    -0.392 OA
ATOM     33  H   UNL     1       6.279  -4.664  20.672  0.00  0.00    +0.210 HD
ENDBRANCH  31  32
ENDBRANCH  19  31
ENDBRANCH  18  23
ENDBRANCH   1  18
TORSDOF 10
ENDMDL
MODEL 8
REMARK VINA RESULT:      -6.6      1.612      2.197
REMARK  Name = 
REMARK  10 active torsions:
REMARK  status: ('A' for Active; 'I' for Inactive)
REMARK    1  A    between atoms: C_2  and  C_3
REMARK    2  A    between atoms: C_3  and  O_4
REMARK    3  A    between atoms: C_6  and  O_8
REMARK    4  A    between atoms: O_8  and  C_9
REMARK    5  A    between atoms: C_13  and  C_15
REMARK    6  A    between atoms: N_17  and  C_18
REMARK    7  A    between atoms: C_18  and  C_19
REMARK    8  A    between atoms: C_25  and  O_27
REMARK    9  A    between atoms: C_28  and  O_30
REMARK   10  A    between atoms: C_31  and  O_33
REMARK                            x       y       z     vdW  Elec       q    Type
REMARK                         _______ _______ _______ _____ _____    ______ ____
ROOT
ATOM      1  C   UNL     1       8.925  -1.166  24.835  0.00  0.00    +0.125 A 
ATOM      2  C   UNL     1       9.277  -0.032  24.099  0.00  0.00    +0.058 A 
ATOM      3  C   UNL     1       8.853   1.238  24.521  0.00  0.00    +0.040 A 
ATOM      4  C   UNL     1       8.162   1.381  25.728  0.00  0.00    +0.013 A 
ATOM      5  C   UNL     1       7.840   0.254  26.480  0.00  0.00    +0.004 A 
ATOM      6  C   UNL     1       8.198  -1.014  26.019  0.00  0.00    +0.046 A 
ENDROOT
BRANCH   3   7
ATOM      7  C   UNL     1       9.058   2.450  23.682  0.00  0.00    +0.244 C 
ATOM      8  N   UNL     1       8.560   3.630  24.197  0.00  0.00    -0.307 N 
ATOM      9  H   UNL     1       8.119   3.645  25.104  0.00  0.00    +0.149 HD
ATOM     10  O   UNL     1       9.694   2.380  22.636  0.00  0.00    -0.270 OA
BRANCH   8  11
ATOM     11  C   UNL     1       8.778   4.911  23.561  0.00  0.00    +0.139 C 
BRANCH  11  12
ATOM     12  C   UNL     1       9.939   5.640  24.186  0.00  0.00    -0.030 A 
ATOM     13  C   UNL     1      11.226   5.508  23.646  0.00  0.00    +0.005 A 
ATOM     14  C   UNL     1      12.311   6.163  24.227  0.00  0.00    +0.000 A 
ATOM     15  C   UNL     1      12.125   6.952  25.360  0.00  0.00    +0.000 A 
ATOM     16  C   UNL     1      10.853   7.084  25.914  0.00  0.00    +0.000 A 
ATOM     17  C   UNL     1       9.763   6.432  25.330  0.00  0.00    +0.005 A 
ENDBRANCH  11  12
ENDBRANCH   8  11
ENDBRANCH   3   7
BRANCH   1  18
ATOM     18  O   UNL     1       9.156  -2.467  24.467  0.00  0.00    -0.461 OA
BRANCH  18  23
ATOM     19  C   UNL     1       6.961  -4.164  22.096  0.00  0.00    +0.179 C 
ATOM     20  C   UNL     1       6.813  -5.539  22.774  0.00  0.00    +0.177 C 
ATOM     21  C   UNL     1       6.911  -5.481  24.309  0.00  0.00    +0.180 C 
ATOM     22  C   UNL     1       8.086  -4.604  24.759  0.00  0.00    +0.214 C 
ATOM     23  C   UNL     1       8.024  -3.235  24.042  0.00  0.00    +0.339 C 
ATOM     24  O   UNL     1       8.064  -3.417  22.629  0.00  0.00    -0.331 OA
BRANCH  20  25
ATOM     25  O   UNL     1       5.595  -6.178  22.376  0.00  0.00    -0.386 OA
ATOM     26  H   UNL     1       5.453  -6.921  22.998  0.00  0.00    +0.210 HD
ENDBRANCH  20  25
BRANCH  21  27
ATOM     27  O   UNL     1       5.640  -5.085  24.852  0.00  0.00    -0.386 OA
ATOM     28  H   UNL     1       5.725  -4.795  25.774  0.00  0.00    +0.210 HD
ENDBRANCH  21  27
BRANCH  22  29
ATOM     29  O   UNL     1       9.312  -5.289  24.456  0.00  0.00    -0.383 OA
ATOM     30  H   UNL     1       9.790  -5.394  25.302  0.00  0.00    +0.210 HD
ENDBRANCH  22  29
BRANCH  19  31
ATOM     31  C   UNL     1       5.677  -3.316  22.055  0.00  0.00    +0.190 C 
BRANCH  31  32
ATOM     32  O   UNL     1       4.557  -4.062  22.533  0.00  0.00    -0.392 OA
ATOM     33  H   UNL     1       4.865  -4.627  23.267  0.00  0.00    +0.210 HD
ENDBRANCH  31  32
ENDBRANCH  19  31
ENDBRANCH  18  23
ENDBRANCH   1  18
TORSDOF 10
ENDMDL
MODEL 9
REMARK VINA RESULT:      -6.6      2.190      3.409
REMARK  Name = 
REMARK  10 active torsions:
REMARK  status: ('A' for Active; 'I' for Inactive)
REMARK    1  A    between atoms: C_2  and  C_3
REMARK    2  A    between atoms: C_3  and  O_4
REMARK    3  A    between atoms: C_6  and  O_8
REMARK    4  A    between atoms: O_8  and  C_9
REMARK    5  A    between atoms: C_13  and  C_15
REMARK    6  A    between atoms: N_17  and  C_18
REMARK    7  A    between atoms: C_18  and  C_19
REMARK    8  A    between atoms: C_25  and  O_27
REMARK    9  A    between atoms: C_28  and  O_30
REMARK   10  A    between atoms: C_31  and  O_33
REMARK                            x       y       z     vdW  Elec       q    Type
REMARK                         _______ _______ _______ _____ _____    ______ ____
ROOT
ATOM      1  C   UNL     1       8.042  -3.185  22.727  0.00  0.00    +0.125 A 
ATOM      2  C   UNL     1       8.376  -1.955  22.153  0.00  0.00    +0.058 A 
ATOM      3  C   UNL     1       9.173  -1.043  22.862  0.00  0.00    +0.040 A 
ATOM      4  C   UNL     1       9.716  -1.401  24.100  0.00  0.00    +0.013 A 
ATOM      5  C   UNL     1       9.412  -2.640  24.658  0.00  0.00    +0.004 A 
ATOM      6  C   UNL     1       8.557  -3.514  23.984  0.00  0.00    +0.046 A 
ENDROOT
BRANCH   3   7
ATOM      7  C   UNL     1       9.412   0.340  22.365  0.00  0.00    +0.244 C 
ATOM      8  N   UNL     1       9.905   1.236  23.291  0.00  0.00    -0.307 N 
ATOM      9  H   UNL     1      10.115   0.936  24.230  0.00  0.00    +0.149 HD
ATOM     10  O   UNL     1       9.234   0.613  21.183  0.00  0.00    -0.270 OA
BRANCH   8  11
ATOM     11  C   UNL     1      10.298   2.583  22.939  0.00  0.00    +0.139 C 
BRANCH  11  12
ATOM     12  C   UNL     1       9.691   3.592  23.879  0.00  0.00    -0.030 A 
ATOM     13  C   UNL     1       8.643   3.219  24.731  0.00  0.00    +0.005 A 
ATOM     14  C   UNL     1       8.061   4.149  25.591  0.00  0.00    +0.000 A 
ATOM     15  C   UNL     1       8.514   5.467  25.606  0.00  0.00    +0.000 A 
ATOM     16  C   UNL     1       9.550   5.854  24.757  0.00  0.00    +0.000 A 
ATOM     17  C   UNL     1      10.137   4.922  23.896  0.00  0.00    +0.005 A 
ENDBRANCH  11  12
ENDBRANCH   8  11
ENDBRANCH   3   7
BRANCH   1  18
ATOM     18  O   UNL     1       7.169  -4.104  22.206  0.00  0.00    -0.461 OA
BRANCH  18  23
ATOM     19  C   UNL     1       3.735  -4.212  23.436  0.00  0.00    +0.179 C 
ATOM     20  C   UNL     1       3.491  -5.733  23.478  0.00  0.00    +0.177 C 
ATOM     21  C   UNL     1       4.766  -6.551  23.751  0.00  0.00    +0.180 C 
ATOM     22  C   UNL     1       5.940  -6.056  22.896  0.00  0.00    +0.214 C 
ATOM     23  C   UNL     1       6.086  -4.524  23.045  0.00  0.00    +0.339 C 
ATOM     24  O   UNL     1       4.883  -3.873  22.646  0.00  0.00    -0.331 OA
BRANCH  20  25
ATOM     25  O   UNL     1       2.474  -6.062  24.429  0.00  0.00    -0.386 OA
ATOM     26  H   UNL     1       1.775  -6.539  23.937  0.00  0.00    +0.210 HD
ENDBRANCH  20  25
BRANCH  21  27
ATOM     27  O   UNL     1       5.031  -6.562  25.163  0.00  0.00    -0.386 OA
ATOM     28  H   UNL     1       5.573  -7.326  25.415  0.00  0.00    +0.210 HD
ENDBRANCH  21  27
BRANCH  22  29
ATOM     29  O   UNL     1       5.697  -6.420  21.528  0.00  0.00    -0.383 OA
ATOM     30  H   UNL     1       4.791  -6.122  21.317  0.00  0.00    +0.210 HD
ENDBRANCH  22  29
BRANCH  19  31
ATOM     31  C   UNL     1       3.776  -3.520  24.810  0.00  0.00    +0.190 C 
BRANCH  31  32
ATOM     32  O   UNL     1       2.472  -3.086  25.202  0.00  0.00    -0.392 OA
ATOM     33  H   UNL     1       1.977  -2.857  24.393  0.00  0.00    +0.210 HD
ENDBRANCH  31  32
ENDBRANCH  19  31
ENDBRANCH  18  23
ENDBRANCH   1  18
TORSDOF 10
ENDMDL
