MODEL 1
REMARK VINA RESULT:      -6.0      0.000      0.000
REMARK  Name = 
REMARK  9 active torsions:
REMARK  status: ('A' for Active; 'I' for Inactive)
REMARK    1  A    between atoms: C_1  and  N_2
REMARK    2  A    between atoms: N_2  and  S_3
REMARK    3  A    between atoms: S_3  and  C_6
REMARK    4  A    between atoms: C_6  and  C_7
REMARK    5  A    between atoms: C_13  and  C_14
REMARK    6  A    between atoms: C_14  and  C_15
REMARK    7  A    between atoms: C_15  and  N_16
REMARK    8  A    between atoms: N_16  and  C_17
REMARK    9  A    between atoms: N_16  and  C_18
REMARK                            x       y       z     vdW  Elec       q    Type
REMARK                         _______ _______ _______ _____ _____    ______ ____
ROOT
ATOM      1  C   UNL     1       9.484  -0.843  24.471  0.00  0.00    -0.024 A 
ATOM      2  C   UNL     1       9.248  -0.456  25.798  0.00  0.00    +0.007 A 
ATOM      3  C   UNL     1       8.573  -1.292  26.693  0.00  0.00    +0.026 A 
ATOM      4  C   UNL     1       8.127  -2.529  26.219  0.00  0.00    +0.047 A 
ATOM      5  N   UNL     1       7.459  -3.536  26.872  0.00  0.00    -0.360 N 
ATOM      6  H   UNL     1       7.191  -3.508  27.845  0.00  0.00    +0.165 HD
ATOM      7  C   UNL     1       7.213  -4.573  26.016  0.00  0.00    +0.087 A 
ATOM      8  C   UNL     1       7.703  -4.239  24.767  0.00  0.00    -0.021 A 
ATOM      9  C   UNL     1       8.319  -2.952  24.904  0.00  0.00    +0.003 A 
ATOM     10  C   UNL     1       9.028  -2.103  24.032  0.00  0.00    +0.015 A 
ENDROOT
BRANCH   1  11
ATOM     11  C   UNL     1      10.303   0.048  23.570  0.00  0.00    +0.220 C 
BRANCH  11  12
ATOM     12  S   UNL     1       9.299   0.718  22.230  0.00  0.00    +0.033 S 
ATOM     13  O   UNL     1       9.423  -0.086  21.033  0.00  0.00    -0.158 OA
ATOM     14  O   UNL     1       8.007   1.124  22.737  0.00  0.00    -0.158 OA
BRANCH  12  16
ATOM     15  C   UNL     1      10.644   2.916  23.034  0.00  0.00    +0.127 C 
ATOM     16  N   UNL     1      10.110   2.169  21.888  0.00  0.00    -0.197 NA
ATOM     17  H   UNL     1      10.801   1.980  21.157  0.00  0.00    +0.147 HD
ENDBRANCH  12  16
ENDBRANCH  11  12
ENDBRANCH   1  11
BRANCH   8  18
ATOM     18  C   UNL     1       7.602  -5.086  23.527  0.00  0.00    +0.052 C 
BRANCH  18  19
ATOM     19  C   UNL     1       6.140  -5.467  23.207  0.00  0.00    +0.088 C 
BRANCH  19  20
ATOM     20  N   UNL     1       5.601  -4.940  21.934  0.00  0.00    -0.308 NA
ATOM     21  C   UNL     1       6.199  -5.676  20.814  0.00  0.00    +0.104 C 
ATOM     22  C   UNL     1       5.863  -3.510  21.770  0.00  0.00    +0.104 C 
ENDBRANCH  19  20
ENDBRANCH  18  19
ENDBRANCH   8  18
TORSDOF 6
ENDMDL
MODEL 2
REMARK VINA RESULT:      -5.9      2.773      6.293
REMARK  Name = 
REMARK  9 active torsions:
REMARK  status: ('A' for Active; 'I' for Inactive)
REMARK    1  A    between atoms: C_1  and  N_2
REMARK    2  A    between atoms: N_2  and  S_3
REMARK    3  A    between atoms: S_3  and  C_6
REMARK    4  A    between atoms: C_6  and  C_7
REMARK    5  A    between atoms: C_13  and  C_14
REMARK    6  A    between atoms: C_14  and  C_15
REMARK    7  A    between atoms: C_15  and  N_16
REMARK    8  A    between atoms: N_16  and  C_17
REMARK    9  A    between atoms: N_16  and  C_18
REMARK                            x       y       z     vdW  Elec       q    Type
REMARK                         _______ _______ _______ _____ _____    ______ ____
ROOT
ATOM      1  C   UNL     1       7.675  -4.518  23.789  0.00  0.00    -0.024 A 
ATOM      2  C   UNL     1       7.034  -4.725  25.018  0.00  0.00    +0.007 A 
ATOM      3  C   UNL     1       7.127  -3.793  26.056  0.00  0.00    +0.026 A 
ATOM      4  C   UNL     1       7.894  -2.645  25.834  0.00  0.00    +0.047 A 
ATOM      5  N   UNL     1       8.143  -1.577  26.660  0.00  0.00    -0.360 N 
ATOM      6  H   UNL     1       7.775  -1.478  27.595  0.00  0.00    +0.165 HD
ATOM      7  C   UNL     1       8.956  -0.674  26.033  0.00  0.00    +0.087 A 
ATOM      8  C   UNL     1       9.273  -1.163  24.780  0.00  0.00    -0.021 A 
ATOM      9  C   UNL     1       8.566  -2.402  24.636  0.00  0.00    +0.003 A 
ATOM     10  C   UNL     1       8.431  -3.343  23.597  0.00  0.00    +0.015 A 
ENDROOT
BRANCH   1  11
ATOM     11  C   UNL     1       7.465  -5.501  22.664  0.00  0.00    +0.220 C 
BRANCH  11  12
ATOM     12  S   UNL     1       5.884  -5.221  21.841  0.00  0.00    +0.033 S 
ATOM     13  O   UNL     1       5.350  -3.916  22.168  0.00  0.00    -0.158 OA
ATOM     14  O   UNL     1       5.950  -5.690  20.475  0.00  0.00    -0.158 OA
BRANCH  12  16
ATOM     15  C   UNL     1       3.588  -5.835  23.120  0.00  0.00    +0.127 C 
ATOM     16  N   UNL     1       4.881  -6.334  22.637  0.00  0.00    -0.197 NA
ATOM     17  H   UNL     1       4.810  -7.171  22.051  0.00  0.00    +0.147 HD
ENDBRANCH  12  16
ENDBRANCH  11  12
ENDBRANCH   1  11
BRANCH   8  18
ATOM     18  C   UNL     1      10.180  -0.497  23.779  0.00  0.00    +0.052 C 
BRANCH  18  19
ATOM     19  C   UNL     1      10.815   0.792  24.344  0.00  0.00    +0.088 C 
BRANCH  19  20
ATOM     20  N   UNL     1      10.439   2.049  23.660  0.00  0.00    -0.308 NA
ATOM     21  C   UNL     1       9.288   2.648  24.347  0.00  0.00    +0.104 C 
ATOM     22  C   UNL     1      10.106   1.835  22.251  0.00  0.00    +0.104 C 
ENDBRANCH  19  20
ENDBRANCH  18  19
ENDBRANCH   8  18
TORSDOF 6
ENDMDL
MODEL 3
REMARK VINA RESULT:      -5.7      3.491      7.196
REMARK  Name = 
REMARK  9 active torsions:
REMARK  status: ('A' for Active; 'I' for Inactive)
REMARK    1  A    between atoms: C_1  and  N_2
REMARK    2  A    between atoms: N_2  and  S_3
REMARK    3  A    between atoms: S_3  and  C_6
REMARK    4  A    between atoms: C_6  and  C_7
REMARK    5  A    between atoms: C_13  and  C_14
REMARK    6  A    between atoms: C_14  and  C_15
REMARK    7  A    between atoms: C_15  and  N_16
REMARK    8  A    between atoms: N_16  and  C_17
REMARK    9  A    between atoms: N_16  and  C_18
REMARK                            x       y       z     vdW  Elec       q    Type
REMARK                         _______ _______ _______ _____ _____    ______ ____
ROOT
ATOM      1  C   UNL     1       8.245  -2.624  24.782  0.00  0.00    -0.024 A 
ATOM      2  C   UNL     1       7.932  -3.229  23.557  0.00  0.00    +0.007 A 
ATOM      3  C   UNL     1       8.278  -2.636  22.339  0.00  0.00    +0.026 A 
ATOM      4  C   UNL     1       8.941  -1.405  22.380  0.00  0.00    +0.047 A 
ATOM      5  N   UNL     1       9.402  -0.617  21.354  0.00  0.00    -0.360 N 
ATOM      6  H   UNL     1       9.317  -0.845  20.375  0.00  0.00    +0.165 HD
ATOM      7  C   UNL     1       9.989   0.513  21.853  0.00  0.00    +0.087 A 
ATOM      8  C   UNL     1       9.892   0.487  23.232  0.00  0.00    -0.021 A 
ATOM      9  C   UNL     1       9.258  -0.753  23.571  0.00  0.00    +0.003 A 
ATOM     10  C   UNL     1       8.924  -1.388  24.783  0.00  0.00    +0.015 A 
ENDROOT
BRANCH   1  11
ATOM     11  C   UNL     1       7.942  -3.349  26.069  0.00  0.00    +0.220 C 
BRANCH  11  12
ATOM     12  S   UNL     1       7.908  -5.135  25.819  0.00  0.00    +0.033 S 
ATOM     13  O   UNL     1       6.682  -5.547  25.170  0.00  0.00    -0.158 OA
ATOM     14  O   UNL     1       9.200  -5.592  25.356  0.00  0.00    -0.158 OA
BRANCH  12  16
ATOM     15  C   UNL     1       6.455  -5.692  28.025  0.00  0.00    +0.127 C 
ATOM     16  N   UNL     1       7.791  -5.702  27.415  0.00  0.00    -0.197 NA
ATOM     17  H   UNL     1       8.262  -6.609  27.463  0.00  0.00    +0.147 HD
ENDBRANCH  12  16
ENDBRANCH  11  12
ENDBRANCH   1  11
BRANCH   8  18
ATOM     18  C   UNL     1      10.376   1.562  24.168  0.00  0.00    +0.052 C 
BRANCH  18  19
ATOM     19  C   UNL     1      10.611   2.901  23.436  0.00  0.00    +0.088 C 
BRANCH  19  20
ATOM     20  N   UNL     1       9.577   3.939  23.645  0.00  0.00    -0.308 NA
ATOM     21  C   UNL     1      10.232   5.230  23.889  0.00  0.00    +0.104 C 
ATOM     22  C   UNL     1       8.692   3.624  24.766  0.00  0.00    +0.104 C 
ENDBRANCH  19  20
ENDBRANCH  18  19
ENDBRANCH   8  18
TORSDOF 6
ENDMDL
MODEL 4
REMARK VINA RESULT:      -5.7      3.558      6.559
REMARK  Name = 
REMARK  9 active torsions:
REMARK  status: ('A' for Active; 'I' for Inactive)
REMARK    1  A    between atoms: C_1  and  N_2
REMARK    2  A    between atoms: N_2  and  S_3
REMARK    3  A    between atoms: S_3  and  C_6
REMARK    4  A    between atoms: C_6  and  C_7
REMARK    5  A    between atoms: C_13  and  C_14
REMARK    6  A    between atoms: C_14  and  C_15
REMARK    7  A    between atoms: C_15  and  N_16
REMARK    8  A    between atoms: N_16  and  C_17
REMARK    9  A    between atoms: N_16  and  C_18
REMARK                            x       y       z     vdW  Elec       q    Type
REMARK                         _______ _______ _______ _____ _____    ______ ____
ROOT
ATOM      1  C   UNL     1       7.431  -2.868  25.110  0.00  0.00    -0.024 A 
ATOM      2  C   UNL     1       7.070  -3.496  23.910  0.00  0.00    +0.007 A 
ATOM      3  C   UNL     1       7.675  -3.156  22.696  0.00  0.00    +0.026 A 
ATOM      4  C   UNL     1       8.650  -2.154  22.714  0.00  0.00    +0.047 A 
ATOM      5  N   UNL     1       9.403  -1.638  21.688  0.00  0.00    -0.360 N 
ATOM      6  H   UNL     1       9.345  -1.941  20.726  0.00  0.00    +0.165 HD
ATOM      7  C   UNL     1      10.237  -0.661  22.158  0.00  0.00    +0.087 A 
ATOM      8  C   UNL     1      10.015  -0.508  23.514  0.00  0.00    -0.021 A 
ATOM      9  C   UNL     1       9.030  -1.485  23.877  0.00  0.00    +0.003 A 
ATOM     10  C   UNL     1       8.425  -1.869  25.090  0.00  0.00    +0.015 A 
ENDROOT
BRANCH   1  11
ATOM     11  C   UNL     1       6.823  -3.337  26.408  0.00  0.00    +0.220 C 
BRANCH  11  12
ATOM     12  S   UNL     1       7.417  -4.983  26.847  0.00  0.00    +0.033 S 
ATOM     13  O   UNL     1       7.029  -5.335  28.196  0.00  0.00    -0.158 OA
ATOM     14  O   UNL     1       7.214  -5.892  25.741  0.00  0.00    -0.158 OA
BRANCH  12  16
ATOM     15  C   UNL     1       9.877  -5.213  25.759  0.00  0.00    +0.127 C 
ATOM     16  N   UNL     1       9.095  -4.736  26.907  0.00  0.00    -0.197 NA
ATOM     17  H   UNL     1       9.262  -3.754  27.144  0.00  0.00    +0.147 HD
ENDBRANCH  12  16
ENDBRANCH  11  12
ENDBRANCH   1  11
BRANCH   8  18
ATOM     18  C   UNL     1      10.695   0.492  24.410  0.00  0.00    +0.052 C 
BRANCH  18  19
ATOM     19  C   UNL     1      10.294   1.942  24.063  0.00  0.00    +0.088 C 
BRANCH  19  20
ATOM     20  N   UNL     1       8.839   2.207  23.988  0.00  0.00    -0.308 NA
ATOM     21  C   UNL     1       8.514   2.745  22.661  0.00  0.00    +0.104 C 
ATOM     22  C   UNL     1       8.392   3.147  25.016  0.00  0.00    +0.104 C 
ENDBRANCH  19  20
ENDBRANCH  18  19
ENDBRANCH   8  18
TORSDOF 6
ENDMDL
MODEL 5
REMARK VINA RESULT:      -5.7      2.520      4.074
REMARK  Name = 
REMARK  9 active torsions:
REMARK  status: ('A' for Active; 'I' for Inactive)
REMARK    1  A    between atoms: C_1  and  N_2
REMARK    2  A    between atoms: N_2  and  S_3
REMARK    3  A    between atoms: S_3  and  C_6
REMARK    4  A    between atoms: C_6  and  C_7
REMARK    5  A    between atoms: C_13  and  C_14
REMARK    6  A    between atoms: C_14  and  C_15
REMARK    7  A    between atoms: C_15  and  N_16
REMARK    8  A    between atoms: N_16  and  C_17
REMARK    9  A    between atoms: N_16  and  C_18
REMARK                            x       y       z     vdW  Elec       q    Type
REMARK                         _______ _______ _______ _____ _____    ______ ____
ROOT
ATOM      1  C   UNL     1       9.955   1.489  23.202  0.00  0.00    -0.024 A 
ATOM      2  C   UNL     1       9.925   1.131  21.848  0.00  0.00    +0.007 A 
ATOM      3  C   UNL     1       9.455  -0.119  21.433  0.00  0.00    +0.026 A 
ATOM      4  C   UNL     1       9.024  -1.012  22.419  0.00  0.00    +0.047 A 
ATOM      5  N   UNL     1       8.512  -2.281  22.297  0.00  0.00    -0.360 N 
ATOM      6  H   UNL     1       8.370  -2.759  21.420  0.00  0.00    +0.165 HD
ATOM      7  C   UNL     1       8.226  -2.795  23.531  0.00  0.00    +0.087 A 
ATOM      8  C   UNL     1       8.579  -1.863  24.490  0.00  0.00    -0.021 A 
ATOM      9  C   UNL     1       9.053  -0.711  23.780  0.00  0.00    +0.003 A 
ATOM     10  C   UNL     1       9.503   0.566  24.167  0.00  0.00    +0.015 A 
ENDROOT
BRANCH   1  11
ATOM     11  C   UNL     1      10.375   2.884  23.594  0.00  0.00    +0.220 C 
BRANCH  11  12
ATOM     12  S   UNL     1       8.943   3.965  23.788  0.00  0.00    +0.033 S 
ATOM     13  O   UNL     1       7.894   3.612  22.857  0.00  0.00    -0.158 OA
ATOM     14  O   UNL     1       8.670   4.174  25.193  0.00  0.00    -0.158 OA
BRANCH  12  16
ATOM     15  C   UNL     1      10.870   5.856  23.756  0.00  0.00    +0.127 C 
ATOM     16  N   UNL     1       9.558   5.449  23.238  0.00  0.00    -0.197 NA
ATOM     17  H   UNL     1       9.495   5.458  22.216  0.00  0.00    +0.147 HD
ENDBRANCH  12  16
ENDBRANCH  11  12
ENDBRANCH   1  11
BRANCH   8  18
ATOM     18  C   UNL     1       8.467  -2.047  25.980  0.00  0.00    +0.052 C 
BRANCH  18  19
ATOM     19  C   UNL     1       8.662  -3.522  26.394  0.00  0.00    +0.088 C 
BRANCH  19  20
ATOM     20  N   UNL     1       7.495  -4.171  27.032  0.00  0.00    -0.308 NA
ATOM     21  C   UNL     1       7.220  -5.444  26.354  0.00  0.00    +0.104 C 
ATOM     22  C   UNL     1       6.298  -3.330  26.987  0.00  0.00    +0.104 C 
ENDBRANCH  19  20
ENDBRANCH  18  19
ENDBRANCH   8  18
TORSDOF 6
ENDMDL
MODEL 6
REMARK VINA RESULT:      -5.6      4.447      7.174
REMARK  Name = 
REMARK  9 active torsions:
REMARK  status: ('A' for Active; 'I' for Inactive)
REMARK    1  A    between atoms: C_1  and  N_2
REMARK    2  A    between atoms: N_2  and  S_3
REMARK    3  A    between atoms: S_3  and  C_6
REMARK    4  A    between atoms: C_6  and  C_7
REMARK    5  A    between atoms: C_13  and  C_14
REMARK    6  A    between atoms: C_14  and  C_15
REMARK    7  A    between atoms: C_15  and  N_16
REMARK    8  A    between atoms: N_16  and  C_17
REMARK    9  A    between atoms: N_16  and  C_18
REMARK                            x       y       z     vdW  Elec       q    Type
REMARK                         _______ _______ _______ _____ _____    ______ ____
ROOT
ATOM      1  C   UNL     1       5.051  -5.483  26.003  0.00  0.00    -0.024 A 
ATOM      2  C   UNL     1       4.269  -6.509  25.456  0.00  0.00    +0.007 A 
ATOM      3  C   UNL     1       4.399  -6.892  24.117  0.00  0.00    +0.026 A 
ATOM      4  C   UNL     1       5.333  -6.208  23.333  0.00  0.00    +0.047 A 
ATOM      5  N   UNL     1       5.672  -6.381  22.013  0.00  0.00    -0.360 N 
ATOM      6  H   UNL     1       5.264  -7.075  21.404  0.00  0.00    +0.165 HD
ATOM      7  C   UNL     1       6.637  -5.483  21.651  0.00  0.00    +0.087 A 
ATOM      8  C   UNL     1       6.924  -4.682  22.741  0.00  0.00    -0.021 A 
ATOM      9  C   UNL     1       6.120  -5.168  23.825  0.00  0.00    +0.003 A 
ATOM     10  C   UNL     1       5.989  -4.822  25.184  0.00  0.00    +0.015 A 
ENDROOT
BRANCH   1  11
ATOM     11  C   UNL     1       4.946  -5.172  27.476  0.00  0.00    +0.220 C 
BRANCH  11  12
ATOM     12  S   UNL     1       6.093  -6.179  28.437  0.00  0.00    +0.033 S 
ATOM     13  O   UNL     1       5.593  -7.527  28.598  0.00  0.00    -0.158 OA
ATOM     14  O   UNL     1       7.451  -5.922  28.011  0.00  0.00    -0.158 OA
BRANCH  12  16
ATOM     15  C   UNL     1       4.679  -4.871  30.327  0.00  0.00    +0.127 C 
ATOM     16  N   UNL     1       5.974  -5.464  29.971  0.00  0.00    -0.197 NA
ATOM     17  H   UNL     1       6.327  -6.133  30.661  0.00  0.00    +0.147 HD
ENDBRANCH  12  16
ENDBRANCH  11  12
ENDBRANCH   1  11
BRANCH   8  18
ATOM     18  C   UNL     1       7.901  -3.537  22.759  0.00  0.00    +0.052 C 
BRANCH  18  19
ATOM     19  C   UNL     1       7.190  -2.171  22.648  0.00  0.00    +0.088 C 
BRANCH  19  20
ATOM     20  N   UNL     1       8.075  -0.986  22.599  0.00  0.00    -0.308 NA
ATOM     21  C   UNL     1       9.324  -1.343  21.914  0.00  0.00    +0.104 C 
ATOM     22  C   UNL     1       8.385  -0.469  23.933  0.00  0.00    +0.104 C 
ENDBRANCH  19  20
ENDBRANCH  18  19
ENDBRANCH   8  18
TORSDOF 6
ENDMDL
MODEL 7
REMARK VINA RESULT:      -5.6      3.771      7.071
REMARK  Name = 
REMARK  9 active torsions:
REMARK  status: ('A' for Active; 'I' for Inactive)
REMARK    1  A    between atoms: C_1  and  N_2
REMARK    2  A    between atoms: N_2  and  S_3
REMARK    3  A    between atoms: S_3  and  C_6
REMARK    4  A    between atoms: C_6  and  C_7
REMARK    5  A    between atoms: C_13  and  C_14
REMARK    6  A    between atoms: C_14  and  C_15
REMARK    7  A    between atoms: C_15  and  N_16
REMARK    8  A    between atoms: N_16  and  C_17
REMARK    9  A    between atoms: N_16  and  C_18
REMARK                            x       y       z     vdW  Elec       q    Type
REMARK                         _______ _______ _______ _____ _____    ______ ____
ROOT
ATOM      1  C   UNL     1       7.966  -4.577  25.467  0.00  0.00    -0.024 A 
ATOM      2  C   UNL     1       7.478  -5.059  24.245  0.00  0.00    +0.007 A 
ATOM      3  C   UNL     1       7.617  -4.326  23.063  0.00  0.00    +0.026 A 
ATOM      4  C   UNL     1       8.251  -3.082  23.140  0.00  0.00    +0.047 A 
ATOM      5  N   UNL     1       8.529  -2.170  22.151  0.00  0.00    -0.360 N 
ATOM      6  H   UNL     1       8.297  -2.295  21.176  0.00  0.00    +0.165 HD
ATOM      7  C   UNL     1       9.161  -1.078  22.678  0.00  0.00    +0.087 A 
ATOM      8  C   UNL     1       9.281  -1.256  24.043  0.00  0.00    -0.021 A 
ATOM      9  C   UNL     1       8.735  -2.549  24.334  0.00  0.00    +0.003 A 
ATOM     10  C   UNL     1       8.608  -3.323  25.504  0.00  0.00    +0.015 A 
ENDROOT
BRANCH   1  11
ATOM     11  C   UNL     1       7.883  -5.448  26.697  0.00  0.00    +0.220 C 
BRANCH  11  12
ATOM     12  S   UNL     1       6.193  -5.535  27.320  0.00  0.00    +0.033 S 
ATOM     13  O   UNL     1       5.516  -4.265  27.173  0.00  0.00    -0.158 OA
ATOM     14  O   UNL     1       5.575  -6.773  26.899  0.00  0.00    -0.158 OA
BRANCH  12  16
ATOM     15  C   UNL     1       5.341  -5.357  29.876  0.00  0.00    +0.127 C 
ATOM     16  N   UNL     1       6.452  -5.721  28.988  0.00  0.00    -0.197 NA
ATOM     17  H   UNL     1       6.819  -6.664  29.147  0.00  0.00    +0.147 HD
ENDBRANCH  12  16
ENDBRANCH  11  12
ENDBRANCH   1  11
BRANCH   8  18
ATOM     18  C   UNL     1       9.881  -0.269  25.010  0.00  0.00    +0.052 C 
BRANCH  18  19
ATOM     19  C   UNL     1      10.856   0.702  24.310  0.00  0.00    +0.088 C 
BRANCH  19  20
ATOM     20  N   UNL     1      10.342   2.068  24.069  0.00  0.00    -0.308 NA
ATOM     21  C   UNL     1       9.015   2.201  24.683  0.00  0.00    +0.104 C 
ATOM     22  C   UNL     1      10.251   2.384  22.643  0.00  0.00    +0.104 C 
ENDBRANCH  19  20
ENDBRANCH  18  19
ENDBRANCH   8  18
TORSDOF 6
ENDMDL
MODEL 8
REMARK VINA RESULT:      -5.6      2.793      5.053
REMARK  Name = 
REMARK  9 active torsions:
REMARK  status: ('A' for Active; 'I' for Inactive)
REMARK    1  A    between atoms: C_1  and  N_2
REMARK    2  A    between atoms: N_2  and  S_3
REMARK    3  A    between atoms: S_3  and  C_6
REMARK    4  A    between atoms: C_6  and  C_7
REMARK    5  A    between atoms: C_13  and  C_14
REMARK    6  A    between atoms: C_14  and  C_15
REMARK    7  A    between atoms: C_15  and  N_16
REMARK    8  A    between atoms: N_16  and  C_17
REMARK    9  A    between atoms: N_16  and  C_18
REMARK                            x       y       z     vdW  Elec       q    Type
REMARK                         _______ _______ _______ _____ _____    ______ ____
ROOT
ATOM      1  C   UNL     1       7.230  -3.314  23.163  0.00  0.00    -0.024 A 
ATOM      2  C   UNL     1       7.155  -4.074  21.988  0.00  0.00    +0.007 A 
ATOM      3  C   UNL     1       6.438  -5.273  21.938  0.00  0.00    +0.026 A 
ATOM      4  C   UNL     1       5.803  -5.701  23.108  0.00  0.00    +0.047 A 
ATOM      5  N   UNL     1       5.033  -6.815  23.337  0.00  0.00    -0.360 N 
ATOM      6  H   UNL     1       4.812  -7.511  22.641  0.00  0.00    +0.165 HD
ATOM      7  C   UNL     1       4.615  -6.841  24.639  0.00  0.00    +0.087 A 
ATOM      8  C   UNL     1       5.137  -5.740  25.291  0.00  0.00    -0.021 A 
ATOM      9  C   UNL     1       5.864  -4.992  24.307  0.00  0.00    +0.003 A 
ATOM     10  C   UNL     1       6.568  -3.772  24.320  0.00  0.00    +0.015 A 
ENDROOT
BRANCH   1  11
ATOM     11  C   UNL     1       7.931  -1.978  23.142  0.00  0.00    +0.220 C 
BRANCH  11  12
ATOM     12  S   UNL     1       9.704  -2.169  23.411  0.00  0.00    +0.033 S 
ATOM     13  O   UNL     1       9.995  -3.393  24.125  0.00  0.00    -0.158 OA
ATOM     14  O   UNL     1      10.427  -1.802  22.213  0.00  0.00    -0.158 OA
BRANCH  12  16
ATOM     15  C   UNL     1       9.024  -0.694  25.568  0.00  0.00    +0.127 C 
ATOM     16  N   UNL     1      10.020  -0.916  24.512  0.00  0.00    -0.197 NA
ATOM     17  H   UNL     1      10.975  -1.035  24.861  0.00  0.00    +0.147 HD
ENDBRANCH  12  16
ENDBRANCH  11  12
ENDBRANCH   1  11
BRANCH   8  18
ATOM     18  C   UNL     1       4.954  -5.411  26.749  0.00  0.00    +0.052 C 
BRANCH  18  19
ATOM     19  C   UNL     1       6.080  -6.008  27.620  0.00  0.00    +0.088 C 
BRANCH  19  20
ATOM     20  N   UNL     1       5.644  -6.924  28.697  0.00  0.00    -0.308 NA
ATOM     21  C   UNL     1       4.177  -6.979  28.721  0.00  0.00    +0.104 C 
ATOM     22  C   UNL     1       6.136  -6.509  30.012  0.00  0.00    +0.104 C 
ENDBRANCH  19  20
ENDBRANCH  18  19
ENDBRANCH   8  18
TORSDOF 6
ENDMDL
MODEL 9
REMARK VINA RESULT:      -5.5      2.849      5.972
REMARK  Name = 
REMARK  9 active torsions:
REMARK  status: ('A' for Active; 'I' for Inactive)
REMARK    1  A    between atoms: C_1  and  N_2
REMARK    2  A    between atoms: N_2  and  S_3
REMARK    3  A    between atoms: S_3  and  C_6
REMARK    4  A    between atoms: C_6  and  C_7
REMARK    5  A    between atoms: C_13  and  C_14
REMARK    6  A    between atoms: C_14  and  C_15
REMARK    7  A    between atoms: C_15  and  N_16
REMARK    8  A    between atoms: N_16  and  C_17
REMARK    9  A    between atoms: N_16  and  C_18
REMARK                            x       y       z     vdW  Elec       q    Type
REMARK                         _______ _______ _______ _____ _____    ______ ____
ROOT
ATOM      1  C   UNL     1       8.280  -2.840  23.443  0.00  0.00    -0.024 A 
ATOM      2  C   UNL     1       8.501  -3.028  24.815  0.00  0.00    +0.007 A 
ATOM      3  C   UNL     1       9.064  -2.024  25.609  0.00  0.00    +0.026 A 
ATOM      4  C   UNL     1       9.413  -0.821  24.986  0.00  0.00    +0.047 A 
ATOM      5  N   UNL     1       9.963   0.320  25.517  0.00  0.00    -0.360 N 
ATOM      6  H   UNL     1      10.195   0.443  26.491  0.00  0.00    +0.165 HD
ATOM      7  C   UNL     1      10.145   1.256  24.538  0.00  0.00    +0.087 A 
ATOM      8  C   UNL     1       9.735   0.719  23.332  0.00  0.00    -0.021 A 
ATOM      9  C   UNL     1       9.233  -0.593  23.622  0.00  0.00    +0.003 A 
ATOM     10  C   UNL     1       8.636  -1.610  22.853  0.00  0.00    +0.015 A 
ENDROOT
BRANCH   1  11
ATOM     11  C   UNL     1       7.579  -3.913  22.648  0.00  0.00    +0.220 C 
BRANCH  11  12
ATOM     12  S   UNL     1       5.812  -3.576  22.517  0.00  0.00    +0.033 S 
ATOM     13  O   UNL     1       5.390  -2.612  23.510  0.00  0.00    -0.158 OA
ATOM     14  O   UNL     1       5.437  -3.444  21.127  0.00  0.00    -0.158 OA
BRANCH  12  16
ATOM     15  C   UNL     1       5.506  -5.534  24.350  0.00  0.00    +0.127 C 
ATOM     16  N   UNL     1       5.144  -5.057  23.010  0.00  0.00    -0.197 NA
ATOM     17  H   UNL     1       4.135  -5.021  22.841  0.00  0.00    +0.147 HD
ENDBRANCH  12  16
ENDBRANCH  11  12
ENDBRANCH   1  11
BRANCH   8  18
ATOM     18  C   UNL     1       9.805   1.404  21.993  0.00  0.00    +0.052 C 
BRANCH  18  19
ATOM     19  C   UNL     1       8.417   1.889  21.522  0.00  0.00    +0.088 C 
BRANCH  19  20
ATOM     20  N   UNL     1       7.595   2.580  22.541  0.00  0.00    -0.308 NA
ATOM     21  C   UNL     1       6.328   1.859  22.709  0.00  0.00    +0.104 C 
ATOM     22  C   UNL     1       7.319   3.971  22.182  0.00  0.00    +0.104 C 
ENDBRANCH  19  20
ENDBRANCH  18  19
ENDBRANCH   8  18
TORSDOF 6
ENDMDL
