MODEL 1
REMARK VINA RESULT:      -0.8      0.000      0.000
REMARK  Name = 
REMARK  33 active torsions:
REMARK  status: ('A' for Active; 'I' for Inactive)
REMARK    1  A    between atoms: C_1  and  C_2
REMARK    2  A    between atoms: C_2  and  C_3
REMARK    3  A    between atoms: C_4  and  C_5
REMARK    4  A    between atoms: C_9  and  C_10
REMARK    5  A    between atoms: C_12  and  C_13
REMARK    6  A    between atoms: C_17  and  C_19
REMARK    7  A    between atoms: C_20  and  C_22
REMARK    8  A    between atoms: C_22  and  C_23
REMARK    9  A    between atoms: C_23  and  C_24
REMARK   10  A    between atoms: C_24  and  O_26
REMARK   11  A    between atoms: O_26  and  C_27
REMARK   12  A    between atoms: C_27  and  C_28
REMARK   13  A    between atoms: C_29  and  C_30
REMARK   14  A    between atoms: C_29  and  C_31
REMARK   15  A    between atoms: C_31  and  C_32
REMARK   16  A    between atoms: C_32  and  C_33
REMARK   17  A    between atoms: C_33  and  C_34
REMARK   18  A    between atoms: C_34  and  C_36
REMARK   19  A    between atoms: C_34  and  C_37
REMARK   20  A    between atoms: C_37  and  C_38
REMARK   21  A    between atoms: C_38  and  C_39
REMARK   22  A    between atoms: C_39  and  C_40
REMARK   23  A    between atoms: C_40  and  C_42
REMARK   24  A    between atoms: C_40  and  C_43
REMARK   25  A    between atoms: C_43  and  C_44
REMARK   26  A    between atoms: C_44  and  C_45
REMARK   27  A    between atoms: C_45  and  C_46
REMARK   28  A    between atoms: C_46  and  C_47
REMARK   29  A    between atoms: C_46  and  C_48
REMARK   30  A    between atoms: C_58  and  C_59
REMARK   31  A    between atoms: C_63  and  C_65
REMARK   32  A    between atoms: C_65  and  O_67
REMARK   33  A    between atoms: O_67  and  C_68
REMARK                            x       y       z     vdW  Elec       q    Type
REMARK                         _______ _______ _______ _____ _____    ______ ____
ROOT
ATOM      1  C   UNL     1      11.865   4.372  23.709  0.00  0.00    +0.000 C 
ATOM      2  C   UNL     1      10.381   1.797  23.823  0.00  0.00    +0.000 C 
ATOM      3  N   UNL     1       9.216   2.161  24.060  0.00  0.00    +1.000 N 
ATOM      4 MG   UNL     1       4.951  -0.747  24.985  0.00  0.00    +0.000 Mg
ATOM      5  N   UNL     1       5.712  -2.670  24.842  0.00  0.00    +0.000 N 
ATOM      6  C   UNL     1       4.451  -3.445  25.873  0.00  0.00    +0.000 A 
ATOM      7  C   UNL     1       4.038  -4.992  26.613  0.00  0.00    +0.000 A 
ATOM      8  C   UNL     1       4.407  -5.360  27.886  0.00  0.00    +0.000 C 
ATOM      9  C   UNL     1       5.492  -4.315  28.000  0.00  0.00    +0.000 C 
ATOM     10  O   UNL     1       4.238  -6.600  28.388  0.00  0.00    +0.000 OA
ATOM     11  C   UNL     1       4.622  -5.711  26.012  0.00  0.00    +0.000 A 
ATOM     12  C   UNL     1       2.517  -7.515  26.054  0.00  0.00    +0.000 C 
ATOM     13  C   UNL     1       4.699  -2.800  26.967  0.00  0.00    +0.000 C 
ATOM     14  C   UNL     1       5.349  -0.972  26.294  0.00  0.00    +0.000 C 
ATOM     15  C   UNL     1       6.834  -1.036  25.423  0.00  0.00    +0.000 C 
ATOM     16  C   UNL     1       6.201  -0.465  23.524  0.00  0.00    +0.000 C 
ATOM     17  C   UNL     1       5.587  -1.564  22.552  0.00  0.00    +0.000 C 
ATOM     18  C   UNL     1       5.486   0.622  24.320  0.00  0.00    +0.000 C 
ATOM     19  C   UNL     1       5.679   1.680  23.366  0.00  0.00    +0.000 C 
ATOM     20  C   UNL     1       6.969   2.157  23.282  0.00  0.00    +0.000 A 
ATOM     21  C   UNL     1       7.373   3.224  22.476  0.00  0.00    +0.000 A 
ATOM     22  C   UNL     1       6.857   3.517  21.190  0.00  0.00    +0.000 C 
ATOM     23  C   UNL     1       7.920   4.209  23.235  0.00  0.00    +0.000 A 
ATOM     24  C   UNL     1       7.737   3.588  24.749  0.00  0.00    +0.000 A 
ATOM     25  C   UNL     1       9.176   4.188  25.452  0.00  0.00    +0.000 C 
ATOM     26  C   UNL     1       6.704  -3.446  25.325  0.00  0.00    +0.000 A 
ATOM     27  N   UNL     1       7.259   2.020  24.500  0.00  0.00    +0.000 N 
ATOM     28  N   UNL     1       4.736  -0.238  25.423  0.00  0.00    +1.000 N 
ATOM     29  C   UNL     1       9.957   3.800  24.527  0.00  0.00    +0.000 C 
ATOM     30  C   UNL     1      10.292  -0.071  25.208  0.00  0.00    +0.000 C 
ATOM     31  C   UNL     1      10.989   4.942  23.744  0.00  0.00    +0.000 C 
ATOM     32  C   UNL     1      10.892   5.090  22.258  0.00  0.00    +0.000 C 
ENDROOT
BRANCH  23  33
ATOM     33  C   UNL     1       8.407   5.800  22.663  0.00  0.00    +0.000 C 
ATOM     34  C   UNL     1       7.619   6.889  22.676  0.00  0.00    +0.000 C 
ENDBRANCH  23  33
BRANCH   1  36
ATOM     35  C   UNL     1      14.278   7.107  21.707  0.00  0.00    +0.000 C 
ATOM     36  C   UNL     1      13.178   6.269  22.877  0.00  0.00    +0.000 C 
ENDBRANCH   1  36
BRANCH   9  37
ATOM     37  C   UNL     1       6.654  -5.336  27.281  0.00  0.00    +0.000 C 
ATOM     38  O   UNL     1       6.630  -6.500  26.748  0.00  0.00    +0.000 OA
BRANCH  37  39
ATOM     39  O   UNL     1       7.776  -4.776  27.491  0.00  0.00    +0.000 OA
ATOM     40  C   UNL     1       8.848  -4.843  26.739  0.00  0.00    +0.000 C 
ENDBRANCH  37  39
ENDBRANCH   9  37
BRANCH  15  41
ATOM     41  C   UNL     1       8.106  -1.851  25.074  0.00  0.00    +0.000 C 
BRANCH  41  42
ATOM     42  C   UNL     1       8.476  -1.021  25.326  0.00  0.00    +0.000 C 
BRANCH  42  43
ATOM     43  C   UNL     1       8.441  -0.714  27.128  0.00  0.00    +0.000 C 
ATOM     44  O   UNL     1       9.179  -1.346  27.863  0.00  0.00    +0.000 OA
BRANCH  43  45
ATOM     45  O   UNL     1       7.990   0.445  27.375  0.00  0.00    +0.000 OA
BRANCH  45  46
ATOM     46  C   UNL     1       7.786   0.693  28.577  0.00  0.00    +0.000 C 
BRANCH  46  47
ATOM     47  C   UNL     1       6.342   0.926  28.890  0.00  0.00    +0.000 C 
ATOM     48  C   UNL     1       5.974   2.035  29.521  0.00  0.00    +0.000 C 
ATOM     49  C   UNL     1       6.999   3.065  29.897  0.00  0.00    +0.000 C 
BRANCH  48  50
ATOM     50  C   UNL     1       4.529   2.295  29.864  0.00  0.00    +0.000 C 
BRANCH  50  51
ATOM     51  C   UNL     1       3.580   1.782  28.808  0.00  0.00    +0.000 C 
BRANCH  51  52
ATOM     52  C   UNL     1       2.211   2.435  28.945  0.00  0.00    +0.000 C 
BRANCH  52  53
ATOM     53  C   UNL     1       1.985   3.409  27.813  0.00  0.00    +0.000 C 
ATOM     54  C   UNL     1       0.587   3.246  27.224  0.00  0.00    +0.000 C 
BRANCH  53  55
ATOM     55  C   UNL     1       3.037   3.193  26.732  0.00  0.00    +0.000 C 
BRANCH  55  56
ATOM     56  C   UNL     1       3.957   4.382  26.627  0.00  0.00    +0.000 C 
BRANCH  56  57
ATOM     57  C   UNL     1       3.222   5.629  26.267  0.00  0.00    +0.000 C 
BRANCH  57  58
ATOM     58  C   UNL     1       3.156   5.759  24.757  0.00  0.00    +0.000 C 
ATOM     59  C   UNL     1       4.272   6.625  24.224  0.00  0.00    +0.000 C 
BRANCH  58  60
ATOM     60  C   UNL     1       1.902   6.391  24.397  0.00  0.00    +0.000 C 
BRANCH  60  61
ATOM     61  C   UNL     1       0.823   5.495  23.834  0.00  0.00    +0.000 C 
BRANCH  61  62
ATOM     62  C   UNL     1       1.194   4.033  23.606  0.00  0.00    +0.000 C 
BRANCH  62  63
ATOM     63  C   UNL     1       1.413   3.733  22.151  0.00  0.00    +0.000 C 
ATOM     64  C   UNL     1       2.888   3.447  21.903  0.00  0.00    +0.000 C 
ATOM     65  C   UNL     1       0.981   4.928  21.311  0.00  0.00    +0.000 C 
ENDBRANCH  62  63
ENDBRANCH  61  62
ENDBRANCH  60  61
ENDBRANCH  58  60
ENDBRANCH  57  58
ENDBRANCH  56  57
ENDBRANCH  55  56
ENDBRANCH  53  55
ENDBRANCH  52  53
ENDBRANCH  51  52
ENDBRANCH  50  51
ENDBRANCH  48  50
ENDBRANCH  46  47
ENDBRANCH  45  46
ENDBRANCH  43  45
ENDBRANCH  42  43
ENDBRANCH  41  42
ENDBRANCH  15  41
TORSDOF 22
ENDMDL
MODEL 2
REMARK VINA RESULT:      -0.2      1.125      2.330
REMARK  Name = 
REMARK  33 active torsions:
REMARK  status: ('A' for Active; 'I' for Inactive)
REMARK    1  A    between atoms: C_1  and  C_2
REMARK    2  A    between atoms: C_2  and  C_3
REMARK    3  A    between atoms: C_4  and  C_5
REMARK    4  A    between atoms: C_9  and  C_10
REMARK    5  A    between atoms: C_12  and  C_13
REMARK    6  A    between atoms: C_17  and  C_19
REMARK    7  A    between atoms: C_20  and  C_22
REMARK    8  A    between atoms: C_22  and  C_23
REMARK    9  A    between atoms: C_23  and  C_24
REMARK   10  A    between atoms: C_24  and  O_26
REMARK   11  A    between atoms: O_26  and  C_27
REMARK   12  A    between atoms: C_27  and  C_28
REMARK   13  A    between atoms: C_29  and  C_30
REMARK   14  A    between atoms: C_29  and  C_31
REMARK   15  A    between atoms: C_31  and  C_32
REMARK   16  A    between atoms: C_32  and  C_33
REMARK   17  A    between atoms: C_33  and  C_34
REMARK   18  A    between atoms: C_34  and  C_36
REMARK   19  A    between atoms: C_34  and  C_37
REMARK   20  A    between atoms: C_37  and  C_38
REMARK   21  A    between atoms: C_38  and  C_39
REMARK   22  A    between atoms: C_39  and  C_40
REMARK   23  A    between atoms: C_40  and  C_42
REMARK   24  A    between atoms: C_40  and  C_43
REMARK   25  A    between atoms: C_43  and  C_44
REMARK   26  A    between atoms: C_44  and  C_45
REMARK   27  A    between atoms: C_45  and  C_46
REMARK   28  A    between atoms: C_46  and  C_47
REMARK   29  A    between atoms: C_46  and  C_48
REMARK   30  A    between atoms: C_58  and  C_59
REMARK   31  A    between atoms: C_63  and  C_65
REMARK   32  A    between atoms: C_65  and  O_67
REMARK   33  A    between atoms: O_67  and  C_68
REMARK                            x       y       z     vdW  Elec       q    Type
REMARK                         _______ _______ _______ _____ _____    ______ ____
ROOT
ATOM      1  C   UNL     1      11.804   4.302  23.504  0.00  0.00    +0.000 C 
ATOM      2  C   UNL     1      10.387   1.687  23.557  0.00  0.00    +0.000 C 
ATOM      3  N   UNL     1       9.224   2.011  23.852  0.00  0.00    +1.000 N 
ATOM      4 MG   UNL     1       5.067  -1.044  24.799  0.00  0.00    +0.000 Mg
ATOM      5  N   UNL     1       5.868  -2.939  24.543  0.00  0.00    +0.000 N 
ATOM      6  C   UNL     1       4.665  -3.790  25.583  0.00  0.00    +0.000 A 
ATOM      7  C   UNL     1       4.318  -5.378  26.268  0.00  0.00    +0.000 A 
ATOM      8  C   UNL     1       4.742  -5.791  27.510  0.00  0.00    +0.000 C 
ATOM      9  C   UNL     1       5.805  -4.725  27.631  0.00  0.00    +0.000 C 
ATOM     10  O   UNL     1       4.622  -7.056  27.961  0.00  0.00    +0.000 OA
ATOM     11  C   UNL     1       4.897  -6.055  25.615  0.00  0.00    +0.000 A 
ATOM     12  C   UNL     1       2.838  -7.913  25.653  0.00  0.00    +0.000 C 
ATOM     13  C   UNL     1       4.939  -3.187  26.695  0.00  0.00    +0.000 C 
ATOM     14  C   UNL     1       5.519  -1.315  26.081  0.00  0.00    +0.000 C 
ATOM     15  C   UNL     1       6.971  -1.303  25.156  0.00  0.00    +0.000 C 
ATOM     16  C   UNL     1       6.255  -0.666  23.308  0.00  0.00    +0.000 C 
ATOM     17  C   UNL     1       5.633  -1.737  22.311  0.00  0.00    +0.000 C 
ATOM     18  C   UNL     1       5.544   0.366  24.177  0.00  0.00    +0.000 C 
ATOM     19  C   UNL     1       5.676   1.469  23.264  0.00  0.00    +0.000 C 
ATOM     20  C   UNL     1       6.950   1.982  23.155  0.00  0.00    +0.000 A 
ATOM     21  C   UNL     1       7.298   3.094  22.384  0.00  0.00    +0.000 A 
ATOM     22  C   UNL     1       6.728   3.429  21.131  0.00  0.00    +0.000 C 
ATOM     23  C   UNL     1       7.849   4.059  23.165  0.00  0.00    +0.000 A 
ATOM     24  C   UNL     1       7.738   3.367  24.656  0.00  0.00    +0.000 A 
ATOM     25  C   UNL     1       9.186   3.973  25.333  0.00  0.00    +0.000 C 
ATOM     26  C   UNL     1       6.896  -3.710  24.955  0.00  0.00    +0.000 A 
ATOM     27  N   UNL     1       7.288   1.800  24.355  0.00  0.00    +0.000 N 
ATOM     28  N   UNL     1       4.856  -0.561  25.267  0.00  0.00    +1.000 N 
ATOM     29  C   UNL     1       9.941   3.645  24.364  0.00  0.00    +0.000 C 
ATOM     30  C   UNL     1      10.395  -0.241  24.860  0.00  0.00    +0.000 C 
ATOM     31  C   UNL     1      10.916   4.847  23.596  0.00  0.00    +0.000 C 
ATOM     32  C   UNL     1      10.760   5.057  22.122  0.00  0.00    +0.000 C 
ENDROOT
BRANCH  23  33
ATOM     33  C   UNL     1       8.276   5.685  22.648  0.00  0.00    +0.000 C 
ATOM     34  C   UNL     1       7.401   6.589  22.174  0.00  0.00    +0.000 C 
ENDBRANCH  23  33
BRANCH   1  36
ATOM     35  C   UNL     1      14.372   7.108  21.819  0.00  0.00    +0.000 C 
ATOM     36  C   UNL     1      13.039   6.267  22.710  0.00  0.00    +0.000 C 
ENDBRANCH   1  36
BRANCH   9  37
ATOM     37  C   UNL     1       6.964  -5.684  26.826  0.00  0.00    +0.000 C 
ATOM     38  O   UNL     1       6.915  -6.646  25.982  0.00  0.00    +0.000 OA
BRANCH  37  39
ATOM     39  O   UNL     1       8.082  -5.378  27.350  0.00  0.00    +0.000 OA
ATOM     40  C   UNL     1       9.148  -4.925  26.735  0.00  0.00    +0.000 C 
ENDBRANCH  37  39
ENDBRANCH   9  37
BRANCH  15  41
ATOM     41  C   UNL     1       8.249  -2.069  24.725  0.00  0.00    +0.000 C 
BRANCH  41  42
ATOM     42  C   UNL     1       8.607  -1.240  24.996  0.00  0.00    +0.000 C 
BRANCH  42  43
ATOM     43  C   UNL     1       8.474  -0.929  26.793  0.00  0.00    +0.000 C 
ATOM     44  O   UNL     1       9.214  -1.516  27.564  0.00  0.00    +0.000 OA
BRANCH  43  45
ATOM     45  O   UNL     1       7.947   0.203  27.012  0.00  0.00    +0.000 OA
BRANCH  45  46
ATOM     46  C   UNL     1       8.011   0.602  28.189  0.00  0.00    +0.000 C 
BRANCH  46  47
ATOM     47  C   UNL     1       6.711   1.141  28.695  0.00  0.00    +0.000 C 
ATOM     48  C   UNL     1       6.691   1.905  29.781  0.00  0.00    +0.000 C 
ATOM     49  C   UNL     1       7.971   2.248  30.485  0.00  0.00    +0.000 C 
BRANCH  48  50
ATOM     50  C   UNL     1       5.397   2.453  30.327  0.00  0.00    +0.000 C 
BRANCH  50  51
ATOM     51  C   UNL     1       5.359   3.962  30.323  0.00  0.00    +0.000 C 
BRANCH  51  52
ATOM     52  C   UNL     1       4.205   4.474  29.472  0.00  0.00    +0.000 C 
BRANCH  52  53
ATOM     53  C   UNL     1       4.706   5.492  28.475  0.00  0.00    +0.000 C 
ATOM     54  C   UNL     1       3.550   6.304  27.896  0.00  0.00    +0.000 C 
BRANCH  53  55
ATOM     55  C   UNL     1       5.461   4.787  27.356  0.00  0.00    +0.000 C 
BRANCH  55  56
ATOM     56  C   UNL     1       4.570   4.559  26.162  0.00  0.00    +0.000 C 
BRANCH  56  57
ATOM     57  C   UNL     1       4.216   3.120  25.993  0.00  0.00    +0.000 C 
BRANCH  57  58
ATOM     58  C   UNL     1       2.730   2.995  25.710  0.00  0.00    +0.000 C 
ATOM     59  C   UNL     1       2.225   4.146  24.873  0.00  0.00    +0.000 C 
BRANCH  58  60
ATOM     60  C   UNL     1       2.012   3.020  26.968  0.00  0.00    +0.000 C 
BRANCH  60  61
ATOM     61  C   UNL     1       0.984   1.933  27.188  0.00  0.00    +0.000 C 
BRANCH  61  62
ATOM     62  C   UNL     1       0.949   1.292  28.572  0.00  0.00    +0.000 C 
BRANCH  62  63
ATOM     63  C   UNL     1       1.670  -0.026  28.596  0.00  0.00    +0.000 C 
ATOM     64  C   UNL     1       3.171   0.211  28.494  0.00  0.00    +0.000 C 
ATOM     65  C   UNL     1       1.212  -0.881  27.422  0.00  0.00    +0.000 C 
ENDBRANCH  62  63
ENDBRANCH  61  62
ENDBRANCH  60  61
ENDBRANCH  58  60
ENDBRANCH  57  58
ENDBRANCH  56  57
ENDBRANCH  55  56
ENDBRANCH  53  55
ENDBRANCH  52  53
ENDBRANCH  51  52
ENDBRANCH  50  51
ENDBRANCH  48  50
ENDBRANCH  46  47
ENDBRANCH  45  46
ENDBRANCH  43  45
ENDBRANCH  42  43
ENDBRANCH  41  42
ENDBRANCH  15  41
TORSDOF 22
ENDMDL
MODEL 3
REMARK VINA RESULT:       0.2      2.935     10.593
REMARK  Name = 
REMARK  33 active torsions:
REMARK  status: ('A' for Active; 'I' for Inactive)
REMARK    1  A    between atoms: C_1  and  C_2
REMARK    2  A    between atoms: C_2  and  C_3
REMARK    3  A    between atoms: C_4  and  C_5
REMARK    4  A    between atoms: C_9  and  C_10
REMARK    5  A    between atoms: C_12  and  C_13
REMARK    6  A    between atoms: C_17  and  C_19
REMARK    7  A    between atoms: C_20  and  C_22
REMARK    8  A    between atoms: C_22  and  C_23
REMARK    9  A    between atoms: C_23  and  C_24
REMARK   10  A    between atoms: C_24  and  O_26
REMARK   11  A    between atoms: O_26  and  C_27
REMARK   12  A    between atoms: C_27  and  C_28
REMARK   13  A    between atoms: C_29  and  C_30
REMARK   14  A    between atoms: C_29  and  C_31
REMARK   15  A    between atoms: C_31  and  C_32
REMARK   16  A    between atoms: C_32  and  C_33
REMARK   17  A    between atoms: C_33  and  C_34
REMARK   18  A    between atoms: C_34  and  C_36
REMARK   19  A    between atoms: C_34  and  C_37
REMARK   20  A    between atoms: C_37  and  C_38
REMARK   21  A    between atoms: C_38  and  C_39
REMARK   22  A    between atoms: C_39  and  C_40
REMARK   23  A    between atoms: C_40  and  C_42
REMARK   24  A    between atoms: C_40  and  C_43
REMARK   25  A    between atoms: C_43  and  C_44
REMARK   26  A    between atoms: C_44  and  C_45
REMARK   27  A    between atoms: C_45  and  C_46
REMARK   28  A    between atoms: C_46  and  C_47
REMARK   29  A    between atoms: C_46  and  C_48
REMARK   30  A    between atoms: C_58  and  C_59
REMARK   31  A    between atoms: C_63  and  C_65
REMARK   32  A    between atoms: C_65  and  O_67
REMARK   33  A    between atoms: O_67  and  C_68
REMARK                            x       y       z     vdW  Elec       q    Type
REMARK                         _______ _______ _______ _____ _____    ______ ____
ROOT
ATOM      1  C   UNL     1       0.917  -6.600  25.741  0.00  0.00    +0.000 C 
ATOM      2  C   UNL     1       2.288  -3.974  26.004  0.00  0.00    +0.000 C 
ATOM      3  N   UNL     1       2.367  -3.828  27.236  0.00  0.00    +1.000 N 
ATOM      4 MG   UNL     1       4.155   0.266  29.985  0.00  0.00    +0.000 Mg
ATOM      5  N   UNL     1       4.708   1.577  28.478  0.00  0.00    +0.000 N 
ATOM      6  C   UNL     1       4.554   3.076  29.471  0.00  0.00    +0.000 A 
ATOM      7  C   UNL     1       4.629   4.832  29.332  0.00  0.00    +0.000 A 
ATOM      8  C   UNL     1       3.537   5.634  29.094  0.00  0.00    +0.000 C 
ATOM      9  C   UNL     1       2.670   4.504  28.590  0.00  0.00    +0.000 C 
ATOM     10  O   UNL     1       3.618   6.952  28.821  0.00  0.00    +0.000 OA
ATOM     11  C   UNL     1       5.200   4.976  28.398  0.00  0.00    +0.000 A 
ATOM     12  C   UNL     1       6.573   7.108  29.522  0.00  0.00    +0.000 C 
ATOM     13  C   UNL     1       3.289   2.984  29.729  0.00  0.00    +0.000 C 
ATOM     14  C   UNL     1       2.969   0.956  29.787  0.00  0.00    +0.000 C 
ATOM     15  C   UNL     1       3.211   0.168  28.276  0.00  0.00    +0.000 C 
ATOM     16  C   UNL     1       4.862  -1.023  28.714  0.00  0.00    +0.000 C 
ATOM     17  C   UNL     1       6.318  -0.390  28.613  0.00  0.00    +0.000 C 
ATOM     18  C   UNL     1       4.036  -1.342  29.955  0.00  0.00    +0.000 C 
ATOM     19  C   UNL     1       4.402  -2.730  30.044  0.00  0.00    +0.000 C 
ATOM     20  C   UNL     1       3.840  -3.541  29.082  0.00  0.00    +0.000 A 
ATOM     21  C   UNL     1       3.999  -4.927  29.015  0.00  0.00    +0.000 A 
ATOM     22  C   UNL     1       5.183  -5.630  29.350  0.00  0.00    +0.000 C 
ATOM     23  C   UNL     1       2.792  -5.546  29.086  0.00  0.00    +0.000 A 
ATOM     24  C   UNL     1       1.781  -4.259  29.278  0.00  0.00    +0.000 A 
ATOM     25  C   UNL     1       0.445  -4.843  28.385  0.00  0.00    +0.000 C 
ATOM     26  C   UNL     1       4.222   2.164  27.365  0.00  0.00    +0.000 A 
ATOM     27  N   UNL     1       2.739  -2.934  28.999  0.00  0.00    +0.000 N 
ATOM     28  N   UNL     1       3.669   0.112  30.472  0.00  0.00    +1.000 N 
ATOM     29  C   UNL     1       1.104  -5.184  27.353  0.00  0.00    +0.000 C 
ATOM     30  C   UNL     1       1.811  -1.739  25.567  0.00  0.00    +0.000 C 
ATOM     31  C   UNL     1       0.992  -6.804  26.765  0.00  0.00    +0.000 C 
ATOM     32  C   UNL     1       2.251  -7.602  26.628  0.00  0.00    +0.000 C 
ENDROOT
BRANCH  23  33
ATOM     33  C   UNL     1       2.529  -7.281  29.209  0.00  0.00    +0.000 C 
ATOM     34  C   UNL     1       1.431  -7.851  29.737  0.00  0.00    +0.000 C 
ENDBRANCH  23  33
BRANCH   1  36
ATOM     35  C   UNL     1       0.859 -10.722  25.176  0.00  0.00    +0.000 C 
ATOM     36  C   UNL     1       0.472  -8.953  25.209  0.00  0.00    +0.000 C 
ENDBRANCH   1  36
BRANCH   9  37
ATOM     37  C   UNL     1       3.247   4.677  26.993  0.00  0.00    +0.000 C 
ATOM     38  O   UNL     1       4.330   4.370  26.383  0.00  0.00    +0.000 OA
BRANCH  37  39
ATOM     39  O   UNL     1       2.385   5.396  26.396  0.00  0.00    +0.000 OA
ATOM     40  C   UNL     1       2.344   5.689  25.118  0.00  0.00    +0.000 C 
ENDBRANCH  37  39
ENDBRANCH   9  37
BRANCH  15  41
ATOM     41  C   UNL     1       3.355   0.312  26.738  0.00  0.00    +0.000 C 
BRANCH  41  42
ATOM     42  C   UNL     1       3.961  -0.388  26.921  0.00  0.00    +0.000 C 
BRANCH  42  43
ATOM     43  C   UNL     1       5.077  -0.781  25.528  0.00  0.00    +0.000 C 
ATOM     44  O   UNL     1       5.428  -1.933  25.342  0.00  0.00    +0.000 OA
BRANCH  43  45
ATOM     45  O   UNL     1       4.997   0.108  24.627  0.00  0.00    +0.000 OA
BRANCH  45  46
ATOM     46  C   UNL     1       5.335   1.253  24.976  0.00  0.00    +0.000 C 
BRANCH  46  47
ATOM     47  C   UNL     1       6.303   1.890  24.031  0.00  0.00    +0.000 C 
ATOM     48  C   UNL     1       5.877   2.799  23.162  0.00  0.00    +0.000 C 
ATOM     49  C   UNL     1       4.432   3.206  23.145  0.00  0.00    +0.000 C 
BRANCH  48  50
ATOM     50  C   UNL     1       6.822   3.452  22.186  0.00  0.00    +0.000 C 
BRANCH  50  51
ATOM     51  C   UNL     1       8.081   2.646  21.971  0.00  0.00    +0.000 C 
BRANCH  51  52
ATOM     52  C   UNL     1       8.206   1.546  23.017  0.00  0.00    +0.000 C 
BRANCH  52  53
ATOM     53  C   UNL     1       9.650   1.129  23.163  0.00  0.00    +0.000 C 
ATOM     54  C   UNL     1      10.563   2.348  23.256  0.00  0.00    +0.000 C 
BRANCH  53  55
ATOM     55  C   UNL     1      10.056   0.262  21.977  0.00  0.00    +0.000 C 
BRANCH  55  56
ATOM     56  C   UNL     1       9.920  -1.203  22.307  0.00  0.00    +0.000 C 
BRANCH  56  57
ATOM     57  C   UNL     1       8.537  -1.706  22.063  0.00  0.00    +0.000 C 
BRANCH  57  58
ATOM     58  C   UNL     1       8.370  -3.063  22.722  0.00  0.00    +0.000 C 
ATOM     59  C   UNL     1       6.944  -3.295  23.162  0.00  0.00    +0.000 C 
BRANCH  58  60
ATOM     60  C   UNL     1       9.206  -3.114  23.905  0.00  0.00    +0.000 C 
BRANCH  60  61
ATOM     61  C   UNL     1       9.046  -4.320  24.801  0.00  0.00    +0.000 C 
BRANCH  61  62
ATOM     62  C   UNL     1       7.785  -5.155  24.611  0.00  0.00    +0.000 C 
BRANCH  62  63
ATOM     63  C   UNL     1       6.793  -4.930  25.716  0.00  0.00    +0.000 C 
ATOM     64  C   UNL     1       7.527  -4.795  27.042  0.00  0.00    +0.000 C 
ATOM     65  C   UNL     1       5.830  -6.107  25.787  0.00  0.00    +0.000 C 
ENDBRANCH  62  63
ENDBRANCH  61  62
ENDBRANCH  60  61
ENDBRANCH  58  60
ENDBRANCH  57  58
ENDBRANCH  56  57
ENDBRANCH  55  56
ENDBRANCH  53  55
ENDBRANCH  52  53
ENDBRANCH  51  52
ENDBRANCH  50  51
ENDBRANCH  48  50
ENDBRANCH  46  47
ENDBRANCH  45  46
ENDBRANCH  43  45
ENDBRANCH  42  43
ENDBRANCH  41  42
ENDBRANCH  15  41
TORSDOF 22
ENDMDL
MODEL 4
REMARK VINA RESULT:       0.6      1.008      2.034
REMARK  Name = 
REMARK  33 active torsions:
REMARK  status: ('A' for Active; 'I' for Inactive)
REMARK    1  A    between atoms: C_1  and  C_2
REMARK    2  A    between atoms: C_2  and  C_3
REMARK    3  A    between atoms: C_4  and  C_5
REMARK    4  A    between atoms: C_9  and  C_10
REMARK    5  A    between atoms: C_12  and  C_13
REMARK    6  A    between atoms: C_17  and  C_19
REMARK    7  A    between atoms: C_20  and  C_22
REMARK    8  A    between atoms: C_22  and  C_23
REMARK    9  A    between atoms: C_23  and  C_24
REMARK   10  A    between atoms: C_24  and  O_26
REMARK   11  A    between atoms: O_26  and  C_27
REMARK   12  A    between atoms: C_27  and  C_28
REMARK   13  A    between atoms: C_29  and  C_30
REMARK   14  A    between atoms: C_29  and  C_31
REMARK   15  A    between atoms: C_31  and  C_32
REMARK   16  A    between atoms: C_32  and  C_33
REMARK   17  A    between atoms: C_33  and  C_34
REMARK   18  A    between atoms: C_34  and  C_36
REMARK   19  A    between atoms: C_34  and  C_37
REMARK   20  A    between atoms: C_37  and  C_38
REMARK   21  A    between atoms: C_38  and  C_39
REMARK   22  A    between atoms: C_39  and  C_40
REMARK   23  A    between atoms: C_40  and  C_42
REMARK   24  A    between atoms: C_40  and  C_43
REMARK   25  A    between atoms: C_43  and  C_44
REMARK   26  A    between atoms: C_44  and  C_45
REMARK   27  A    between atoms: C_45  and  C_46
REMARK   28  A    between atoms: C_46  and  C_47
REMARK   29  A    between atoms: C_46  and  C_48
REMARK   30  A    between atoms: C_58  and  C_59
REMARK   31  A    between atoms: C_63  and  C_65
REMARK   32  A    between atoms: C_65  and  O_67
REMARK   33  A    between atoms: O_67  and  C_68
REMARK                            x       y       z     vdW  Elec       q    Type
REMARK                         _______ _______ _______ _____ _____    ______ ____
ROOT
ATOM      1  C   UNL     1      11.849   4.307  23.627  0.00  0.00    +0.000 C 
ATOM      2  C   UNL     1      10.383   1.720  23.695  0.00  0.00    +0.000 C 
ATOM      3  N   UNL     1       9.224   2.068  23.975  0.00  0.00    +1.000 N 
ATOM      4 MG   UNL     1       5.001  -0.897  24.915  0.00  0.00    +0.000 Mg
ATOM      5  N   UNL     1       5.769  -2.809  24.689  0.00  0.00    +0.000 N 
ATOM      6  C   UNL     1       4.540  -3.626  25.726  0.00  0.00    +0.000 A 
ATOM      7  C   UNL     1       4.156  -5.199  26.425  0.00  0.00    +0.000 A 
ATOM      8  C   UNL     1       4.561  -5.606  27.675  0.00  0.00    +0.000 C 
ATOM      9  C   UNL     1       5.642  -4.558  27.795  0.00  0.00    +0.000 C 
ATOM     10  O   UNL     1       4.413  -6.863  28.140  0.00  0.00    +0.000 OA
ATOM     11  C   UNL     1       4.729  -5.894  25.785  0.00  0.00    +0.000 A 
ATOM     12  C   UNL     1       2.635  -7.713  25.824  0.00  0.00    +0.000 C 
ATOM     13  C   UNL     1       4.814  -3.016  26.834  0.00  0.00    +0.000 C 
ATOM     14  C   UNL     1       5.436  -1.162  26.205  0.00  0.00    +0.000 C 
ATOM     15  C   UNL     1       6.896  -1.188  25.294  0.00  0.00    +0.000 C 
ATOM     16  C   UNL     1       6.210  -0.558  23.431  0.00  0.00    +0.000 C 
ATOM     17  C   UNL     1       5.577  -1.629  22.440  0.00  0.00    +0.000 C 
ATOM     18  C   UNL     1       5.510   0.496  24.282  0.00  0.00    +0.000 C 
ATOM     19  C   UNL     1       5.672   1.587  23.359  0.00  0.00    +0.000 C 
ATOM     20  C   UNL     1       6.956   2.075  23.256  0.00  0.00    +0.000 A 
ATOM     21  C   UNL     1       7.332   3.171  22.476  0.00  0.00    +0.000 A 
ATOM     22  C   UNL     1       6.780   3.502  21.214  0.00  0.00    +0.000 C 
ATOM     23  C   UNL     1       7.894   4.134  23.252  0.00  0.00    +0.000 A 
ATOM     24  C   UNL     1       7.755   3.462  24.750  0.00  0.00    +0.000 A 
ATOM     25  C   UNL     1       9.208   4.048  25.434  0.00  0.00    +0.000 C 
ATOM     26  C   UNL     1       6.778  -3.595  25.119  0.00  0.00    +0.000 A 
ATOM     27  N   UNL     1       7.279   1.899  24.461  0.00  0.00    +0.000 N 
ATOM     28  N   UNL     1       4.795  -0.405  25.375  0.00  0.00    +1.000 N 
ATOM     29  C   UNL     1       9.967   3.695  24.476  0.00  0.00    +0.000 C 
ATOM     30  C   UNL     1      10.342  -0.193  25.019  0.00  0.00    +0.000 C 
ATOM     31  C   UNL     1      10.971   4.870  23.704  0.00  0.00    +0.000 C 
ATOM     32  C   UNL     1      10.833   5.066  22.227  0.00  0.00    +0.000 C 
ENDROOT
BRANCH  23  33
ATOM     33  C   UNL     1       8.356   5.746  22.721  0.00  0.00    +0.000 C 
ATOM     34  C   UNL     1       7.607   6.849  22.891  0.00  0.00    +0.000 C 
ENDBRANCH  23  33
BRANCH   1  36
ATOM     35  C   UNL     1      14.277   7.090  21.711  0.00  0.00    +0.000 C 
ATOM     36  C   UNL     1      13.129   6.239  22.824  0.00  0.00    +0.000 C 
ENDBRANCH   1  36
BRANCH   9  37
ATOM     37  C   UNL     1       6.791  -5.548  27.012  0.00  0.00    +0.000 C 
ATOM     38  O   UNL     1       6.732  -6.527  26.189  0.00  0.00    +0.000 OA
BRANCH  37  39
ATOM     39  O   UNL     1       7.911  -5.246  27.532  0.00  0.00    +0.000 OA
ATOM     40  C   UNL     1       8.982  -4.813  26.911  0.00  0.00    +0.000 C 
ENDBRANCH  37  39
ENDBRANCH   9  37
BRANCH  15  41
ATOM     41  C   UNL     1       8.164  -1.983  24.884  0.00  0.00    +0.000 C 
BRANCH  41  42
ATOM     42  C   UNL     1       8.529  -1.140  25.099  0.00  0.00    +0.000 C 
BRANCH  42  43
ATOM     43  C   UNL     1       8.484  -0.750  26.885  0.00  0.00    +0.000 C 
ATOM     44  O   UNL     1       9.335  -1.211  27.626  0.00  0.00    +0.000 OA
BRANCH  43  45
ATOM     45  O   UNL     1       7.849   0.328  27.091  0.00  0.00    +0.000 OA
BRANCH  45  46
ATOM     46  C   UNL     1       7.854   0.734  28.267  0.00  0.00    +0.000 C 
BRANCH  46  47
ATOM     47  C   UNL     1       6.479   0.907  28.831  0.00  0.00    +0.000 C 
ATOM     48  C   UNL     1       6.290   1.700  29.879  0.00  0.00    +0.000 C 
ATOM     49  C   UNL     1       7.448   2.442  30.481  0.00  0.00    +0.000 C 
BRANCH  48  50
ATOM     50  C   UNL     1       4.921   1.886  30.482  0.00  0.00    +0.000 C 
BRANCH  50  51
ATOM     51  C   UNL     1       3.860   2.150  29.441  0.00  0.00    +0.000 C 
BRANCH  51  52
ATOM     52  C   UNL     1       3.033   0.898  29.179  0.00  0.00    +0.000 C 
BRANCH  52  53
ATOM     53  C   UNL     1       1.700   1.273  28.577  0.00  0.00    +0.000 C 
ATOM     54  C   UNL     1       1.621   0.844  27.114  0.00  0.00    +0.000 C 
BRANCH  53  55
ATOM     55  C   UNL     1       1.489   2.778  28.692  0.00  0.00    +0.000 C 
BRANCH  55  56
ATOM     56  C   UNL     1       1.786   3.466  27.384  0.00  0.00    +0.000 C 
BRANCH  56  57
ATOM     57  C   UNL     1       0.680   4.374  26.965  0.00  0.00    +0.000 C 
BRANCH  57  58
ATOM     58  C   UNL     1       1.249   5.524  26.156  0.00  0.00    +0.000 C 
ATOM     59  C   UNL     1       0.553   5.665  24.823  0.00  0.00    +0.000 C 
BRANCH  58  60
ATOM     60  C   UNL     1       2.650   5.260  25.892  0.00  0.00    +0.000 C 
BRANCH  60  61
ATOM     61  C   UNL     1       3.652   6.188  26.540  0.00  0.00    +0.000 C 
BRANCH  61  62
ATOM     62  C   UNL     1       4.082   5.848  27.963  0.00  0.00    +0.000 C 
BRANCH  62  63
ATOM     63  C   UNL     1       5.098   4.742  27.992  0.00  0.00    +0.000 C 
ATOM     64  C   UNL     1       6.404   5.263  28.575  0.00  0.00    +0.000 C 
ATOM     65  C   UNL     1       5.342   4.235  26.577  0.00  0.00    +0.000 C 
ENDBRANCH  62  63
ENDBRANCH  61  62
ENDBRANCH  60  61
ENDBRANCH  58  60
ENDBRANCH  57  58
ENDBRANCH  56  57
ENDBRANCH  55  56
ENDBRANCH  53  55
ENDBRANCH  52  53
ENDBRANCH  51  52
ENDBRANCH  50  51
ENDBRANCH  48  50
ENDBRANCH  46  47
ENDBRANCH  45  46
ENDBRANCH  43  45
ENDBRANCH  42  43
ENDBRANCH  41  42
ENDBRANCH  15  41
TORSDOF 22
ENDMDL
