MODEL 1
REMARK VINA RESULT:      -5.4      0.000      0.000
REMARK  Name = 
REMARK  7 active torsions:
REMARK  status: ('A' for Active; 'I' for Inactive)
REMARK    1  A    between atoms: C_1  and  C_2
REMARK    2  A    between atoms: C_3  and  C_4
REMARK    3  A    between atoms: C_4  and  C_5
REMARK    4  A    between atoms: C_6  and  C_7
REMARK    5  A    between atoms: C_7  and  C_8
REMARK    6  A    between atoms: C_12  and  C_13
REMARK    7  A    between atoms: C_14  and  O_15
REMARK                            x       y       z     vdW  Elec       q    Type
REMARK                         _______ _______ _______ _____ _____    ______ ____
ROOT
ATOM      1  C   UNL     1       8.776   0.415  22.986  0.00  0.00    +0.097 C 
ATOM      2  C   UNL     1       8.972   0.885  21.533  0.00  0.00    +0.036 C 
ATOM      3  C   UNL     1       7.749  -0.696  23.031  0.00  0.00    +0.121 C 
ATOM      4  C   UNL     1       8.161  -1.929  23.359  0.00  0.00    +0.042 C 
ATOM      5  C   UNL     1       7.355  -3.173  23.475  0.00  0.00    +0.052 C 
ATOM      6  C   UNL     1       9.617  -1.967  23.602  0.00  0.00    +0.220 C 
ATOM      7  O   UNL     1      10.248  -2.981  23.844  0.00  0.00    -0.280 OA
ATOM      8  S   UNL     1      10.342  -0.380  23.496  0.00  0.00    -0.065 S 
ENDROOT
BRANCH   1  10
ATOM      9  C   UNL     1       9.080   2.759  24.143  0.00  0.00    -0.053 C 
ATOM     10  C   UNL     1       8.441   1.596  23.884  0.00  0.00    +0.001 C 
ATOM     11  C   UNL     1       8.441   3.712  25.131  0.00  0.00    +0.043 C 
BRANCH   9  14
ATOM     12  C   UNL     1      12.292   4.668  23.123  0.00  0.00    +0.035 C 
ATOM     13  C   UNL     1      10.936   4.349  23.666  0.00  0.00    -0.030 C 
ATOM     14  C   UNL     1      10.375   3.132  23.592  0.00  0.00    -0.002 C 
ENDBRANCH   9  14
ENDBRANCH   1  10
BRANCH   3  15
ATOM     15  O   UNL     1       6.443  -0.360  22.735  0.00  0.00    -0.509 OA
ATOM     16  H   UNL     1       5.836  -0.931  23.236  0.00  0.00    +0.292 HD
ENDBRANCH   3  15
TORSDOF 3
ENDMDL
MODEL 2
REMARK VINA RESULT:      -5.4      2.439      6.448
REMARK  Name = 
REMARK  7 active torsions:
REMARK  status: ('A' for Active; 'I' for Inactive)
REMARK    1  A    between atoms: C_1  and  C_2
REMARK    2  A    between atoms: C_3  and  C_4
REMARK    3  A    between atoms: C_4  and  C_5
REMARK    4  A    between atoms: C_6  and  C_7
REMARK    5  A    between atoms: C_7  and  C_8
REMARK    6  A    between atoms: C_12  and  C_13
REMARK    7  A    between atoms: C_14  and  O_15
REMARK                            x       y       z     vdW  Elec       q    Type
REMARK                         _______ _______ _______ _____ _____    ______ ____
ROOT
ATOM      1  C   UNL     1       8.437  -2.119  23.197  0.00  0.00    +0.097 C 
ATOM      2  C   UNL     1       7.500  -2.855  22.222  0.00  0.00    +0.036 C 
ATOM      3  C   UNL     1       9.319  -1.157  22.431  0.00  0.00    +0.121 C 
ATOM      4  C   UNL     1       9.135   0.158  22.616  0.00  0.00    +0.042 C 
ATOM      5  C   UNL     1       9.866   1.293  21.992  0.00  0.00    +0.052 C 
ATOM      6  C   UNL     1       8.032   0.423  23.563  0.00  0.00    +0.220 C 
ATOM      7  O   UNL     1       7.619   1.534  23.845  0.00  0.00    -0.280 OA
ATOM      8  S   UNL     1       7.378  -1.051  24.237  0.00  0.00    -0.065 S 
ENDROOT
BRANCH   1  10
ATOM      9  C   UNL     1       8.843  -4.245  24.693  0.00  0.00    -0.053 C 
ATOM     10  C   UNL     1       9.210  -3.118  24.044  0.00  0.00    +0.001 C 
ATOM     11  C   UNL     1       9.907  -4.993  25.470  0.00  0.00    +0.043 C 
BRANCH   9  14
ATOM     12  C   UNL     1       5.490  -5.797  25.855  0.00  0.00    +0.035 C 
ATOM     13  C   UNL     1       6.910  -5.330  25.828  0.00  0.00    -0.030 C 
ATOM     14  C   UNL     1       7.482  -4.757  24.757  0.00  0.00    -0.002 C 
ENDBRANCH   9  14
ENDBRANCH   1  10
BRANCH   3  15
ATOM     15  O   UNL     1      10.268  -1.703  21.591  0.00  0.00    -0.509 OA
ATOM     16  H   UNL     1      10.131  -2.664  21.522  0.00  0.00    +0.292 HD
ENDBRANCH   3  15
TORSDOF 3
ENDMDL
MODEL 3
REMARK VINA RESULT:      -5.3      4.113      5.578
REMARK  Name = 
REMARK  7 active torsions:
REMARK  status: ('A' for Active; 'I' for Inactive)
REMARK    1  A    between atoms: C_1  and  C_2
REMARK    2  A    between atoms: C_3  and  C_4
REMARK    3  A    between atoms: C_4  and  C_5
REMARK    4  A    between atoms: C_6  and  C_7
REMARK    5  A    between atoms: C_7  and  C_8
REMARK    6  A    between atoms: C_12  and  C_13
REMARK    7  A    between atoms: C_14  and  O_15
REMARK                            x       y       z     vdW  Elec       q    Type
REMARK                         _______ _______ _______ _____ _____    ______ ____
ROOT
ATOM      1  C   UNL     1       6.981  -4.323  25.485  0.00  0.00    +0.097 C 
ATOM      2  C   UNL     1       6.839  -5.424  26.551  0.00  0.00    +0.036 C 
ATOM      3  C   UNL     1       7.629  -4.894  24.242  0.00  0.00    +0.121 C 
ATOM      4  C   UNL     1       6.889  -4.990  23.128  0.00  0.00    +0.042 C 
ATOM      5  C   UNL     1       7.291  -5.507  21.793  0.00  0.00    +0.052 C 
ATOM      6  C   UNL     1       5.507  -4.518  23.352  0.00  0.00    +0.220 C 
ATOM      7  O   UNL     1       4.619  -4.570  22.519  0.00  0.00    -0.280 OA
ATOM      8  S   UNL     1       5.286  -3.876  24.963  0.00  0.00    -0.065 S 
ENDROOT
BRANCH   1  10
ATOM      9  C   UNL     1       8.205  -1.993  25.499  0.00  0.00    -0.053 C 
ATOM     10  C   UNL     1       7.713  -3.120  26.061  0.00  0.00    +0.001 C 
ATOM     11  C   UNL     1       8.906  -1.000  26.403  0.00  0.00    +0.043 C 
BRANCH   9  14
ATOM     12  C   UNL     1       9.127  -1.458  21.776  0.00  0.00    +0.035 C 
ATOM     13  C   UNL     1       9.225  -1.728  23.243  0.00  0.00    -0.030 C 
ATOM     14  C   UNL     1       8.172  -1.696  24.075  0.00  0.00    -0.002 C 
ENDBRANCH   9  14
ENDBRANCH   1  10
BRANCH   3  15
ATOM     15  O   UNL     1       8.953  -5.272  24.338  0.00  0.00    -0.509 OA
ATOM     16  H   UNL     1       9.512  -4.485  24.454  0.00  0.00    +0.292 HD
ENDBRANCH   3  15
TORSDOF 3
ENDMDL
MODEL 4
REMARK VINA RESULT:      -5.2      1.931      3.699
REMARK  Name = 
REMARK  7 active torsions:
REMARK  status: ('A' for Active; 'I' for Inactive)
REMARK    1  A    between atoms: C_1  and  C_2
REMARK    2  A    between atoms: C_3  and  C_4
REMARK    3  A    between atoms: C_4  and  C_5
REMARK    4  A    between atoms: C_6  and  C_7
REMARK    5  A    between atoms: C_7  and  C_8
REMARK    6  A    between atoms: C_12  and  C_13
REMARK    7  A    between atoms: C_14  and  O_15
REMARK                            x       y       z     vdW  Elec       q    Type
REMARK                         _______ _______ _______ _____ _____    ______ ____
ROOT
ATOM      1  C   UNL     1      10.049   2.265  23.698  0.00  0.00    +0.097 C 
ATOM      2  C   UNL     1      11.225   3.205  23.376  0.00  0.00    +0.036 C 
ATOM      3  C   UNL     1       9.440   1.748  22.413  0.00  0.00    +0.121 C 
ATOM      4  C   UNL     1       9.573   0.445  22.128  0.00  0.00    +0.042 C 
ATOM      5  C   UNL     1       9.068  -0.300  20.943  0.00  0.00    +0.052 C 
ATOM      6  C   UNL     1      10.350  -0.262  23.167  0.00  0.00    +0.220 C 
ATOM      7  O   UNL     1      10.672  -1.436  23.107  0.00  0.00    -0.280 OA
ATOM      8  S   UNL     1      10.764   0.787  24.503  0.00  0.00    -0.065 S 
ENDROOT
BRANCH   1  10
ATOM      9  C   UNL     1       7.976   2.515  25.300  0.00  0.00    -0.053 C 
ATOM     10  C   UNL     1       9.051   2.960  24.613  0.00  0.00    +0.001 C 
ATOM     11  C   UNL     1       7.190   3.523  26.113  0.00  0.00    +0.043 C 
BRANCH   9  14
ATOM     12  C   UNL     1       6.150  -0.765  24.350  0.00  0.00    +0.035 C 
ATOM     13  C   UNL     1       6.595   0.662  24.374  0.00  0.00    -0.030 C 
ATOM     14  C   UNL     1       7.476   1.149  25.262  0.00  0.00    -0.002 C 
ENDBRANCH   9  14
ENDBRANCH   1  10
BRANCH   3  15
ATOM     15  O   UNL     1       8.776   2.659  21.618  0.00  0.00    -0.509 OA
ATOM     16  H   UNL     1       8.116   3.139  22.149  0.00  0.00    +0.292 HD
ENDBRANCH   3  15
TORSDOF 3
ENDMDL
MODEL 5
REMARK VINA RESULT:      -5.2      2.189      6.098
REMARK  Name = 
REMARK  7 active torsions:
REMARK  status: ('A' for Active; 'I' for Inactive)
REMARK    1  A    between atoms: C_1  and  C_2
REMARK    2  A    between atoms: C_3  and  C_4
REMARK    3  A    between atoms: C_4  and  C_5
REMARK    4  A    between atoms: C_6  and  C_7
REMARK    5  A    between atoms: C_7  and  C_8
REMARK    6  A    between atoms: C_12  and  C_13
REMARK    7  A    between atoms: C_14  and  O_15
REMARK                            x       y       z     vdW  Elec       q    Type
REMARK                         _______ _______ _______ _____ _____    ______ ____
ROOT
ATOM      1  C   UNL     1       9.040  -1.215  24.108  0.00  0.00    +0.097 C 
ATOM      2  C   UNL     1      10.172  -1.731  23.200  0.00  0.00    +0.036 C 
ATOM      3  C   UNL     1       9.367   0.182  24.589  0.00  0.00    +0.121 C 
ATOM      4  C   UNL     1       8.612   1.198  24.146  0.00  0.00    +0.042 C 
ATOM      5  C   UNL     1       8.725   2.645  24.470  0.00  0.00    +0.052 C 
ATOM      6  C   UNL     1       7.570   0.731  23.209  0.00  0.00    +0.220 C 
ATOM      7  O   UNL     1       6.802   1.466  22.612  0.00  0.00    -0.280 OA
ATOM      8  S   UNL     1       7.566  -1.009  23.045  0.00  0.00    -0.065 S 
ENDROOT
BRANCH   1  10
ATOM      9  C   UNL     1       8.531  -3.534  25.244  0.00  0.00    -0.053 C 
ATOM     10  C   UNL     1       8.773  -2.204  25.233  0.00  0.00    +0.001 C 
ATOM     11  C   UNL     1       8.286  -4.196  26.584  0.00  0.00    +0.043 C 
BRANCH   9  14
ATOM     12  C   UNL     1       7.215  -5.639  22.272  0.00  0.00    +0.035 C 
ATOM     13  C   UNL     1       7.276  -4.825  23.525  0.00  0.00    -0.030 C 
ATOM     14  C   UNL     1       8.420  -4.365  24.055  0.00  0.00    -0.002 C 
ENDBRANCH   9  14
ENDBRANCH   1  10
BRANCH   3  15
ATOM     15  O   UNL     1      10.425   0.317  25.464  0.00  0.00    -0.509 OA
ATOM     16  H   UNL     1      10.104   0.660  26.316  0.00  0.00    +0.292 HD
ENDBRANCH   3  15
TORSDOF 3
ENDMDL
MODEL 6
REMARK VINA RESULT:      -5.2      4.576      7.092
REMARK  Name = 
REMARK  7 active torsions:
REMARK  status: ('A' for Active; 'I' for Inactive)
REMARK    1  A    between atoms: C_1  and  C_2
REMARK    2  A    between atoms: C_3  and  C_4
REMARK    3  A    between atoms: C_4  and  C_5
REMARK    4  A    between atoms: C_6  and  C_7
REMARK    5  A    between atoms: C_7  and  C_8
REMARK    6  A    between atoms: C_12  and  C_13
REMARK    7  A    between atoms: C_14  and  O_15
REMARK                            x       y       z     vdW  Elec       q    Type
REMARK                         _______ _______ _______ _____ _____    ______ ____
ROOT
ATOM      1  C   UNL     1       6.555  -4.978  22.750  0.00  0.00    +0.097 C 
ATOM      2  C   UNL     1       6.793  -5.717  21.421  0.00  0.00    +0.036 C 
ATOM      3  C   UNL     1       7.881  -4.580  23.360  0.00  0.00    +0.121 C 
ATOM      4  C   UNL     1       8.185  -3.275  23.424  0.00  0.00    +0.042 C 
ATOM      5  C   UNL     1       9.409  -2.635  23.974  0.00  0.00    +0.052 C 
ATOM      6  C   UNL     1       7.118  -2.441  22.833  0.00  0.00    +0.220 C 
ATOM      7  O   UNL     1       7.183  -1.231  22.703  0.00  0.00    -0.280 OA
ATOM      8  S   UNL     1       5.741  -3.394  22.332  0.00  0.00    -0.065 S 
ENDROOT
BRANCH   1  10
ATOM      9  C   UNL     1       5.376  -5.713  24.986  0.00  0.00    -0.053 C 
ATOM     10  C   UNL     1       5.683  -5.817  23.673  0.00  0.00    +0.001 C 
ATOM     11  C   UNL     1       4.467  -6.767  25.584  0.00  0.00    +0.043 C 
BRANCH   9  14
ATOM     12  C   UNL     1       5.983  -2.473  27.018  0.00  0.00    +0.035 C 
ATOM     13  C   UNL     1       5.423  -3.461  26.046  0.00  0.00    -0.030 C 
ATOM     14  C   UNL     1       5.911  -4.701  25.884  0.00  0.00    -0.002 C 
ENDBRANCH   9  14
ENDBRANCH   1  10
BRANCH   3  15
ATOM     15  O   UNL     1       8.694  -5.595  23.821  0.00  0.00    -0.509 OA
ATOM     16  H   UNL     1       8.863  -6.231  23.104  0.00  0.00    +0.292 HD
ENDBRANCH   3  15
TORSDOF 3
ENDMDL
MODEL 7
REMARK VINA RESULT:      -5.1      3.988      5.289
REMARK  Name = 
REMARK  7 active torsions:
REMARK  status: ('A' for Active; 'I' for Inactive)
REMARK    1  A    between atoms: C_1  and  C_2
REMARK    2  A    between atoms: C_3  and  C_4
REMARK    3  A    between atoms: C_4  and  C_5
REMARK    4  A    between atoms: C_6  and  C_7
REMARK    5  A    between atoms: C_7  and  C_8
REMARK    6  A    between atoms: C_12  and  C_13
REMARK    7  A    between atoms: C_14  and  O_15
REMARK                            x       y       z     vdW  Elec       q    Type
REMARK                         _______ _______ _______ _____ _____    ______ ____
ROOT
ATOM      1  C   UNL     1       7.398  -4.516  23.327  0.00  0.00    +0.097 C 
ATOM      2  C   UNL     1       7.000  -5.605  22.314  0.00  0.00    +0.036 C 
ATOM      3  C   UNL     1       6.206  -4.153  24.184  0.00  0.00    +0.121 C 
ATOM      4  C   UNL     1       6.236  -4.477  25.485  0.00  0.00    +0.042 C 
ATOM      5  C   UNL     1       5.203  -4.229  26.525  0.00  0.00    +0.052 C 
ATOM      6  C   UNL     1       7.484  -5.184  25.838  0.00  0.00    +0.220 C 
ATOM      7  O   UNL     1       7.724  -5.649  26.939  0.00  0.00    -0.280 OA
ATOM      8  S   UNL     1       8.586  -5.286  24.485  0.00  0.00    -0.065 S 
ENDROOT
BRANCH   1  10
ATOM      9  C   UNL     1       8.737  -2.267  23.046  0.00  0.00    -0.053 C 
ATOM     10  C   UNL     1       8.022  -3.328  22.609  0.00  0.00    +0.001 C 
ATOM     11  C   UNL     1       9.190  -1.249  22.021  0.00  0.00    +0.043 C 
BRANCH   9  14
ATOM     12  C   UNL     1       8.611  -1.097  26.736  0.00  0.00    +0.035 C 
ATOM     13  C   UNL     1       8.269  -1.308  25.296  0.00  0.00    -0.030 C 
ATOM     14  C   UNL     1       9.045  -1.995  24.443  0.00  0.00    -0.002 C 
ENDBRANCH   9  14
ENDBRANCH   1  10
BRANCH   3  15
ATOM     15  O   UNL     1       5.160  -3.499  23.565  0.00  0.00    -0.509 OA
ATOM     16  H   UNL     1       4.432  -3.372  24.197  0.00  0.00    +0.292 HD
ENDBRANCH   3  15
TORSDOF 3
ENDMDL
MODEL 8
REMARK VINA RESULT:      -5.1      2.120      3.457
REMARK  Name = 
REMARK  7 active torsions:
REMARK  status: ('A' for Active; 'I' for Inactive)
REMARK    1  A    between atoms: C_1  and  C_2
REMARK    2  A    between atoms: C_3  and  C_4
REMARK    3  A    between atoms: C_4  and  C_5
REMARK    4  A    between atoms: C_6  and  C_7
REMARK    5  A    between atoms: C_7  and  C_8
REMARK    6  A    between atoms: C_12  and  C_13
REMARK    7  A    between atoms: C_14  and  O_15
REMARK                            x       y       z     vdW  Elec       q    Type
REMARK                         _______ _______ _______ _____ _____    ______ ____
ROOT
ATOM      1  C   UNL     1       9.915   2.141  23.521  0.00  0.00    +0.097 C 
ATOM      2  C   UNL     1       8.795   2.557  24.492  0.00  0.00    +0.036 C 
ATOM      3  C   UNL     1      10.424   0.764  23.885  0.00  0.00    +0.121 C 
ATOM      4  C   UNL     1      10.185  -0.246  23.036  0.00  0.00    +0.042 C 
ATOM      5  C   UNL     1      10.579  -1.674  23.162  0.00  0.00    +0.052 C 
ATOM      6  C   UNL     1       9.410   0.205  21.862  0.00  0.00    +0.220 C 
ATOM      7  O   UNL     1       9.003  -0.533  20.981  0.00  0.00    -0.280 OA
ATOM      8  S   UNL     1       9.136   1.931  21.880  0.00  0.00    -0.065 S 
ENDROOT
BRANCH   1  10
ATOM      9  C   UNL     1      10.987   4.537  23.716  0.00  0.00    -0.053 C 
ATOM     10  C   UNL     1      11.002   3.206  23.480  0.00  0.00    +0.001 C 
ATOM     11  C   UNL     1      12.289   5.296  23.558  0.00  0.00    +0.043 C 
BRANCH   9  14
ATOM     12  C   UNL     1       8.041   7.050  23.676  0.00  0.00    +0.035 C 
ATOM     13  C   UNL     1       9.296   6.320  23.318  0.00  0.00    -0.030 C 
ATOM     14  C   UNL     1       9.797   5.307  24.043  0.00  0.00    -0.002 C 
ENDBRANCH   9  14
ENDBRANCH   1  10
BRANCH   3  15
ATOM     15  O   UNL     1      11.113   0.640  25.074  0.00  0.00    -0.509 OA
ATOM     16  H   UNL     1      11.454   1.509  25.348  0.00  0.00    +0.292 HD
ENDBRANCH   3  15
TORSDOF 3
ENDMDL
MODEL 9
REMARK VINA RESULT:      -5.1      2.644      4.114
REMARK  Name = 
REMARK  7 active torsions:
REMARK  status: ('A' for Active; 'I' for Inactive)
REMARK    1  A    between atoms: C_1  and  C_2
REMARK    2  A    between atoms: C_3  and  C_4
REMARK    3  A    between atoms: C_4  and  C_5
REMARK    4  A    between atoms: C_6  and  C_7
REMARK    5  A    between atoms: C_7  and  C_8
REMARK    6  A    between atoms: C_12  and  C_13
REMARK    7  A    between atoms: C_14  and  O_15
REMARK                            x       y       z     vdW  Elec       q    Type
REMARK                         _______ _______ _______ _____ _____    ______ ____
ROOT
ATOM      1  C   UNL     1       7.997  -2.431  24.313  0.00  0.00    +0.097 C 
ATOM      2  C   UNL     1       7.526  -2.507  25.777  0.00  0.00    +0.036 C 
ATOM      3  C   UNL     1       8.180  -3.828  23.760  0.00  0.00    +0.121 C 
ATOM      4  C   UNL     1       7.341  -4.246  22.802  0.00  0.00    +0.042 C 
ATOM      5  C   UNL     1       7.315  -5.558  22.102  0.00  0.00    +0.052 C 
ATOM      6  C   UNL     1       6.336  -3.214  22.473  0.00  0.00    +0.220 C 
ATOM      7  O   UNL     1       5.418  -3.374  21.688  0.00  0.00    -0.280 OA
ATOM      8  S   UNL     1       6.610  -1.728  23.351  0.00  0.00    -0.065 S 
ENDROOT
BRANCH   1  10
ATOM      9  C   UNL     1       9.523  -0.311  24.633  0.00  0.00    -0.053 C 
ATOM     10  C   UNL     1       9.240  -1.560  24.201  0.00  0.00    +0.001 C 
ATOM     11  C   UNL     1      10.893   0.253  24.316  0.00  0.00    +0.043 C 
BRANCH   9  14
ATOM     12  C   UNL     1       7.355   2.696  25.753  0.00  0.00    +0.035 C 
ATOM     13  C   UNL     1       8.369   1.856  25.044  0.00  0.00    -0.030 C 
ATOM     14  C   UNL     1       8.583   0.561  25.321  0.00  0.00    -0.002 C 
ENDBRANCH   9  14
ENDBRANCH   1  10
BRANCH   3  15
ATOM     15  O   UNL     1       9.212  -4.582  24.280  0.00  0.00    -0.509 OA
ATOM     16  H   UNL     1       9.738  -4.962  23.555  0.00  0.00    +0.292 HD
ENDBRANCH   3  15
TORSDOF 3
ENDMDL
