MODEL 1
REMARK VINA RESULT:      -5.0      0.000      0.000
REMARK  Name = 
REMARK  9 active torsions:
REMARK  status: ('A' for Active; 'I' for Inactive)
REMARK    1  A    between atoms: O_1  and  C_2
REMARK    2  A    between atoms: C_2  and  C_3
REMARK    3  A    between atoms: C_6  and  O_8
REMARK    4  A    between atoms: O_8  and  P_9
REMARK    5  A    between atoms: P_9  and  O_10
REMARK    6  A    between atoms: P_9  and  O_11
REMARK    7  A    between atoms: C_13  and  O_15
REMARK    8  A    between atoms: C_16  and  O_18
REMARK    9  A    between atoms: C_19  and  O_21
REMARK                            x       y       z     vdW  Elec       q    Type
REMARK                         _______ _______ _______ _____ _____    ______ ____
ROOT
ATOM      1  C   UNL     1       8.456  -0.304  23.968  0.00  0.00    +0.178 C 
ATOM      2  C   UNL     1       8.141  -1.056  22.649  0.00  0.00    +0.177 C 
ATOM      3  C   UNL     1       9.264  -0.907  21.611  0.00  0.00    +0.179 C 
ATOM      4  C   UNL     1       9.684   0.553  21.464  0.00  0.00    +0.202 C 
ATOM      5  C   UNL     1      10.044   1.103  22.854  0.00  0.00    +0.293 C 
ATOM      6  O   UNL     1       8.919   1.036  23.737  0.00  0.00    -0.340 OA
ENDROOT
BRANCH   2   7
ATOM      7  O   UNL     1       7.874  -2.456  22.829  0.00  0.00    -0.386 OA
ATOM      8  H   UNL     1       8.701  -2.947  22.620  0.00  0.00    +0.210 HD
ENDBRANCH   2   7
BRANCH   3   9
ATOM      9  O   UNL     1      10.387  -1.704  22.019  0.00  0.00    -0.386 OA
ATOM     10  H   UNL     1      11.056  -1.053  22.316  0.00  0.00    +0.210 HD
ENDBRANCH   3   9
BRANCH   4  11
ATOM     11  O   UNL     1       8.610   1.308  20.883  0.00  0.00    -0.384 OA
ATOM     12  H   UNL     1       9.000   2.159  20.596  0.00  0.00    +0.210 HD
ENDBRANCH   4  11
BRANCH   1  13
ATOM     13  C   UNL     1       9.391  -1.029  24.954  0.00  0.00    +0.190 C 
BRANCH  13  14
ATOM     14  O   UNL     1       8.719  -2.101  25.610  0.00  0.00    -0.392 OA
ATOM     15  H   UNL     1       8.856  -2.892  25.053  0.00  0.00    +0.210 HD
ENDBRANCH  13  14
ENDBRANCH   1  13
BRANCH   5  16
ATOM     16  O   UNL     1      10.446   2.462  22.734  0.00  0.00    -0.254 OA
BRANCH  16  17
ATOM     17  P   UNL     1       9.482   3.418  23.806  0.00  0.00    +0.475 P 
ATOM     18  O   UNL     1       8.618   4.273  24.765  0.00  0.00    -0.227 OA
BRANCH  17  19
ATOM     19  O   UNL     1       8.474   3.700  22.549  0.00  0.00    -0.303 OA
ATOM     20  H   UNL     1       7.691   3.136  22.719  0.00  0.00    +0.222 HD
ENDBRANCH  17  19
BRANCH  17  21
ATOM     21  O   UNL     1      10.495   4.648  23.420  0.00  0.00    -0.303 OA
ATOM     22  H   UNL     1      10.585   4.668  22.449  0.00  0.00    +0.222 HD
ENDBRANCH  17  21
ENDBRANCH  16  17
ENDBRANCH   5  16
TORSDOF 9
ENDMDL
MODEL 2
REMARK VINA RESULT:      -4.9      2.844      5.522
REMARK  Name = 
REMARK  9 active torsions:
REMARK  status: ('A' for Active; 'I' for Inactive)
REMARK    1  A    between atoms: O_1  and  C_2
REMARK    2  A    between atoms: C_2  and  C_3
REMARK    3  A    between atoms: C_6  and  O_8
REMARK    4  A    between atoms: O_8  and  P_9
REMARK    5  A    between atoms: P_9  and  O_10
REMARK    6  A    between atoms: P_9  and  O_11
REMARK    7  A    between atoms: C_13  and  O_15
REMARK    8  A    between atoms: C_16  and  O_18
REMARK    9  A    between atoms: C_19  and  O_21
REMARK                            x       y       z     vdW  Elec       q    Type
REMARK                         _______ _______ _______ _____ _____    ______ ____
ROOT
ATOM      1  C   UNL     1       9.516   0.102  24.644  0.00  0.00    +0.178 C 
ATOM      2  C   UNL     1       9.137   0.566  23.214  0.00  0.00    +0.177 C 
ATOM      3  C   UNL     1       8.401  -0.527  22.423  0.00  0.00    +0.179 C 
ATOM      4  C   UNL     1       9.135  -1.862  22.520  0.00  0.00    +0.202 C 
ATOM      5  C   UNL     1       9.343  -2.201  24.005  0.00  0.00    +0.293 C 
ATOM      6  O   UNL     1      10.131  -1.197  24.653  0.00  0.00    -0.340 OA
ENDROOT
BRANCH   2   7
ATOM      7  O   UNL     1       8.340   1.760  23.183  0.00  0.00    -0.386 OA
ATOM      8  H   UNL     1       7.934   1.825  22.289  0.00  0.00    +0.210 HD
ENDBRANCH   2   7
BRANCH   3   9
ATOM      9  O   UNL     1       7.067  -0.660  22.938  0.00  0.00    -0.386 OA
ATOM     10  H   UNL     1       6.949  -1.623  23.072  0.00  0.00    +0.210 HD
ENDBRANCH   3   9
BRANCH   4  11
ATOM     11  O   UNL     1      10.395  -1.771  21.840  0.00  0.00    -0.384 OA
ATOM     12  H   UNL     1      11.073  -2.065  22.482  0.00  0.00    +0.210 HD
ENDBRANCH   4  11
BRANCH   1  13
ATOM     13  C   UNL     1       8.395   0.170  25.697  0.00  0.00    +0.190 C 
BRANCH  13  14
ATOM     14  O   UNL     1       8.121   1.516  26.074  0.00  0.00    -0.392 OA
ATOM     15  H   UNL     1       8.622   1.678  26.897  0.00  0.00    +0.210 HD
ENDBRANCH  13  14
ENDBRANCH   1  13
BRANCH   5  16
ATOM     16  O   UNL     1      10.018  -3.448  24.115  0.00  0.00    -0.254 OA
BRANCH  16  17
ATOM     17  P   UNL     1       9.119  -4.468  25.184  0.00  0.00    +0.475 P 
ATOM     18  O   UNL     1       8.315  -5.382  26.141  0.00  0.00    -0.227 OA
BRANCH  17  19
ATOM     19  O   UNL     1      10.457  -5.400  25.321  0.00  0.00    -0.303 OA
ATOM     20  H   UNL     1      11.198  -4.825  25.038  0.00  0.00    +0.222 HD
ENDBRANCH  17  19
BRANCH  17  21
ATOM     21  O   UNL     1       8.595  -5.220  23.825  0.00  0.00    -0.303 OA
ATOM     22  H   UNL     1       8.304  -6.117  24.071  0.00  0.00    +0.222 HD
ENDBRANCH  17  21
ENDBRANCH  16  17
ENDBRANCH   5  16
TORSDOF 9
ENDMDL
MODEL 3
REMARK VINA RESULT:      -4.9      2.035      4.944
REMARK  Name = 
REMARK  9 active torsions:
REMARK  status: ('A' for Active; 'I' for Inactive)
REMARK    1  A    between atoms: O_1  and  C_2
REMARK    2  A    between atoms: C_2  and  C_3
REMARK    3  A    between atoms: C_6  and  O_8
REMARK    4  A    between atoms: O_8  and  P_9
REMARK    5  A    between atoms: P_9  and  O_10
REMARK    6  A    between atoms: P_9  and  O_11
REMARK    7  A    between atoms: C_13  and  O_15
REMARK    8  A    between atoms: C_16  and  O_18
REMARK    9  A    between atoms: C_19  and  O_21
REMARK                            x       y       z     vdW  Elec       q    Type
REMARK                         _______ _______ _______ _____ _____    ______ ____
ROOT
ATOM      1  C   UNL     1       9.500   0.788  24.076  0.00  0.00    +0.178 C 
ATOM      2  C   UNL     1      10.255   1.226  22.795  0.00  0.00    +0.177 C 
ATOM      3  C   UNL     1       9.568   0.727  21.515  0.00  0.00    +0.179 C 
ATOM      4  C   UNL     1       9.232  -0.758  21.616  0.00  0.00    +0.202 C 
ATOM      5  C   UNL     1       8.409  -0.989  22.894  0.00  0.00    +0.293 C 
ATOM      6  O   UNL     1       9.152  -0.606  24.057  0.00  0.00    -0.340 OA
ENDROOT
BRANCH   2   7
ATOM      7  O   UNL     1      10.437   2.647  22.686  0.00  0.00    -0.386 OA
ATOM      8  H   UNL     1       9.982   3.066  23.451  0.00  0.00    +0.210 HD
ENDBRANCH   2   7
BRANCH   3   9
ATOM      9  O   UNL     1       8.371   1.490  21.297  0.00  0.00    -0.386 OA
ATOM     10  H   UNL     1       8.185   1.389  20.340  0.00  0.00    +0.210 HD
ENDBRANCH   3   9
BRANCH   4  11
ATOM     11  O   UNL     1      10.444  -1.527  21.649  0.00  0.00    -0.384 OA
ATOM     12  H   UNL     1      10.241  -2.374  21.204  0.00  0.00    +0.210 HD
ENDBRANCH   4  11
BRANCH   1  13
ATOM     13  C   UNL     1       8.276   1.638  24.465  0.00  0.00    +0.190 C 
BRANCH  13  14
ATOM     14  O   UNL     1       8.658   2.770  25.240  0.00  0.00    -0.392 OA
ATOM     15  H   UNL     1       9.360   2.464  25.845  0.00  0.00    +0.210 HD
ENDBRANCH  13  14
ENDBRANCH   1  13
BRANCH   5  16
ATOM     16  O   UNL     1       8.079  -2.368  23.001  0.00  0.00    -0.254 OA
BRANCH  16  17
ATOM     17  P   UNL     1       8.472  -2.906  24.597  0.00  0.00    +0.475 P 
ATOM     18  O   UNL     1       8.825  -3.388  26.026  0.00  0.00    -0.227 OA
BRANCH  17  19
ATOM     19  O   UNL     1       9.963  -3.280  24.037  0.00  0.00    -0.303 OA
ATOM     20  H   UNL     1      10.563  -3.144  24.800  0.00  0.00    +0.222 HD
ENDBRANCH  17  19
BRANCH  17  21
ATOM     21  O   UNL     1       7.816  -4.338  24.141  0.00  0.00    -0.303 OA
ATOM     22  H   UNL     1       8.536  -4.992  24.082  0.00  0.00    +0.222 HD
ENDBRANCH  17  21
ENDBRANCH  16  17
ENDBRANCH   5  16
TORSDOF 9
ENDMDL
MODEL 4
REMARK VINA RESULT:      -4.8      2.294      4.763
REMARK  Name = 
REMARK  9 active torsions:
REMARK  status: ('A' for Active; 'I' for Inactive)
REMARK    1  A    between atoms: O_1  and  C_2
REMARK    2  A    between atoms: C_2  and  C_3
REMARK    3  A    between atoms: C_6  and  O_8
REMARK    4  A    between atoms: O_8  and  P_9
REMARK    5  A    between atoms: P_9  and  O_10
REMARK    6  A    between atoms: P_9  and  O_11
REMARK    7  A    between atoms: C_13  and  O_15
REMARK    8  A    between atoms: C_16  and  O_18
REMARK    9  A    between atoms: C_19  and  O_21
REMARK                            x       y       z     vdW  Elec       q    Type
REMARK                         _______ _______ _______ _____ _____    ______ ____
ROOT
ATOM      1  C   UNL     1       7.909   1.883  23.811  0.00  0.00    +0.178 C 
ATOM      2  C   UNL     1       9.138   2.805  23.601  0.00  0.00    +0.177 C 
ATOM      3  C   UNL     1      10.276   2.096  22.850  0.00  0.00    +0.179 C 
ATOM      4  C   UNL     1      10.564   0.726  23.459  0.00  0.00    +0.202 C 
ATOM      5  C   UNL     1       9.254  -0.076  23.505  0.00  0.00    +0.293 C 
ATOM      6  O   UNL     1       8.275   0.588  24.312  0.00  0.00    -0.340 OA
ENDROOT
BRANCH   2   7
ATOM      7  O   UNL     1       8.835   4.028  22.911  0.00  0.00    -0.386 OA
ATOM      8  H   UNL     1       9.667   4.351  22.497  0.00  0.00    +0.210 HD
ENDBRANCH   2   7
BRANCH   3   9
ATOM      9  O   UNL     1       9.909   1.954  21.469  0.00  0.00    -0.386 OA
ATOM     10  H   UNL     1      10.605   1.380  21.087  0.00  0.00    +0.210 HD
ENDBRANCH   3   9
BRANCH   4  11
ATOM     11  O   UNL     1      11.105   0.888  24.778  0.00  0.00    -0.384 OA
ATOM     12  H   UNL     1      12.066   1.034  24.663  0.00  0.00    +0.210 HD
ENDBRANCH   4  11
BRANCH   1  13
ATOM     13  C   UNL     1       6.956   1.741  22.609  0.00  0.00    +0.190 C 
BRANCH  13  14
ATOM     14  O   UNL     1       6.180   0.550  22.703  0.00  0.00    -0.392 OA
ATOM     15  H   UNL     1       6.768  -0.182  22.434  0.00  0.00    +0.210 HD
ENDBRANCH  13  14
ENDBRANCH   1  13
BRANCH   5  16
ATOM     16  O   UNL     1       9.506  -1.361  24.062  0.00  0.00    -0.254 OA
BRANCH  16  17
ATOM     17  P   UNL     1       8.537  -2.523  23.224  0.00  0.00    +0.475 P 
ATOM     18  O   UNL     1       7.670  -3.563  22.472  0.00  0.00    -0.227 OA
BRANCH  17  19
ATOM     19  O   UNL     1       8.371  -1.427  22.021  0.00  0.00    -0.303 OA
ATOM     20  H   UNL     1       7.943  -0.652  22.440  0.00  0.00    +0.222 HD
ENDBRANCH  17  19
BRANCH  17  21
ATOM     21  O   UNL     1       7.285  -1.925  24.097  0.00  0.00    -0.303 OA
ATOM     22  H   UNL     1       7.309  -2.342  24.978  0.00  0.00    +0.222 HD
ENDBRANCH  17  21
ENDBRANCH  16  17
ENDBRANCH   5  16
TORSDOF 9
ENDMDL
MODEL 5
REMARK VINA RESULT:      -4.8      1.554      2.304
REMARK  Name = 
REMARK  9 active torsions:
REMARK  status: ('A' for Active; 'I' for Inactive)
REMARK    1  A    between atoms: O_1  and  C_2
REMARK    2  A    between atoms: C_2  and  C_3
REMARK    3  A    between atoms: C_6  and  O_8
REMARK    4  A    between atoms: O_8  and  P_9
REMARK    5  A    between atoms: P_9  and  O_10
REMARK    6  A    between atoms: P_9  and  O_11
REMARK    7  A    between atoms: C_13  and  O_15
REMARK    8  A    between atoms: C_16  and  O_18
REMARK    9  A    between atoms: C_19  and  O_21
REMARK                            x       y       z     vdW  Elec       q    Type
REMARK                         _______ _______ _______ _____ _____    ______ ____
ROOT
ATOM      1  C   UNL     1       7.236  -1.003  23.002  0.00  0.00    +0.178 C 
ATOM      2  C   UNL     1       7.786  -2.437  22.793  0.00  0.00    +0.177 C 
ATOM      3  C   UNL     1       9.180  -2.622  23.414  0.00  0.00    +0.179 C 
ATOM      4  C   UNL     1      10.114  -1.483  23.013  0.00  0.00    +0.202 C 
ATOM      5  C   UNL     1       9.443  -0.148  23.375  0.00  0.00    +0.293 C 
ATOM      6  O   UNL     1       8.204   0.008  22.676  0.00  0.00    -0.340 OA
ENDROOT
BRANCH   2   7
ATOM      7  O   UNL     1       6.926  -3.469  23.301  0.00  0.00    -0.386 OA
ATOM      8  H   UNL     1       6.792  -3.301  24.261  0.00  0.00    +0.210 HD
ENDBRANCH   2   7
BRANCH   3   9
ATOM      9  O   UNL     1       9.053  -2.675  24.843  0.00  0.00    -0.386 OA
ATOM     10  H   UNL     1       9.178  -3.621  25.066  0.00  0.00    +0.210 HD
ENDBRANCH   3   9
BRANCH   4  11
ATOM     11  O   UNL     1      10.380  -1.550  21.604  0.00  0.00    -0.384 OA
ATOM     12  H   UNL     1      10.125  -2.452  21.321  0.00  0.00    +0.210 HD
ENDBRANCH   4  11
BRANCH   1  13
ATOM     13  C   UNL     1       6.604  -0.714  24.376  0.00  0.00    +0.190 C 
BRANCH  13  14
ATOM     14  O   UNL     1       5.272  -1.214  24.449  0.00  0.00    -0.392 OA
ATOM     15  H   UNL     1       4.780  -0.792  23.718  0.00  0.00    +0.210 HD
ENDBRANCH  13  14
ENDBRANCH   1  13
BRANCH   5  16
ATOM     16  O   UNL     1      10.305   0.926  23.016  0.00  0.00    -0.254 OA
BRANCH  16  17
ATOM     17  P   UNL     1       9.371   2.380  22.949  0.00  0.00    +0.475 P 
ATOM     18  O   UNL     1       8.535   3.683  22.888  0.00  0.00    -0.227 OA
BRANCH  17  19
ATOM     19  O   UNL     1       9.259   2.161  21.331  0.00  0.00    -0.303 OA
ATOM     20  H   UNL     1       9.539   1.235  21.180  0.00  0.00    +0.222 HD
ENDBRANCH  17  19
BRANCH  17  21
ATOM     21  O   UNL     1      10.814   3.154  22.860  0.00  0.00    -0.303 OA
ATOM     22  H   UNL     1      11.462   2.639  23.374  0.00  0.00    +0.222 HD
ENDBRANCH  17  21
ENDBRANCH  16  17
ENDBRANCH   5  16
TORSDOF 9
ENDMDL
MODEL 6
REMARK VINA RESULT:      -4.8      2.289      4.734
REMARK  Name = 
REMARK  9 active torsions:
REMARK  status: ('A' for Active; 'I' for Inactive)
REMARK    1  A    between atoms: O_1  and  C_2
REMARK    2  A    between atoms: C_2  and  C_3
REMARK    3  A    between atoms: C_6  and  O_8
REMARK    4  A    between atoms: O_8  and  P_9
REMARK    5  A    between atoms: P_9  and  O_10
REMARK    6  A    between atoms: P_9  and  O_11
REMARK    7  A    between atoms: C_13  and  O_15
REMARK    8  A    between atoms: C_16  and  O_18
REMARK    9  A    between atoms: C_19  and  O_21
REMARK                            x       y       z     vdW  Elec       q    Type
REMARK                         _______ _______ _______ _____ _____    ______ ____
ROOT
ATOM      1  C   UNL     1       9.234   0.191  24.260  0.00  0.00    +0.178 C 
ATOM      2  C   UNL     1      10.295   0.782  23.296  0.00  0.00    +0.177 C 
ATOM      3  C   UNL     1       9.855   0.703  21.826  0.00  0.00    +0.179 C 
ATOM      4  C   UNL     1       9.345  -0.694  21.482  0.00  0.00    +0.202 C 
ATOM      5  C   UNL     1       8.242  -1.075  22.483  0.00  0.00    +0.293 C 
ATOM      6  O   UNL     1       8.750  -1.089  23.822  0.00  0.00    -0.340 OA
ENDROOT
BRANCH   2   7
ATOM      7  O   UNL     1      10.650   2.143  23.588  0.00  0.00    -0.386 OA
ATOM      8  H   UNL     1      11.585   2.150  23.893  0.00  0.00    +0.210 HD
ENDBRANCH   2   7
BRANCH   3   9
ATOM      9  O   UNL     1       8.825   1.675  21.592  0.00  0.00    -0.386 OA
ATOM     10  H   UNL     1       8.142   1.192  21.082  0.00  0.00    +0.210 HD
ENDBRANCH   3   9
BRANCH   4  11
ATOM     11  O   UNL     1      10.429  -1.633  21.542  0.00  0.00    -0.384 OA
ATOM     12  H   UNL     1      10.897  -1.454  22.383  0.00  0.00    +0.210 HD
ENDBRANCH   4  11
BRANCH   1  13
ATOM     13  C   UNL     1       8.055   1.115  24.618  0.00  0.00    +0.190 C 
BRANCH  13  14
ATOM     14  O   UNL     1       8.459   2.144  25.515  0.00  0.00    -0.392 OA
ATOM     15  H   UNL     1       7.769   2.834  25.469  0.00  0.00    +0.210 HD
ENDBRANCH  13  14
ENDBRANCH   1  13
BRANCH   5  16
ATOM     16  O   UNL     1       7.748  -2.372  22.172  0.00  0.00    -0.254 OA
BRANCH  16  17
ATOM     17  P   UNL     1       6.323  -2.658  23.110  0.00  0.00    +0.475 P 
ATOM     18  O   UNL     1       5.047  -2.913  23.949  0.00  0.00    -0.227 OA
BRANCH  17  19
ATOM     19  O   UNL     1       5.571  -3.088  21.723  0.00  0.00    -0.303 OA
ATOM     20  H   UNL     1       4.860  -2.424  21.602  0.00  0.00    +0.222 HD
ENDBRANCH  17  19
BRANCH  17  21
ATOM     21  O   UNL     1       6.024  -1.058  22.912  0.00  0.00    -0.303 OA
ATOM     22  H   UNL     1       5.636  -0.933  22.026  0.00  0.00    +0.222 HD
ENDBRANCH  17  21
ENDBRANCH  16  17
ENDBRANCH   5  16
TORSDOF 9
ENDMDL
MODEL 7
REMARK VINA RESULT:      -4.7      3.409      5.406
REMARK  Name = 
REMARK  9 active torsions:
REMARK  status: ('A' for Active; 'I' for Inactive)
REMARK    1  A    between atoms: O_1  and  C_2
REMARK    2  A    between atoms: C_2  and  C_3
REMARK    3  A    between atoms: C_6  and  O_8
REMARK    4  A    between atoms: O_8  and  P_9
REMARK    5  A    between atoms: P_9  and  O_10
REMARK    6  A    between atoms: P_9  and  O_11
REMARK    7  A    between atoms: C_13  and  O_15
REMARK    8  A    between atoms: C_16  and  O_18
REMARK    9  A    between atoms: C_19  and  O_21
REMARK                            x       y       z     vdW  Elec       q    Type
REMARK                         _______ _______ _______ _____ _____    ______ ____
ROOT
ATOM      1  C   UNL     1       6.848  -4.316  23.863  0.00  0.00    +0.178 C 
ATOM      2  C   UNL     1       6.989  -5.236  25.103  0.00  0.00    +0.177 C 
ATOM      3  C   UNL     1       8.015  -4.699  26.113  0.00  0.00    +0.179 C 
ATOM      4  C   UNL     1       9.317  -4.311  25.417  0.00  0.00    +0.202 C 
ATOM      5  C   UNL     1       8.992  -3.330  24.279  0.00  0.00    +0.293 C 
ATOM      6  O   UNL     1       8.121  -3.934  23.317  0.00  0.00    -0.340 OA
ENDROOT
BRANCH   2   7
ATOM      7  O   UNL     1       5.753  -5.469  25.795  0.00  0.00    -0.386 OA
ATOM      8  H   UNL     1       5.943  -5.453  26.761  0.00  0.00    +0.210 HD
ENDBRANCH   2   7
BRANCH   3   9
ATOM      9  O   UNL     1       7.458  -3.560  26.786  0.00  0.00    -0.386 OA
ATOM     10  H   UNL     1       8.236  -3.055  27.102  0.00  0.00    +0.210 HD
ENDBRANCH   3   9
BRANCH   4  11
ATOM     11  O   UNL     1       9.960  -5.488  24.904  0.00  0.00    -0.384 OA
ATOM     12  H   UNL     1      10.789  -5.183  24.482  0.00  0.00    +0.210 HD
ENDBRANCH   4  11
BRANCH   1  13
ATOM     13  C   UNL     1       5.949  -3.077  24.037  0.00  0.00    +0.190 C 
BRANCH  13  14
ATOM     14  O   UNL     1       6.177  -2.123  23.005  0.00  0.00    -0.392 OA
ATOM     15  H   UNL     1       5.518  -1.414  23.136  0.00  0.00    +0.210 HD
ENDBRANCH  13  14
ENDBRANCH   1  13
BRANCH   5  16
ATOM     16  O   UNL     1      10.197  -2.951  23.624  0.00  0.00    -0.254 OA
BRANCH  16  17
ATOM     17  P   UNL     1      10.061  -1.296  23.139  0.00  0.00    +0.475 P 
ATOM     18  O   UNL     1       9.939   0.185  22.705  0.00  0.00    -0.227 OA
BRANCH  17  19
ATOM     19  O   UNL     1       8.805  -1.158  24.178  0.00  0.00    -0.303 OA
ATOM     20  H   UNL     1       8.521  -2.079  24.357  0.00  0.00    +0.222 HD
ENDBRANCH  17  19
BRANCH  17  21
ATOM     21  O   UNL     1       9.133  -1.863  21.912  0.00  0.00    -0.303 OA
ATOM     22  H   UNL     1       8.972  -1.126  21.294  0.00  0.00    +0.222 HD
ENDBRANCH  17  21
ENDBRANCH  16  17
ENDBRANCH   5  16
TORSDOF 9
ENDMDL
MODEL 8
REMARK VINA RESULT:      -4.5      2.364      4.328
REMARK  Name = 
REMARK  9 active torsions:
REMARK  status: ('A' for Active; 'I' for Inactive)
REMARK    1  A    between atoms: O_1  and  C_2
REMARK    2  A    between atoms: C_2  and  C_3
REMARK    3  A    between atoms: C_6  and  O_8
REMARK    4  A    between atoms: O_8  and  P_9
REMARK    5  A    between atoms: P_9  and  O_10
REMARK    6  A    between atoms: P_9  and  O_11
REMARK    7  A    between atoms: C_13  and  O_15
REMARK    8  A    between atoms: C_16  and  O_18
REMARK    9  A    between atoms: C_19  and  O_21
REMARK                            x       y       z     vdW  Elec       q    Type
REMARK                         _______ _______ _______ _____ _____    ______ ____
ROOT
ATOM      1  C   UNL     1       8.699   2.525  24.645  0.00  0.00    +0.178 C 
ATOM      2  C   UNL     1       8.218   3.375  23.440  0.00  0.00    +0.177 C 
ATOM      3  C   UNL     1       8.010   2.526  22.175  0.00  0.00    +0.179 C 
ATOM      4  C   UNL     1       9.213   1.623  21.918  0.00  0.00    +0.202 C 
ATOM      5  C   UNL     1       9.486   0.796  23.185  0.00  0.00    +0.293 C 
ATOM      6  O   UNL     1       9.782   1.647  24.297  0.00  0.00    -0.340 OA
ENDROOT
BRANCH   2   7
ATOM      7  O   UNL     1       7.011   4.110  23.693  0.00  0.00    -0.386 OA
ATOM      8  H   UNL     1       6.304   3.731  23.124  0.00  0.00    +0.210 HD
ENDBRANCH   2   7
BRANCH   3   9
ATOM      9  O   UNL     1       6.823   1.733  22.333  0.00  0.00    -0.386 OA
ATOM     10  H   UNL     1       7.152   0.846  22.589  0.00  0.00    +0.210 HD
ENDBRANCH   3   9
BRANCH   4  11
ATOM     11  O   UNL     1      10.355   2.424  21.581  0.00  0.00    -0.384 OA
ATOM     12  H   UNL     1      10.003   3.251  21.192  0.00  0.00    +0.210 HD
ENDBRANCH   4  11
BRANCH   1  13
ATOM     13  C   UNL     1       7.607   1.752  25.407  0.00  0.00    +0.190 C 
BRANCH  13  14
ATOM     14  O   UNL     1       8.176   0.795  26.295  0.00  0.00    -0.392 OA
ATOM     15  H   UNL     1       8.129   1.187  27.188  0.00  0.00    +0.210 HD
ENDBRANCH  13  14
ENDBRANCH   1  13
BRANCH   5  16
ATOM     16  O   UNL     1      10.600  -0.060  22.959  0.00  0.00    -0.254 OA
BRANCH  16  17
ATOM     17  P   UNL     1      10.137  -1.680  23.349  0.00  0.00    +0.475 P 
ATOM     18  O   UNL     1       9.722  -3.131  23.697  0.00  0.00    -0.227 OA
BRANCH  17  19
ATOM     19  O   UNL     1       9.765  -1.888  21.769  0.00  0.00    -0.303 OA
ATOM     20  H   UNL     1       8.815  -2.127  21.761  0.00  0.00    +0.222 HD
ENDBRANCH  17  19
BRANCH  17  21
ATOM     21  O   UNL     1       8.677  -1.038  23.727  0.00  0.00    -0.303 OA
ATOM     22  H   UNL     1       8.687  -0.806  24.674  0.00  0.00    +0.222 HD
ENDBRANCH  17  21
ENDBRANCH  16  17
ENDBRANCH   5  16
TORSDOF 9
ENDMDL
MODEL 9
REMARK VINA RESULT:      -4.5      5.695      8.358
REMARK  Name = 
REMARK  9 active torsions:
REMARK  status: ('A' for Active; 'I' for Inactive)
REMARK    1  A    between atoms: O_1  and  C_2
REMARK    2  A    between atoms: C_2  and  C_3
REMARK    3  A    between atoms: C_6  and  O_8
REMARK    4  A    between atoms: O_8  and  P_9
REMARK    5  A    between atoms: P_9  and  O_10
REMARK    6  A    between atoms: P_9  and  O_11
REMARK    7  A    between atoms: C_13  and  O_15
REMARK    8  A    between atoms: C_16  and  O_18
REMARK    9  A    between atoms: C_19  and  O_21
REMARK                            x       y       z     vdW  Elec       q    Type
REMARK                         _______ _______ _______ _____ _____    ______ ____
ROOT
ATOM      1  C   UNL     1       7.247  -5.203  23.804  0.00  0.00    +0.178 C 
ATOM      2  C   UNL     1       6.598  -5.925  22.596  0.00  0.00    +0.177 C 
ATOM      3  C   UNL     1       5.077  -5.710  22.537  0.00  0.00    +0.179 C 
ATOM      4  C   UNL     1       4.434  -5.973  23.896  0.00  0.00    +0.202 C 
ATOM      5  C   UNL     1       5.144  -5.109  24.951  0.00  0.00    +0.293 C 
ATOM      6  O   UNL     1       6.535  -5.439  25.030  0.00  0.00    -0.340 OA
ENDROOT
BRANCH   2   7
ATOM      7  O   UNL     1       7.156  -5.549  21.327  0.00  0.00    -0.386 OA
ATOM      8  H   UNL     1       8.108  -5.344  21.468  0.00  0.00    +0.210 HD
ENDBRANCH   2   7
BRANCH   3   9
ATOM      9  O   UNL     1       4.810  -4.363  22.117  0.00  0.00    -0.386 OA
ATOM     10  H   UNL     1       5.157  -4.317  21.202  0.00  0.00    +0.210 HD
ENDBRANCH   3   9
BRANCH   4  11
ATOM     11  O   UNL     1       4.547  -7.366  24.223  0.00  0.00    -0.384 OA
ATOM     12  H   UNL     1       4.231  -7.455  25.145  0.00  0.00    +0.210 HD
ENDBRANCH   4  11
BRANCH   1  13
ATOM     13  C   UNL     1       7.520  -3.697  23.627  0.00  0.00    +0.190 C 
BRANCH  13  14
ATOM     14  O   UNL     1       7.711  -3.364  22.256  0.00  0.00    -0.392 OA
ATOM     15  H   UNL     1       8.654  -3.127  22.160  0.00  0.00    +0.210 HD
ENDBRANCH  13  14
ENDBRANCH   1  13
BRANCH   5  16
ATOM     16  O   UNL     1       4.551  -5.334  26.224  0.00  0.00    -0.254 OA
BRANCH  16  17
ATOM     17  P   UNL     1       5.801  -5.740  27.349  0.00  0.00    +0.475 P 
ATOM     18  O   UNL     1       6.920  -6.104  28.355  0.00  0.00    -0.227 OA
BRANCH  17  19
ATOM     19  O   UNL     1       5.272  -7.287  27.285  0.00  0.00    -0.303 OA
ATOM     20  H   UNL     1       6.052  -7.832  27.515  0.00  0.00    +0.222 HD
ENDBRANCH  17  19
BRANCH  17  21
ATOM     21  O   UNL     1       4.729  -5.299  28.508  0.00  0.00    -0.303 OA
ATOM     22  H   UNL     1       3.995  -4.827  28.073  0.00  0.00    +0.222 HD
ENDBRANCH  17  21
ENDBRANCH  16  17
ENDBRANCH   5  16
TORSDOF 9
ENDMDL
