MODEL 1
REMARK VINA RESULT:      -6.7      0.000      0.000
REMARK  Name = 
REMARK  8 active torsions:
REMARK  status: ('A' for Active; 'I' for Inactive)
REMARK    1  A    between atoms: C_1  and  N_2
REMARK    2  A    between atoms: N_2  and  C_3
REMARK    3  A    between atoms: N_2  and  C_20
REMARK    4  A    between atoms: C_3  and  C_4
REMARK    5  A    between atoms: C_4  and  O_5
REMARK    6  A    between atoms: O_5  and  C_6
REMARK    7  A    between atoms: C_9  and  C_10
REMARK    8  A    between atoms: C_10  and  C_11
REMARK                            x       y       z     vdW  Elec       q    Type
REMARK                         _______ _______ _______ _____ _____    ______ ____
ROOT
ATOM      1  C   UNL     1       8.338  -3.963  26.369  0.00  0.00    +0.121 A 
ATOM      2  C   UNL     1       9.272  -4.475  25.470  0.00  0.00    +0.046 A 
ATOM      3  C   UNL     1       9.814  -3.665  24.462  0.00  0.00    +0.007 A 
ATOM      4  C   UNL     1       9.420  -2.325  24.339  0.00  0.00    -0.046 A 
ATOM      5  C   UNL     1       8.514  -1.807  25.270  0.00  0.00    +0.007 A 
ATOM      6  C   UNL     1       7.984  -2.613  26.281  0.00  0.00    +0.046 A 
ENDROOT
BRANCH   1   7
ATOM      7  O   UNL     1       7.828  -4.852  27.282  0.00  0.00    -0.490 OA
BRANCH   7   8
ATOM      8  C   UNL     1       6.396  -4.925  27.334  0.00  0.00    +0.248 C 
BRANCH   8   9
ATOM      9  C   UNL     1       5.830  -5.810  26.215  0.00  0.00    +0.147 C 
BRANCH   9  11
ATOM     10  C   UNL     1       4.077  -4.079  26.017  0.00  0.00    +0.131 C 
ATOM     11  N   UNL     1       4.909  -5.067  25.329  0.00  0.00    -0.315 N 
BRANCH  11  12
ATOM     12  C   UNL     1       5.530  -4.543  24.177  0.00  0.00    +0.121 A 
ATOM     13  N   UNL     1       6.397  -5.301  23.468  0.00  0.00    -0.240 NA
ATOM     14  C   UNL     1       7.000  -4.750  22.389  0.00  0.00    +0.113 A 
ATOM     15  C   UNL     1       6.792  -3.452  21.964  0.00  0.00    +0.020 A 
ATOM     16  C   UNL     1       5.907  -2.673  22.689  0.00  0.00    +0.005 A 
ATOM     17  C   UNL     1       5.271  -3.224  23.802  0.00  0.00    +0.043 A 
ENDBRANCH  11  12
ENDBRANCH   9  11
ENDBRANCH   8   9
ENDBRANCH   7   8
ENDBRANCH   1   7
BRANCH   4  18
ATOM     18  C   UNL     1       9.896  -1.474  23.187  0.00  0.00    +0.059 C 
BRANCH  18  19
ATOM     19  C   UNL     1       9.585   0.020  23.224  0.00  0.00    +0.146 C 
ATOM     20  C   UNL     1       9.564   0.694  21.870  0.00  0.00    +0.234 C 
ATOM     21  O   UNL     1       9.090   0.216  20.848  0.00  0.00    -0.274 OA
ATOM     22  N   UNL     1      10.044   1.970  21.950  0.00  0.00    -0.246 N 
ATOM     23  H   UNL     1       9.988   2.593  21.160  0.00  0.00    +0.158 HD
ATOM     24  C   UNL     1      10.558   2.400  23.127  0.00  0.00    +0.279 C 
ATOM     25  O   UNL     1      10.896   3.541  23.383  0.00  0.00    -0.263 OA
ATOM     26  S   UNL     1      10.655   1.072  24.258  0.00  0.00    -0.054 S 
ENDBRANCH  18  19
ENDBRANCH   4  18
TORSDOF 7
ENDMDL
MODEL 2
REMARK VINA RESULT:      -6.7      2.769      6.878
REMARK  Name = 
REMARK  8 active torsions:
REMARK  status: ('A' for Active; 'I' for Inactive)
REMARK    1  A    between atoms: C_1  and  N_2
REMARK    2  A    between atoms: N_2  and  C_3
REMARK    3  A    between atoms: N_2  and  C_20
REMARK    4  A    between atoms: C_3  and  C_4
REMARK    5  A    between atoms: C_4  and  O_5
REMARK    6  A    between atoms: O_5  and  C_6
REMARK    7  A    between atoms: C_9  and  C_10
REMARK    8  A    between atoms: C_10  and  C_11
REMARK                            x       y       z     vdW  Elec       q    Type
REMARK                         _______ _______ _______ _____ _____    ______ ____
ROOT
ATOM      1  C   UNL     1      10.035   0.615  22.505  0.00  0.00    +0.121 A 
ATOM      2  C   UNL     1      10.405   0.023  23.711  0.00  0.00    +0.046 A 
ATOM      3  C   UNL     1       9.909  -1.239  24.070  0.00  0.00    +0.007 A 
ATOM      4  C   UNL     1       9.029  -1.924  23.221  0.00  0.00    -0.046 A 
ATOM      5  C   UNL     1       8.695  -1.342  21.993  0.00  0.00    +0.007 A 
ATOM      6  C   UNL     1       9.199  -0.090  21.633  0.00  0.00    +0.046 A 
ENDROOT
BRANCH   1   7
ATOM      7  O   UNL     1      10.531   1.874  22.274  0.00  0.00    -0.490 OA
BRANCH   7   8
ATOM      8  C   UNL     1      10.530   2.752  23.409  0.00  0.00    +0.248 C 
BRANCH   8   9
ATOM      9  C   UNL     1       9.166   3.427  23.606  0.00  0.00    +0.147 C 
BRANCH   9  11
ATOM     10  C   UNL     1       7.984   4.335  25.578  0.00  0.00    +0.131 C 
ATOM     11  N   UNL     1       8.607   3.169  24.950  0.00  0.00    -0.315 N 
BRANCH  11  12
ATOM     12  C   UNL     1       7.792   2.021  25.015  0.00  0.00    +0.121 A 
ATOM     13  N   UNL     1       7.875   1.188  26.077  0.00  0.00    -0.240 NA
ATOM     14  C   UNL     1       7.103   0.077  26.085  0.00  0.00    +0.113 A 
ATOM     15  C   UNL     1       6.232  -0.269  25.070  0.00  0.00    +0.020 A 
ATOM     16  C   UNL     1       6.145   0.581  23.981  0.00  0.00    +0.005 A 
ATOM     17  C   UNL     1       6.930   1.734  23.955  0.00  0.00    +0.043 A 
ENDBRANCH  11  12
ENDBRANCH   9  11
ENDBRANCH   8   9
ENDBRANCH   7   8
ENDBRANCH   1   7
BRANCH   4  18
ATOM     18  C   UNL     1       8.388  -3.223  23.645  0.00  0.00    +0.059 C 
BRANCH  18  19
ATOM     19  C   UNL     1       8.475  -3.617  25.117  0.00  0.00    +0.146 C 
ATOM     20  C   UNL     1       9.408  -4.772  25.407  0.00  0.00    +0.234 C 
ATOM     21  O   UNL     1      10.500  -4.949  24.883  0.00  0.00    -0.274 OA
ATOM     22  N   UNL     1       8.929  -5.548  26.423  0.00  0.00    -0.246 N 
ATOM     23  H   UNL     1       9.488  -6.289  26.815  0.00  0.00    +0.158 HD
ATOM     24  C   UNL     1       7.701  -5.275  26.926  0.00  0.00    +0.279 C 
ATOM     25  O   UNL     1       7.204  -5.790  27.911  0.00  0.00    -0.263 OA
ATOM     26  S   UNL     1       6.919  -4.045  25.963  0.00  0.00    -0.054 S 
ENDBRANCH  18  19
ENDBRANCH   4  18
TORSDOF 7
ENDMDL
MODEL 3
REMARK VINA RESULT:      -6.5      1.845      2.469
REMARK  Name = 
REMARK  8 active torsions:
REMARK  status: ('A' for Active; 'I' for Inactive)
REMARK    1  A    between atoms: C_1  and  N_2
REMARK    2  A    between atoms: N_2  and  C_3
REMARK    3  A    between atoms: N_2  and  C_20
REMARK    4  A    between atoms: C_3  and  C_4
REMARK    5  A    between atoms: C_4  and  O_5
REMARK    6  A    between atoms: O_5  and  C_6
REMARK    7  A    between atoms: C_9  and  C_10
REMARK    8  A    between atoms: C_10  and  C_11
REMARK                            x       y       z     vdW  Elec       q    Type
REMARK                         _______ _______ _______ _____ _____    ______ ____
ROOT
ATOM      1  C   UNL     1       6.422  -5.188  26.177  0.00  0.00    +0.121 A 
ATOM      2  C   UNL     1       7.807  -5.305  26.068  0.00  0.00    +0.046 A 
ATOM      3  C   UNL     1       8.612  -4.167  25.916  0.00  0.00    +0.007 A 
ATOM      4  C   UNL     1       8.034  -2.891  25.866  0.00  0.00    -0.046 A 
ATOM      5  C   UNL     1       6.648  -2.777  26.017  0.00  0.00    +0.007 A 
ATOM      6  C   UNL     1       5.850  -3.912  26.179  0.00  0.00    +0.046 A 
ENDROOT
BRANCH   1   7
ATOM      7  O   UNL     1       5.722  -6.365  26.266  0.00  0.00    -0.490 OA
BRANCH   7   8
ATOM      8  C   UNL     1       4.396  -6.334  25.718  0.00  0.00    +0.248 C 
BRANCH   8   9
ATOM      9  C   UNL     1       4.309  -7.105  24.394  0.00  0.00    +0.147 C 
BRANCH   9  11
ATOM     10  C   UNL     1       2.649  -5.571  23.393  0.00  0.00    +0.131 C 
ATOM     11  N   UNL     1       3.951  -6.226  23.261  0.00  0.00    -0.315 N 
BRANCH  11  12
ATOM     12  C   UNL     1       4.973  -5.326  22.896  0.00  0.00    +0.121 A 
ATOM     13  N   UNL     1       4.699  -4.011  22.745  0.00  0.00    -0.240 NA
ATOM     14  C   UNL     1       5.699  -3.185  22.358  0.00  0.00    +0.113 A 
ATOM     15  C   UNL     1       6.990  -3.601  22.101  0.00  0.00    +0.020 A 
ATOM     16  C   UNL     1       7.274  -4.948  22.253  0.00  0.00    +0.005 A 
ATOM     17  C   UNL     1       6.258  -5.814  22.655  0.00  0.00    +0.043 A 
ENDBRANCH  11  12
ENDBRANCH   9  11
ENDBRANCH   8   9
ENDBRANCH   7   8
ENDBRANCH   1   7
BRANCH   4  18
ATOM     18  C   UNL     1       8.869  -1.667  25.578  0.00  0.00    +0.059 C 
BRANCH  18  19
ATOM     19  C   UNL     1       8.855  -1.109  24.157  0.00  0.00    +0.146 C 
ATOM     20  C   UNL     1       9.978  -1.603  23.272  0.00  0.00    +0.234 C 
ATOM     21  O   UNL     1      10.403  -2.751  23.243  0.00  0.00    -0.274 OA
ATOM     22  N   UNL     1      10.393  -0.627  22.413  0.00  0.00    -0.246 N 
ATOM     23  H   UNL     1      11.053  -0.830  21.679  0.00  0.00    +0.158 HD
ATOM     24  C   UNL     1       9.867   0.615  22.536  0.00  0.00    +0.279 C 
ATOM     25  O   UNL     1      10.039   1.543  21.766  0.00  0.00    -0.263 OA
ATOM     26  S   UNL     1       8.871   0.704  23.970  0.00  0.00    -0.054 S 
ENDBRANCH  18  19
ENDBRANCH   4  18
TORSDOF 7
ENDMDL
MODEL 4
REMARK VINA RESULT:      -6.4      2.843      7.308
REMARK  Name = 
REMARK  8 active torsions:
REMARK  status: ('A' for Active; 'I' for Inactive)
REMARK    1  A    between atoms: C_1  and  N_2
REMARK    2  A    between atoms: N_2  and  C_3
REMARK    3  A    between atoms: N_2  and  C_20
REMARK    4  A    between atoms: C_3  and  C_4
REMARK    5  A    between atoms: C_4  and  O_5
REMARK    6  A    between atoms: O_5  and  C_6
REMARK    7  A    between atoms: C_9  and  C_10
REMARK    8  A    between atoms: C_10  and  C_11
REMARK                            x       y       z     vdW  Elec       q    Type
REMARK                         _______ _______ _______ _____ _____    ______ ____
ROOT
ATOM      1  C   UNL     1       7.012   1.659  25.088  0.00  0.00    +0.121 A 
ATOM      2  C   UNL     1       6.599   1.031  23.914  0.00  0.00    +0.046 A 
ATOM      3  C   UNL     1       6.661  -0.364  23.790  0.00  0.00    +0.007 A 
ATOM      4  C   UNL     1       7.144  -1.151  24.845  0.00  0.00    -0.046 A 
ATOM      5  C   UNL     1       7.517  -0.517  26.035  0.00  0.00    +0.007 A 
ATOM      6  C   UNL     1       7.445   0.873  26.160  0.00  0.00    +0.046 A 
ENDROOT
BRANCH   1   7
ATOM      7  O   UNL     1       6.964   3.031  25.087  0.00  0.00    -0.490 OA
BRANCH   7   8
ATOM      8  C   UNL     1       7.733   3.672  24.059  0.00  0.00    +0.248 C 
BRANCH   8   9
ATOM      9  C   UNL     1       9.214   3.791  24.447  0.00  0.00    +0.147 C 
BRANCH   9  11
ATOM     10  C   UNL     1      11.448   3.992  23.408  0.00  0.00    +0.131 C 
ATOM     11  N   UNL     1      10.112   3.400  23.339  0.00  0.00    -0.315 N 
BRANCH  11  12
ATOM     12  C   UNL     1      10.147   2.011  23.102  0.00  0.00    +0.121 A 
ATOM     13  N   UNL     1       9.742   1.514  21.911  0.00  0.00    -0.240 NA
ATOM     14  C   UNL     1       9.757   0.173  21.734  0.00  0.00    +0.113 A 
ATOM     15  C   UNL     1      10.157  -0.731  22.700  0.00  0.00    +0.020 A 
ATOM     16  C   UNL     1      10.571  -0.226  23.920  0.00  0.00    +0.005 A 
ATOM     17  C   UNL     1      10.567   1.154  24.121  0.00  0.00    +0.043 A 
ENDBRANCH  11  12
ENDBRANCH   9  11
ENDBRANCH   8   9
ENDBRANCH   7   8
ENDBRANCH   1   7
BRANCH   4  18
ATOM     18  C   UNL     1       7.335  -2.639  24.685  0.00  0.00    +0.059 C 
BRANCH  18  19
ATOM     19  C   UNL     1       7.792  -3.437  25.904  0.00  0.00    +0.146 C 
ATOM     20  C   UNL     1       8.629  -4.656  25.584  0.00  0.00    +0.234 C 
ATOM     21  O   UNL     1       9.500  -4.711  24.725  0.00  0.00    -0.274 OA
ATOM     22  N   UNL     1       8.372  -5.672  26.459  0.00  0.00    -0.246 N 
ATOM     23  H   UNL     1       8.930  -6.511  26.454  0.00  0.00    +0.158 HD
ATOM     24  C   UNL     1       7.378  -5.515  27.365  0.00  0.00    +0.279 C 
ATOM     25  O   UNL     1       7.125  -6.272  28.285  0.00  0.00    -0.263 OA
ATOM     26  S   UNL     1       6.501  -4.038  27.042  0.00  0.00    -0.054 S 
ENDBRANCH  18  19
ENDBRANCH   4  18
TORSDOF 7
ENDMDL
MODEL 5
REMARK VINA RESULT:      -6.2      1.610      2.631
REMARK  Name = 
REMARK  8 active torsions:
REMARK  status: ('A' for Active; 'I' for Inactive)
REMARK    1  A    between atoms: C_1  and  N_2
REMARK    2  A    between atoms: N_2  and  C_3
REMARK    3  A    between atoms: N_2  and  C_20
REMARK    4  A    between atoms: C_3  and  C_4
REMARK    5  A    between atoms: C_4  and  O_5
REMARK    6  A    between atoms: O_5  and  C_6
REMARK    7  A    between atoms: C_9  and  C_10
REMARK    8  A    between atoms: C_10  and  C_11
REMARK                            x       y       z     vdW  Elec       q    Type
REMARK                         _______ _______ _______ _____ _____    ______ ____
ROOT
ATOM      1  C   UNL     1       7.184  -4.479  23.593  0.00  0.00    +0.121 A 
ATOM      2  C   UNL     1       8.303  -4.423  24.421  0.00  0.00    +0.046 A 
ATOM      3  C   UNL     1       9.247  -3.396  24.279  0.00  0.00    +0.007 A 
ATOM      4  C   UNL     1       9.081  -2.410  23.295  0.00  0.00    -0.046 A 
ATOM      5  C   UNL     1       7.934  -2.450  22.496  0.00  0.00    +0.007 A 
ATOM      6  C   UNL     1       6.990  -3.468  22.647  0.00  0.00    +0.046 A 
ENDROOT
BRANCH   1   7
ATOM      7  O   UNL     1       6.351  -5.555  23.778  0.00  0.00    -0.490 OA
BRANCH   7   8
ATOM      8  C   UNL     1       5.740  -5.644  25.074  0.00  0.00    +0.248 C 
BRANCH   8   9
ATOM      9  C   UNL     1       4.653  -4.577  25.265  0.00  0.00    +0.147 C 
BRANCH   9  11
ATOM     10  C   UNL     1       5.566  -4.389  27.554  0.00  0.00    +0.131 C 
ATOM     11  N   UNL     1       4.926  -3.708  26.429  0.00  0.00    -0.315 N 
BRANCH  11  12
ATOM     12  C   UNL     1       5.567  -2.498  26.094  0.00  0.00    +0.121 A 
ATOM     13  N   UNL     1       5.060  -1.707  25.121  0.00  0.00    -0.240 NA
ATOM     14  C   UNL     1       5.724  -0.571  24.804  0.00  0.00    +0.113 A 
ATOM     15  C   UNL     1       6.898  -0.165  25.409  0.00  0.00    +0.020 A 
ATOM     16  C   UNL     1       7.420  -0.973  26.405  0.00  0.00    +0.005 A 
ATOM     17  C   UNL     1       6.748  -2.146  26.750  0.00  0.00    +0.043 A 
ENDBRANCH  11  12
ENDBRANCH   9  11
ENDBRANCH   8   9
ENDBRANCH   7   8
ENDBRANCH   1   7
BRANCH   4  18
ATOM     18  C   UNL     1      10.147  -1.372  23.044  0.00  0.00    +0.059 C 
BRANCH  18  19
ATOM     19  C   UNL     1       9.753   0.099  23.155  0.00  0.00    +0.146 C 
ATOM     20  C   UNL     1       9.646   0.827  21.833  0.00  0.00    +0.234 C 
ATOM     21  O   UNL     1       9.165   0.364  20.808  0.00  0.00    -0.274 OA
ATOM     22  N   UNL     1      10.056   2.124  21.951  0.00  0.00    -0.246 N 
ATOM     23  H   UNL     1       9.937   2.774  21.191  0.00  0.00    +0.158 HD
ATOM     24  C   UNL     1      10.587   2.534  23.128  0.00  0.00    +0.279 C 
ATOM     25  O   UNL     1      10.869   3.681  23.422  0.00  0.00    -0.263 OA
ATOM     26  S   UNL     1      10.798   1.168  24.198  0.00  0.00    -0.054 S 
ENDBRANCH  18  19
ENDBRANCH   4  18
TORSDOF 7
ENDMDL
MODEL 6
REMARK VINA RESULT:      -6.0      2.094      3.066
REMARK  Name = 
REMARK  8 active torsions:
REMARK  status: ('A' for Active; 'I' for Inactive)
REMARK    1  A    between atoms: C_1  and  N_2
REMARK    2  A    between atoms: N_2  and  C_3
REMARK    3  A    between atoms: N_2  and  C_20
REMARK    4  A    between atoms: C_3  and  C_4
REMARK    5  A    between atoms: C_4  and  O_5
REMARK    6  A    between atoms: O_5  and  C_6
REMARK    7  A    between atoms: C_9  and  C_10
REMARK    8  A    between atoms: C_10  and  C_11
REMARK                            x       y       z     vdW  Elec       q    Type
REMARK                         _______ _______ _______ _____ _____    ______ ____
ROOT
ATOM      1  C   UNL     1       6.460  -5.380  26.202  0.00  0.00    +0.121 A 
ATOM      2  C   UNL     1       5.773  -4.168  26.211  0.00  0.00    +0.046 A 
ATOM      3  C   UNL     1       6.469  -2.951  26.219  0.00  0.00    +0.007 A 
ATOM      4  C   UNL     1       7.871  -2.935  26.223  0.00  0.00    -0.046 A 
ATOM      5  C   UNL     1       8.554  -4.155  26.172  0.00  0.00    +0.007 A 
ATOM      6  C   UNL     1       7.857  -5.366  26.152  0.00  0.00    +0.046 A 
ENDROOT
BRANCH   1   7
ATOM      7  O   UNL     1       5.686  -6.512  26.251  0.00  0.00    -0.490 OA
BRANCH   7   8
ATOM      8  C   UNL     1       4.344  -6.361  25.763  0.00  0.00    +0.248 C 
BRANCH   8   9
ATOM      9  C   UNL     1       4.111  -7.170  24.479  0.00  0.00    +0.147 C 
BRANCH   9  11
ATOM     10  C   UNL     1       2.502  -5.603  23.448  0.00  0.00    +0.131 C 
ATOM     11  N   UNL     1       3.781  -6.303  23.328  0.00  0.00    -0.315 N 
BRANCH  11  12
ATOM     12  C   UNL     1       4.832  -5.446  22.943  0.00  0.00    +0.121 A 
ATOM     13  N   UNL     1       4.614  -4.117  22.819  0.00  0.00    -0.240 NA
ATOM     14  C   UNL     1       5.639  -3.333  22.412  0.00  0.00    +0.113 A 
ATOM     15  C   UNL     1       6.902  -3.804  22.108  0.00  0.00    +0.020 A 
ATOM     16  C   UNL     1       7.127  -5.164  22.234  0.00  0.00    +0.005 A 
ATOM     17  C   UNL     1       6.085  -5.989  22.656  0.00  0.00    +0.043 A 
ENDBRANCH  11  12
ENDBRANCH   9  11
ENDBRANCH   8   9
ENDBRANCH   7   8
ENDBRANCH   1   7
BRANCH   4  18
ATOM     18  C   UNL     1       8.637  -1.641  26.358  0.00  0.00    +0.059 C 
BRANCH  18  19
ATOM     19  C   UNL     1       8.972  -0.871  25.084  0.00  0.00    +0.146 C 
ATOM     20  C   UNL     1       7.786  -0.212  24.413  0.00  0.00    +0.234 C 
ATOM     21  O   UNL     1       6.873   0.360  24.993  0.00  0.00    -0.274 OA
ATOM     22  N   UNL     1       7.916  -0.234  23.054  0.00  0.00    -0.246 N 
ATOM     23  H   UNL     1       7.269   0.267  22.465  0.00  0.00    +0.158 HD
ATOM     24  C   UNL     1       8.958  -0.906  22.510  0.00  0.00    +0.279 C 
ATOM     25  O   UNL     1       9.275  -0.900  21.335  0.00  0.00    -0.263 OA
ATOM     26  S   UNL     1       9.818  -1.785  23.753  0.00  0.00    -0.054 S 
ENDBRANCH  18  19
ENDBRANCH   4  18
TORSDOF 7
ENDMDL
MODEL 7
REMARK VINA RESULT:      -6.0      2.983      6.835
REMARK  Name = 
REMARK  8 active torsions:
REMARK  status: ('A' for Active; 'I' for Inactive)
REMARK    1  A    between atoms: C_1  and  N_2
REMARK    2  A    between atoms: N_2  and  C_3
REMARK    3  A    between atoms: N_2  and  C_20
REMARK    4  A    between atoms: C_3  and  C_4
REMARK    5  A    between atoms: C_4  and  O_5
REMARK    6  A    between atoms: O_5  and  C_6
REMARK    7  A    between atoms: C_9  and  C_10
REMARK    8  A    between atoms: C_10  and  C_11
REMARK                            x       y       z     vdW  Elec       q    Type
REMARK                         _______ _______ _______ _____ _____    ______ ____
ROOT
ATOM      1  C   UNL     1       6.886   0.642  25.096  0.00  0.00    +0.121 A 
ATOM      2  C   UNL     1       8.187   0.571  25.591  0.00  0.00    +0.046 A 
ATOM      3  C   UNL     1       9.043  -0.472  25.208  0.00  0.00    +0.007 A 
ATOM      4  C   UNL     1       8.600  -1.465  24.323  0.00  0.00    -0.046 A 
ATOM      5  C   UNL     1       7.308  -1.365  23.798  0.00  0.00    +0.007 A 
ATOM      6  C   UNL     1       6.461  -0.319  24.173  0.00  0.00    +0.046 A 
ENDROOT
BRANCH   1   7
ATOM      7  O   UNL     1       6.113   1.669  25.576  0.00  0.00    -0.490 OA
BRANCH   7   8
ATOM      8  C   UNL     1       5.530   2.518  24.576  0.00  0.00    +0.248 C 
BRANCH   8   9
ATOM      9  C   UNL     1       6.407   3.746  24.291  0.00  0.00    +0.147 C 
BRANCH   9  11
ATOM     10  C   UNL     1       7.076   5.132  22.357  0.00  0.00    +0.131 C 
ATOM     11  N   UNL     1       6.869   3.785  22.887  0.00  0.00    -0.315 N 
BRANCH  11  12
ATOM     12  C   UNL     1       7.957   2.928  22.625  0.00  0.00    +0.121 A 
ATOM     13  N   UNL     1       9.141   3.122  23.249  0.00  0.00    -0.240 NA
ATOM     14  C   UNL     1      10.172   2.301  22.943  0.00  0.00    +0.113 A 
ATOM     15  C   UNL     1      10.097   1.272  22.024  0.00  0.00    +0.020 A 
ATOM     16  C   UNL     1       8.887   1.072  21.382  0.00  0.00    +0.005 A 
ATOM     17  C   UNL     1       7.810   1.905  21.687  0.00  0.00    +0.043 A 
ENDBRANCH  11  12
ENDBRANCH   9  11
ENDBRANCH   8   9
ENDBRANCH   7   8
ENDBRANCH   1   7
BRANCH   4  18
ATOM     18  C   UNL     1       9.462  -2.661  23.998  0.00  0.00    +0.059 C 
BRANCH  18  19
ATOM     19  C   UNL     1       9.090  -4.002  24.624  0.00  0.00    +0.146 C 
ATOM     20  C   UNL     1       7.895  -4.684  23.994  0.00  0.00    +0.234 C 
ATOM     21  O   UNL     1       7.655  -4.726  22.794  0.00  0.00    -0.274 OA
ATOM     22  N   UNL     1       7.162  -5.355  24.930  0.00  0.00    -0.246 N 
ATOM     23  H   UNL     1       6.401  -5.957  24.656  0.00  0.00    +0.158 HD
ATOM     24  C   UNL     1       7.504  -5.233  26.235  0.00  0.00    +0.279 C 
ATOM     25  O   UNL     1       7.032  -5.871  27.158  0.00  0.00    -0.263 OA
ATOM     26  S   UNL     1       8.755  -4.025  26.415  0.00  0.00    -0.054 S 
ENDBRANCH  18  19
ENDBRANCH   4  18
TORSDOF 7
ENDMDL
MODEL 8
REMARK VINA RESULT:      -5.9      2.940      8.422
REMARK  Name = 
REMARK  8 active torsions:
REMARK  status: ('A' for Active; 'I' for Inactive)
REMARK    1  A    between atoms: C_1  and  N_2
REMARK    2  A    between atoms: N_2  and  C_3
REMARK    3  A    between atoms: N_2  and  C_20
REMARK    4  A    between atoms: C_3  and  C_4
REMARK    5  A    between atoms: C_4  and  O_5
REMARK    6  A    between atoms: O_5  and  C_6
REMARK    7  A    between atoms: C_9  and  C_10
REMARK    8  A    between atoms: C_10  and  C_11
REMARK                            x       y       z     vdW  Elec       q    Type
REMARK                         _______ _______ _______ _____ _____    ______ ____
ROOT
ATOM      1  C   UNL     1       9.521  -1.213  23.075  0.00  0.00    +0.121 A 
ATOM      2  C   UNL     1       8.374  -1.512  22.342  0.00  0.00    +0.046 A 
ATOM      3  C   UNL     1       7.694  -2.723  22.539  0.00  0.00    +0.007 A 
ATOM      4  C   UNL     1       8.162  -3.655  23.475  0.00  0.00    -0.046 A 
ATOM      5  C   UNL     1       9.290  -3.331  24.236  0.00  0.00    +0.007 A 
ATOM      6  C   UNL     1       9.959  -2.119  24.046  0.00  0.00    +0.046 A 
ENDROOT
BRANCH   1   7
ATOM      7  O   UNL     1      10.142  -0.029  22.767  0.00  0.00    -0.490 OA
BRANCH   7   8
ATOM      8  C   UNL     1      10.663   0.701  23.887  0.00  0.00    +0.248 C 
BRANCH   8   9
ATOM      9  C   UNL     1       9.720   1.833  24.318  0.00  0.00    +0.147 C 
BRANCH   9  11
ATOM     10  C   UNL     1       8.246   3.254  22.933  0.00  0.00    +0.131 C 
ATOM     11  N   UNL     1       9.617   2.892  23.291  0.00  0.00    -0.315 N 
BRANCH  11  12
ATOM     12  C   UNL     1      10.422   4.018  23.557  0.00  0.00    +0.121 A 
ATOM     13  N   UNL     1      11.739   4.000  23.251  0.00  0.00    -0.240 NA
ATOM     14  C   UNL     1      12.486   5.087  23.555  0.00  0.00    +0.113 A 
ATOM     15  C   UNL     1      11.989   6.221  24.167  0.00  0.00    +0.020 A 
ATOM     16  C   UNL     1      10.641   6.243  24.483  0.00  0.00    +0.005 A 
ATOM     17  C   UNL     1       9.854   5.134  24.174  0.00  0.00    +0.043 A 
ENDBRANCH  11  12
ENDBRANCH   9  11
ENDBRANCH   8   9
ENDBRANCH   7   8
ENDBRANCH   1   7
BRANCH   4  18
ATOM     18  C   UNL     1       7.519  -5.014  23.612  0.00  0.00    +0.059 C 
BRANCH  18  19
ATOM     19  C   UNL     1       6.313  -5.144  24.539  0.00  0.00    +0.146 C 
ATOM     20  C   UNL     1       6.638  -5.637  25.932  0.00  0.00    +0.234 C 
ATOM     21  O   UNL     1       7.611  -5.302  26.593  0.00  0.00    -0.274 OA
ATOM     22  N   UNL     1       5.637  -6.430  26.418  0.00  0.00    -0.246 N 
ATOM     23  H   UNL     1       5.646  -6.743  27.376  0.00  0.00    +0.158 HD
ATOM     24  C   UNL     1       4.608  -6.754  25.600  0.00  0.00    +0.279 C 
ATOM     25  O   UNL     1       3.590  -7.334  25.930  0.00  0.00    -0.263 OA
ATOM     26  S   UNL     1       4.935  -6.196  23.976  0.00  0.00    -0.054 S 
ENDBRANCH  18  19
ENDBRANCH   4  18
TORSDOF 7
ENDMDL
MODEL 9
REMARK VINA RESULT:      -5.8      3.022      6.908
REMARK  Name = 
REMARK  8 active torsions:
REMARK  status: ('A' for Active; 'I' for Inactive)
REMARK    1  A    between atoms: C_1  and  N_2
REMARK    2  A    between atoms: N_2  and  C_3
REMARK    3  A    between atoms: N_2  and  C_20
REMARK    4  A    between atoms: C_3  and  C_4
REMARK    5  A    between atoms: C_4  and  O_5
REMARK    6  A    between atoms: O_5  and  C_6
REMARK    7  A    between atoms: C_9  and  C_10
REMARK    8  A    between atoms: C_10  and  C_11
REMARK                            x       y       z     vdW  Elec       q    Type
REMARK                         _______ _______ _______ _____ _____    ______ ____
ROOT
ATOM      1  C   UNL     1       7.726   0.412  25.521  0.00  0.00    +0.121 A 
ATOM      2  C   UNL     1       6.634   0.104  24.711  0.00  0.00    +0.046 A 
ATOM      3  C   UNL     1       6.722  -0.909  23.747  0.00  0.00    +0.007 A 
ATOM      4  C   UNL     1       7.914  -1.628  23.578  0.00  0.00    -0.046 A 
ATOM      5  C   UNL     1       8.992  -1.342  24.422  0.00  0.00    +0.007 A 
ATOM      6  C   UNL     1       8.898  -0.339  25.390  0.00  0.00    +0.046 A 
ENDROOT
BRANCH   1   7
ATOM      7  O   UNL     1       7.554   1.457  26.394  0.00  0.00    -0.490 OA
BRANCH   7   8
ATOM      8  C   UNL     1       6.787   2.560  25.889  0.00  0.00    +0.248 C 
BRANCH   8   9
ATOM      9  C   UNL     1       7.676   3.768  25.563  0.00  0.00    +0.147 C 
BRANCH   9  11
ATOM     10  C   UNL     1       8.101   5.429  23.782  0.00  0.00    +0.131 C 
ATOM     11  N   UNL     1       7.709   4.059  24.114  0.00  0.00    -0.315 N 
BRANCH  11  12
ATOM     12  C   UNL     1       8.412   3.098  23.359  0.00  0.00    +0.121 A 
ATOM     13  N   UNL     1       9.697   2.803  23.661  0.00  0.00    -0.240 NA
ATOM     14  C   UNL     1      10.349   1.902  22.890  0.00  0.00    +0.113 A 
ATOM     15  C   UNL     1       9.786   1.262  21.804  0.00  0.00    +0.020 A 
ATOM     16  C   UNL     1       8.471   1.562  21.491  0.00  0.00    +0.005 A 
ATOM     17  C   UNL     1       7.780   2.486  22.276  0.00  0.00    +0.043 A 
ENDBRANCH  11  12
ENDBRANCH   9  11
ENDBRANCH   8   9
ENDBRANCH   7   8
ENDBRANCH   1   7
BRANCH   4  18
ATOM     18  C   UNL     1       8.068  -2.634  22.464  0.00  0.00    +0.059 C 
BRANCH  18  19
ATOM     19  C   UNL     1       7.393  -3.993  22.628  0.00  0.00    +0.146 C 
ATOM     20  C   UNL     1       5.968  -4.056  22.122  0.00  0.00    +0.234 C 
ATOM     21  O   UNL     1       5.558  -3.531  21.096  0.00  0.00    -0.274 OA
ATOM     22  N   UNL     1       5.206  -4.877  22.903  0.00  0.00    -0.246 N 
ATOM     23  H   UNL     1       4.265  -5.119  22.633  0.00  0.00    +0.158 HD
ATOM     24  C   UNL     1       5.753  -5.400  24.026  0.00  0.00    +0.279 C 
ATOM     25  O   UNL     1       5.244  -6.244  24.741  0.00  0.00    -0.263 OA
ATOM     26  S   UNL     1       7.328  -4.697  24.308  0.00  0.00    -0.054 S 
ENDBRANCH  18  19
ENDBRANCH   4  18
TORSDOF 7
ENDMDL
