MODEL 1
REMARK VINA RESULT:      -6.4      0.000      0.000
REMARK  Name = 
REMARK  5 active torsions:
REMARK  status: ('A' for Active; 'I' for Inactive)
REMARK    1  A    between atoms: C_1  and  C_2
REMARK    2  A    between atoms: C_2  and  C_3
REMARK    3  A    between atoms: N_5  and  C_6
REMARK    4  A    between atoms: C_6  and  C_7
REMARK    5  A    between atoms: C_7  and  C_8
REMARK                            x       y       z     vdW  Elec       q    Type
REMARK                         _______ _______ _______ _____ _____    ______ ____
ROOT
ATOM      1  C   UNL     1       7.679  -4.930  23.367  0.00  0.00    +0.021 C 
ATOM      2  C   UNL     1       6.611  -5.481  24.260  0.00  0.00    -0.034 A 
ATOM      3  C   UNL     1       6.509  -5.589  25.649  0.00  0.00    +0.001 A 
ATOM      4  C   UNL     1       7.408  -5.224  26.746  0.00  0.00    +0.080 C 
ATOM      5  C   UNL     1       6.557  -5.635  27.955  0.00  0.00    +0.234 C 
ATOM      6  O   UNL     1       5.292  -6.185  27.506  0.00  0.00    -0.491 OA
ATOM      7  C   UNL     1       5.317  -6.136  26.118  0.00  0.00    +0.124 A 
ATOM      8  C   UNL     1       4.231  -6.603  25.404  0.00  0.00    +0.046 A 
ATOM      9  C   UNL     1       4.328  -6.528  24.037  0.00  0.00    +0.007 A 
ATOM     10  C   UNL     1       5.501  -5.977  23.546  0.00  0.00    -0.043 A 
ATOM     11  C   UNL     1       5.718  -5.824  22.068  0.00  0.00    +0.036 C 
ATOM     12  C   UNL     1       7.189  -5.354  21.952  0.00  0.00    +0.013 C 
ENDROOT
BRANCH   1  13
ATOM     13  C   UNL     1       7.876  -3.418  23.534  0.00  0.00    +0.027 C 
BRANCH  13  14
ATOM     14  C   UNL     1       9.160  -3.015  24.262  0.00  0.00    +0.105 C 
BRANCH  14  16
ATOM     15  C   UNL     1      10.165  -1.081  23.106  0.00  0.00    +0.213 C 
ATOM     16  N   UNL     1       9.415  -1.591  24.143  0.00  0.00    -0.315 N 
ATOM     17  H   UNL     1       9.073  -0.973  24.867  0.00  0.00    +0.149 HD
ATOM     18  O   UNL     1      10.675  -1.782  22.240  0.00  0.00    -0.276 OA
BRANCH  15  20
ATOM     19  C   UNL     1       9.777   1.071  21.870  0.00  0.00    +0.013 C 
ATOM     20  C   UNL     1      10.292   0.429  23.146  0.00  0.00    +0.092 C 
ENDBRANCH  15  20
ENDBRANCH  14  16
ENDBRANCH  13  14
ENDBRANCH   1  13
TORSDOF 4
ENDMDL
MODEL 2
REMARK VINA RESULT:      -6.4      2.664      5.339
REMARK  Name = 
REMARK  5 active torsions:
REMARK  status: ('A' for Active; 'I' for Inactive)
REMARK    1  A    between atoms: C_1  and  C_2
REMARK    2  A    between atoms: C_2  and  C_3
REMARK    3  A    between atoms: N_5  and  C_6
REMARK    4  A    between atoms: C_6  and  C_7
REMARK    5  A    between atoms: C_7  and  C_8
REMARK                            x       y       z     vdW  Elec       q    Type
REMARK                         _______ _______ _______ _____ _____    ______ ____
ROOT
ATOM      1  C   UNL     1       8.989  -3.526  24.347  0.00  0.00    +0.021 C 
ATOM      2  C   UNL     1       7.563  -3.696  23.925  0.00  0.00    -0.034 A 
ATOM      3  C   UNL     1       6.940  -4.588  23.049  0.00  0.00    +0.001 A 
ATOM      4  C   UNL     1       7.445  -5.672  22.204  0.00  0.00    +0.080 C 
ATOM      5  C   UNL     1       6.137  -6.176  21.582  0.00  0.00    +0.234 C 
ATOM      6  O   UNL     1       5.020  -5.394  22.075  0.00  0.00    -0.491 OA
ATOM      7  C   UNL     1       5.556  -4.455  22.947  0.00  0.00    +0.124 A 
ATOM      8  C   UNL     1       4.717  -3.557  23.576  0.00  0.00    +0.046 A 
ATOM      9  C   UNL     1       5.319  -2.656  24.420  0.00  0.00    +0.007 A 
ATOM     10  C   UNL     1       6.694  -2.775  24.546  0.00  0.00    -0.043 A 
ATOM     11  C   UNL     1       7.463  -1.859  25.455  0.00  0.00    +0.036 C 
ATOM     12  C   UNL     1       8.945  -2.201  25.163  0.00  0.00    +0.013 C 
ENDROOT
BRANCH   1  13
ATOM     13  C   UNL     1       9.527  -4.728  25.132  0.00  0.00    +0.027 C 
BRANCH  13  14
ATOM     14  C   UNL     1       9.025  -4.829  26.575  0.00  0.00    +0.105 C 
BRANCH  14  16
ATOM     15  C   UNL     1       6.715  -5.329  27.282  0.00  0.00    +0.213 C 
ATOM     16  N   UNL     1       7.889  -5.727  26.681  0.00  0.00    -0.315 N 
ATOM     17  H   UNL     1       7.987  -6.677  26.349  0.00  0.00    +0.149 HD
ATOM     18  O   UNL     1       6.557  -4.219  27.775  0.00  0.00    -0.276 OA
BRANCH  15  20
ATOM     19  C   UNL     1       4.997  -6.533  25.899  0.00  0.00    +0.013 C 
ATOM     20  C   UNL     1       5.644  -6.401  27.267  0.00  0.00    +0.092 C 
ENDBRANCH  15  20
ENDBRANCH  14  16
ENDBRANCH  13  14
ENDBRANCH   1  13
TORSDOF 4
ENDMDL
MODEL 3
REMARK VINA RESULT:      -6.2      4.271      6.242
REMARK  Name = 
REMARK  5 active torsions:
REMARK  status: ('A' for Active; 'I' for Inactive)
REMARK    1  A    between atoms: C_1  and  C_2
REMARK    2  A    between atoms: C_2  and  C_3
REMARK    3  A    between atoms: N_5  and  C_6
REMARK    4  A    between atoms: C_6  and  C_7
REMARK    5  A    between atoms: C_7  and  C_8
REMARK                            x       y       z     vdW  Elec       q    Type
REMARK                         _______ _______ _______ _____ _____    ______ ____
ROOT
ATOM      1  C   UNL     1       8.898   1.054  21.745  0.00  0.00    +0.021 C 
ATOM      2  C   UNL     1       8.318   0.150  22.787  0.00  0.00    -0.034 A 
ATOM      3  C   UNL     1       8.767  -1.048  23.350  0.00  0.00    +0.001 A 
ATOM      4  C   UNL     1       9.954  -1.873  23.122  0.00  0.00    +0.080 C 
ATOM      5  C   UNL     1       9.722  -2.990  24.148  0.00  0.00    +0.234 C 
ATOM      6  O   UNL     1       8.482  -2.756  24.862  0.00  0.00    -0.491 OA
ATOM      7  C   UNL     1       7.949  -1.582  24.344  0.00  0.00    +0.124 A 
ATOM      8  C   UNL     1       6.751  -1.105  24.838  0.00  0.00    +0.046 A 
ATOM      9  C   UNL     1       6.284   0.056  24.275  0.00  0.00    +0.007 A 
ATOM     10  C   UNL     1       7.085   0.613  23.291  0.00  0.00    -0.043 A 
ATOM     11  C   UNL     1       6.691   1.894  22.613  0.00  0.00    +0.036 C 
ATOM     12  C   UNL     1       7.738   2.057  21.483  0.00  0.00    +0.013 C 
ENDROOT
BRANCH   1  13
ATOM     13  C   UNL     1      10.209   1.713  22.188  0.00  0.00    +0.027 C 
BRANCH  13  14
ATOM     14  C   UNL     1      10.042   2.894  23.147  0.00  0.00    +0.105 C 
BRANCH  14  16
ATOM     15  C   UNL     1      11.165   5.027  23.673  0.00  0.00    +0.213 C 
ATOM     16  N   UNL     1      11.207   3.759  23.137  0.00  0.00    -0.315 N 
ATOM     17  H   UNL     1      12.050   3.434  22.681  0.00  0.00    +0.149 HD
ATOM     18  O   UNL     1      10.154   5.511  24.170  0.00  0.00    -0.276 OA
BRANCH  15  20
ATOM     19  C   UNL     1      13.174   5.527  22.252  0.00  0.00    +0.013 C 
ATOM     20  C   UNL     1      12.490   5.756  23.588  0.00  0.00    +0.092 C 
ENDBRANCH  15  20
ENDBRANCH  14  16
ENDBRANCH  13  14
ENDBRANCH   1  13
TORSDOF 4
ENDMDL
MODEL 4
REMARK VINA RESULT:      -6.2      2.198      3.558
REMARK  Name = 
REMARK  5 active torsions:
REMARK  status: ('A' for Active; 'I' for Inactive)
REMARK    1  A    between atoms: C_1  and  C_2
REMARK    2  A    between atoms: C_2  and  C_3
REMARK    3  A    between atoms: N_5  and  C_6
REMARK    4  A    between atoms: C_6  and  C_7
REMARK    5  A    between atoms: C_7  and  C_8
REMARK                            x       y       z     vdW  Elec       q    Type
REMARK                         _______ _______ _______ _____ _____    ______ ____
ROOT
ATOM      1  C   UNL     1       9.864  -1.928  24.068  0.00  0.00    +0.021 C 
ATOM      2  C   UNL     1       8.777  -2.957  24.087  0.00  0.00    -0.034 A 
ATOM      3  C   UNL     1       8.344  -3.851  25.070  0.00  0.00    +0.001 A 
ATOM      4  C   UNL     1       8.797  -4.128  26.434  0.00  0.00    +0.080 C 
ATOM      5  C   UNL     1       7.793  -5.210  26.849  0.00  0.00    +0.234 C 
ATOM      6  O   UNL     1       6.875  -5.479  25.758  0.00  0.00    -0.491 OA
ATOM      7  C   UNL     1       7.251  -4.640  24.717  0.00  0.00    +0.124 A 
ATOM      8  C   UNL     1       6.549  -4.677  23.529  0.00  0.00    +0.046 A 
ATOM      9  C   UNL     1       6.981  -3.824  22.544  0.00  0.00    +0.007 A 
ATOM     10  C   UNL     1       8.060  -3.020  22.875  0.00  0.00    -0.043 A 
ATOM     11  C   UNL     1       8.612  -2.031  21.888  0.00  0.00    +0.036 C 
ATOM     12  C   UNL     1       9.891  -1.491  22.575  0.00  0.00    +0.013 C 
ENDROOT
BRANCH   1  13
ATOM     13  C   UNL     1       9.616  -0.779  25.052  0.00  0.00    +0.027 C 
BRANCH  13  14
ATOM     14  C   UNL     1      10.554   0.420  24.888  0.00  0.00    +0.105 C 
BRANCH  14  16
ATOM     15  C   UNL     1       9.748   2.393  23.645  0.00  0.00    +0.213 C 
ATOM     16  N   UNL     1       9.815   1.668  24.814  0.00  0.00    -0.315 N 
ATOM     17  H   UNL     1       9.385   2.029  25.654  0.00  0.00    +0.149 HD
ATOM     18  O   UNL     1      10.312   2.052  22.611  0.00  0.00    -0.276 OA
BRANCH  15  20
ATOM     19  C   UNL     1       8.245   3.751  25.130  0.00  0.00    +0.013 C 
ATOM     20  C   UNL     1       8.908   3.648  23.767  0.00  0.00    +0.092 C 
ENDBRANCH  15  20
ENDBRANCH  14  16
ENDBRANCH  13  14
ENDBRANCH   1  13
TORSDOF 4
ENDMDL
MODEL 5
REMARK VINA RESULT:      -6.1      1.835      3.374
REMARK  Name = 
REMARK  5 active torsions:
REMARK  status: ('A' for Active; 'I' for Inactive)
REMARK    1  A    between atoms: C_1  and  C_2
REMARK    2  A    between atoms: C_2  and  C_3
REMARK    3  A    between atoms: N_5  and  C_6
REMARK    4  A    between atoms: C_6  and  C_7
REMARK    5  A    between atoms: C_7  and  C_8
REMARK                            x       y       z     vdW  Elec       q    Type
REMARK                         _______ _______ _______ _____ _____    ______ ____
ROOT
ATOM      1  C   UNL     1       7.379  -4.829  26.023  0.00  0.00    +0.021 C 
ATOM      2  C   UNL     1       6.343  -5.351  25.076  0.00  0.00    -0.034 A 
ATOM      3  C   UNL     1       6.197  -5.247  23.691  0.00  0.00    +0.001 A 
ATOM      4  C   UNL     1       6.984  -4.580  22.652  0.00  0.00    +0.080 C 
ATOM      5  C   UNL     1       6.183  -4.964  21.402  0.00  0.00    +0.234 C 
ATOM      6  O   UNL     1       5.043  -5.780  21.775  0.00  0.00    -0.491 OA
ATOM      7  C   UNL     1       5.098  -5.917  23.156  0.00  0.00    +0.124 A 
ATOM      8  C   UNL     1       4.124  -6.651  23.803  0.00  0.00    +0.046 A 
ATOM      9  C   UNL     1       4.240  -6.739  25.168  0.00  0.00    +0.007 A 
ATOM     10  C   UNL     1       5.331  -6.090  25.723  0.00  0.00    -0.043 A 
ATOM     11  C   UNL     1       5.577  -6.129  27.204  0.00  0.00    +0.036 C 
ATOM     12  C   UNL     1       6.759  -5.150  27.414  0.00  0.00    +0.013 C 
ENDROOT
BRANCH   1  13
ATOM     13  C   UNL     1       8.762  -5.450  25.796  0.00  0.00    +0.027 C 
BRANCH  13  14
ATOM     14  C   UNL     1       9.773  -4.530  25.107  0.00  0.00    +0.105 C 
BRANCH  14  16
ATOM     15  C   UNL     1       9.671  -2.317  24.022  0.00  0.00    +0.213 C 
ATOM     16  N   UNL     1       9.290  -3.163  25.039  0.00  0.00    -0.315 N 
ATOM     17  H   UNL     1       8.700  -2.818  25.785  0.00  0.00    +0.149 HD
ATOM     18  O   UNL     1      10.445  -2.646  23.130  0.00  0.00    -0.276 OA
BRANCH  15  20
ATOM     19  C   UNL     1       9.853  -0.005  24.989  0.00  0.00    +0.013 C 
ATOM     20  C   UNL     1       9.036  -0.944  24.116  0.00  0.00    +0.092 C 
ENDBRANCH  15  20
ENDBRANCH  14  16
ENDBRANCH  13  14
ENDBRANCH   1  13
TORSDOF 4
ENDMDL
MODEL 6
REMARK VINA RESULT:      -6.0      3.926      6.235
REMARK  Name = 
REMARK  5 active torsions:
REMARK  status: ('A' for Active; 'I' for Inactive)
REMARK    1  A    between atoms: C_1  and  C_2
REMARK    2  A    between atoms: C_2  and  C_3
REMARK    3  A    between atoms: N_5  and  C_6
REMARK    4  A    between atoms: C_6  and  C_7
REMARK    5  A    between atoms: C_7  and  C_8
REMARK                            x       y       z     vdW  Elec       q    Type
REMARK                         _______ _______ _______ _____ _____    ______ ____
ROOT
ATOM      1  C   UNL     1       9.602   1.474  23.575  0.00  0.00    +0.021 C 
ATOM      2  C   UNL     1       9.152   0.049  23.666  0.00  0.00    -0.034 A 
ATOM      3  C   UNL     1       8.871  -0.782  24.753  0.00  0.00    +0.001 A 
ATOM      4  C   UNL     1       8.927  -0.582  26.202  0.00  0.00    +0.080 C 
ATOM      5  C   UNL     1       8.441  -1.950  26.695  0.00  0.00    +0.234 C 
ATOM      6  O   UNL     1       8.153  -2.810  25.563  0.00  0.00    -0.491 OA
ATOM      7  C   UNL     1       8.430  -2.063  24.425  0.00  0.00    +0.124 A 
ATOM      8  C   UNL     1       8.249  -2.631  23.180  0.00  0.00    +0.046 A 
ATOM      9  C   UNL     1       8.547  -1.835  22.102  0.00  0.00    +0.007 A 
ATOM     10  C   UNL     1       8.977  -0.552  22.402  0.00  0.00    -0.043 A 
ATOM     11  C   UNL     1       9.316   0.420  21.308  0.00  0.00    +0.036 C 
ATOM     12  C   UNL     1       9.915   1.635  22.059  0.00  0.00    +0.013 C 
ENDROOT
BRANCH   1  13
ATOM     13  C   UNL     1       8.560   2.465  24.108  0.00  0.00    +0.027 C 
BRANCH  13  14
ATOM     14  C   UNL     1       8.739   3.906  23.625  0.00  0.00    +0.105 C 
BRANCH  14  16
ATOM     15  C   UNL     1      10.427   5.705  23.705  0.00  0.00    +0.213 C 
ATOM     16  N   UNL     1      10.097   4.374  23.838  0.00  0.00    -0.315 N 
ATOM     17  H   UNL     1      10.819   3.695  24.039  0.00  0.00    +0.149 HD
ATOM     18  O   UNL     1       9.616   6.567  23.385  0.00  0.00    -0.276 OA
BRANCH  15  20
ATOM     19  C   UNL     1      12.805   5.025  23.267  0.00  0.00    +0.013 C 
ATOM     20  C   UNL     1      11.886   5.991  23.995  0.00  0.00    +0.092 C 
ENDBRANCH  15  20
ENDBRANCH  14  16
ENDBRANCH  13  14
ENDBRANCH   1  13
TORSDOF 4
ENDMDL
MODEL 7
REMARK VINA RESULT:      -6.0      2.070      2.571
REMARK  Name = 
REMARK  5 active torsions:
REMARK  status: ('A' for Active; 'I' for Inactive)
REMARK    1  A    between atoms: C_1  and  C_2
REMARK    2  A    between atoms: C_2  and  C_3
REMARK    3  A    between atoms: N_5  and  C_6
REMARK    4  A    between atoms: C_6  and  C_7
REMARK    5  A    between atoms: C_7  and  C_8
REMARK                            x       y       z     vdW  Elec       q    Type
REMARK                         _______ _______ _______ _____ _____    ______ ____
ROOT
ATOM      1  C   UNL     1       7.293  -4.732  22.274  0.00  0.00    +0.021 C 
ATOM      2  C   UNL     1       7.032  -5.070  23.709  0.00  0.00    -0.034 A 
ATOM      3  C   UNL     1       7.807  -4.938  24.864  0.00  0.00    +0.001 A 
ATOM      4  C   UNL     1       9.164  -4.442  25.102  0.00  0.00    +0.080 C 
ATOM      5  C   UNL     1       9.257  -4.599  26.625  0.00  0.00    +0.234 C 
ATOM      6  O   UNL     1       8.020  -5.150  27.143  0.00  0.00    -0.491 OA
ATOM      7  C   UNL     1       7.187  -5.336  26.046  0.00  0.00    +0.124 A 
ATOM      8  C   UNL     1       5.923  -5.859  26.236  0.00  0.00    +0.046 A 
ATOM      9  C   UNL     1       5.160  -6.019  25.107  0.00  0.00    +0.007 A 
ATOM     10  C   UNL     1       5.750  -5.620  23.918  0.00  0.00    -0.043 A 
ATOM     11  C   UNL     1       5.008  -5.728  22.617  0.00  0.00    +0.036 C 
ATOM     12  C   UNL     1       6.069  -5.362  21.550  0.00  0.00    +0.013 C 
ENDROOT
BRANCH   1  13
ATOM     13  C   UNL     1       7.456  -3.227  22.035  0.00  0.00    +0.027 C 
BRANCH  13  14
ATOM     14  C   UNL     1       6.621  -2.336  22.958  0.00  0.00    +0.105 C 
BRANCH  14  16
ATOM     15  C   UNL     1       7.234  -1.313  25.118  0.00  0.00    +0.213 C 
ATOM     16  N   UNL     1       7.461  -1.473  23.769  0.00  0.00    -0.315 N 
ATOM     17  H   UNL     1       8.195  -0.944  23.316  0.00  0.00    +0.149 HD
ATOM     18  O   UNL     1       6.314  -1.862  25.712  0.00  0.00    -0.276 OA
BRANCH  15  20
ATOM     19  C   UNL     1       9.551  -0.347  25.029  0.00  0.00    +0.013 C 
ATOM     20  C   UNL     1       8.236  -0.394  25.788  0.00  0.00    +0.092 C 
ENDBRANCH  15  20
ENDBRANCH  14  16
ENDBRANCH  13  14
ENDBRANCH   1  13
TORSDOF 4
ENDMDL
MODEL 8
REMARK VINA RESULT:      -5.9      2.554      3.602
REMARK  Name = 
REMARK  5 active torsions:
REMARK  status: ('A' for Active; 'I' for Inactive)
REMARK    1  A    between atoms: C_1  and  C_2
REMARK    2  A    between atoms: C_2  and  C_3
REMARK    3  A    between atoms: N_5  and  C_6
REMARK    4  A    between atoms: C_6  and  C_7
REMARK    5  A    between atoms: C_7  and  C_8
REMARK                            x       y       z     vdW  Elec       q    Type
REMARK                         _______ _______ _______ _____ _____    ______ ____
ROOT
ATOM      1  C   UNL     1       7.365  -1.853  23.905  0.00  0.00    +0.021 C 
ATOM      2  C   UNL     1       6.264  -2.850  23.719  0.00  0.00    -0.034 A 
ATOM      3  C   UNL     1       6.121  -3.946  22.865  0.00  0.00    +0.001 A 
ATOM      4  C   UNL     1       6.978  -4.518  21.825  0.00  0.00    +0.080 C 
ATOM      5  C   UNL     1       6.125  -5.713  21.383  0.00  0.00    +0.234 C 
ATOM      6  O   UNL     1       4.894  -5.754  22.149  0.00  0.00    -0.491 OA
ATOM      7  C   UNL     1       4.942  -4.672  23.019  0.00  0.00    +0.124 A 
ATOM      8  C   UNL     1       3.888  -4.451  23.884  0.00  0.00    +0.046 A 
ATOM      9  C   UNL     1       4.003  -3.361  24.711  0.00  0.00    +0.007 A 
ATOM     10  C   UNL     1       5.172  -2.629  24.583  0.00  0.00    -0.043 A 
ATOM     11  C   UNL     1       5.423  -1.425  25.446  0.00  0.00    +0.036 C 
ATOM     12  C   UNL     1       6.721  -0.811  24.865  0.00  0.00    +0.013 C 
ENDROOT
BRANCH   1  13
ATOM     13  C   UNL     1       8.657  -2.482  24.440  0.00  0.00    +0.027 C 
BRANCH  13  14
ATOM     14  C   UNL     1       9.900  -2.221  23.585  0.00  0.00    +0.105 C 
BRANCH  14  16
ATOM     15  C   UNL     1      10.295   0.174  23.146  0.00  0.00    +0.213 C 
ATOM     16  N   UNL     1       9.745  -1.031  22.769  0.00  0.00    -0.315 N 
ATOM     17  H   UNL     1       9.178  -1.084  21.933  0.00  0.00    +0.149 HD
ATOM     18  O   UNL     1      10.925   0.327  24.186  0.00  0.00    -0.276 OA
BRANCH  15  20
ATOM     19  C   UNL     1       8.670   1.169  21.509  0.00  0.00    +0.013 C 
ATOM     20  C   UNL     1      10.043   1.286  22.147  0.00  0.00    +0.092 C 
ENDBRANCH  15  20
ENDBRANCH  14  16
ENDBRANCH  13  14
ENDBRANCH   1  13
TORSDOF 4
ENDMDL
MODEL 9
REMARK VINA RESULT:      -5.9      3.881      6.384
REMARK  Name = 
REMARK  5 active torsions:
REMARK  status: ('A' for Active; 'I' for Inactive)
REMARK    1  A    between atoms: C_1  and  C_2
REMARK    2  A    between atoms: C_2  and  C_3
REMARK    3  A    between atoms: N_5  and  C_6
REMARK    4  A    between atoms: C_6  and  C_7
REMARK    5  A    between atoms: C_7  and  C_8
REMARK                            x       y       z     vdW  Elec       q    Type
REMARK                         _______ _______ _______ _____ _____    ______ ____
ROOT
ATOM      1  C   UNL     1       9.411   2.203  23.679  0.00  0.00    +0.021 C 
ATOM      2  C   UNL     1       8.611   1.357  24.619  0.00  0.00    -0.034 A 
ATOM      3  C   UNL     1       7.260   1.363  24.974  0.00  0.00    +0.001 A 
ATOM      4  C   UNL     1       6.129   2.203  24.577  0.00  0.00    +0.080 C 
ATOM      5  C   UNL     1       4.997   1.550  25.380  0.00  0.00    +0.234 C 
ATOM      6  O   UNL     1       5.516   0.437  26.152  0.00  0.00    -0.491 OA
ATOM      7  C   UNL     1       6.876   0.371  25.874  0.00  0.00    +0.124 A 
ATOM      8  C   UNL     1       7.644  -0.605  26.478  0.00  0.00    +0.046 A 
ATOM      9  C   UNL     1       8.980  -0.606  26.159  0.00  0.00    +0.007 A 
ATOM     10  C   UNL     1       9.384   0.365  25.258  0.00  0.00    -0.043 A 
ATOM     11  C   UNL     1      10.818   0.454  24.816  0.00  0.00    +0.036 C 
ATOM     12  C   UNL     1      10.871   1.755  23.978  0.00  0.00    +0.013 C 
ENDROOT
BRANCH   1  13
ATOM     13  C   UNL     1       8.990   2.029  22.214  0.00  0.00    +0.027 C 
BRANCH  13  14
ATOM     14  C   UNL     1       9.503   0.751  21.546  0.00  0.00    +0.105 C 
BRANCH  14  16
ATOM     15  C   UNL     1       9.189  -1.615  22.168  0.00  0.00    +0.213 C 
ATOM     16  N   UNL     1       8.655  -0.386  21.850  0.00  0.00    -0.315 N 
ATOM     17  H   UNL     1       7.652  -0.278  21.777  0.00  0.00    +0.149 HD
ATOM     18  O   UNL     1      10.395  -1.835  22.197  0.00  0.00    -0.276 OA
BRANCH  15  20
ATOM     19  C   UNL     1       6.856  -2.036  22.999  0.00  0.00    +0.013 C 
ATOM     20  C   UNL     1       8.138  -2.662  22.478  0.00  0.00    +0.092 C 
ENDBRANCH  15  20
ENDBRANCH  14  16
ENDBRANCH  13  14
ENDBRANCH   1  13
TORSDOF 4
ENDMDL
