MODEL 1
REMARK VINA RESULT:      -7.7      0.000      0.000
REMARK  Name = 
REMARK  8 active torsions:
REMARK  status: ('A' for Active; 'I' for Inactive)
REMARK    1  A    between atoms: C_1  and  C_2
REMARK    2  A    between atoms: C_2  and  C_3
REMARK    3  A    between atoms: C_15  and  O_16
REMARK    4  A    between atoms: C_15  and  C_17
REMARK    5  A    between atoms: C_17  and  C_18
REMARK    6  A    between atoms: C_26  and  O_27
REMARK    7  A    between atoms: O_27  and  C_28
REMARK    8  A    between atoms: C_33  and  N_36
REMARK                            x       y       z     vdW  Elec       q    Type
REMARK                         _______ _______ _______ _____ _____    ______ ____
ROOT
ATOM      1  C   UNL     1       6.452  -4.168  23.355  0.00  0.00    -0.031 A 
ATOM      2  C   UNL     1       7.275  -3.259  24.054  0.00  0.00    +0.007 A 
ATOM      3  C   UNL     1       8.121  -2.363  23.374  0.00  0.00    +0.056 A 
ATOM      4  C   UNL     1       9.061  -1.591  24.048  0.00  0.00    +0.134 A 
ATOM      5  C   UNL     1       9.076  -1.605  25.437  0.00  0.00    +0.048 A 
ATOM      6  C   UNL     1       8.171  -2.431  26.133  0.00  0.00    +0.032 A 
ATOM      7  C   UNL     1       7.265  -3.269  25.483  0.00  0.00    +0.072 A 
ATOM      8  N   UNL     1       6.430  -4.054  26.208  0.00  0.00    -0.245 NA
ATOM      9  C   UNL     1       5.610  -4.853  25.504  0.00  0.00    +0.093 A 
ATOM     10  C   UNL     1       4.549  -5.741  26.010  0.00  0.00    +0.071 A 
ATOM     11  C   UNL     1       4.129  -6.037  27.247  0.00  0.00    +0.035 A 
ATOM     12  C   UNL     1       2.951  -6.904  27.421  0.00  0.00    +0.008 A 
ATOM     13  C   UNL     1       2.381  -7.149  28.796  0.00  0.00    +0.188 C 
ATOM     14  C   UNL     1       1.046  -7.959  28.822  0.00  0.00    +0.344 C 
ATOM     15  O   UNL     1       0.443  -8.181  29.872  0.00  0.00    -0.247 OA
ATOM     16  O   UNL     1       0.567  -8.479  27.675  0.00  0.00    -0.457 OA
ATOM     17  C   UNL     1       1.187  -8.355  26.386  0.00  0.00    +0.273 C 
ATOM     18  C   UNL     1       2.376  -7.472  26.346  0.00  0.00    +0.061 A 
ATOM     19  C   UNL     1       2.903  -7.219  24.976  0.00  0.00    +0.259 A 
ATOM     20  O   UNL     1       2.412  -7.760  23.994  0.00  0.00    -0.267 OA
ATOM     21  N   UNL     1       3.938  -6.326  24.916  0.00  0.00    -0.302 N 
ATOM     22  C   UNL     1       4.546  -5.905  23.664  0.00  0.00    +0.163 C 
ATOM     23  C   UNL     1       5.585  -4.939  24.113  0.00  0.00    +0.003 A 
ENDROOT
BRANCH   1  25
ATOM     24  C   UNL     1       7.194  -5.656  21.452  0.00  0.00    +0.009 C 
ATOM     25  C   UNL     1       6.505  -4.364  21.857  0.00  0.00    +0.033 C 
ENDBRANCH   1  25
BRANCH  13  26
ATOM     26  O   UNL     1       3.380  -7.892  29.520  0.00  0.00    -0.373 OA
ATOM     27  H   UNL     1       3.933  -7.254  30.006  0.00  0.00    +0.211 HD
ENDBRANCH  13  26
BRANCH  13  28
ATOM     28  C   UNL     1       2.137  -5.850  29.609  0.00  0.00    +0.048 C 
ATOM     29  C   UNL     1       1.131  -4.879  29.002  0.00  0.00    +0.007 C 
ENDBRANCH  13  28
BRANCH   4  30
ATOM     30  O   UNL     1       9.986  -0.767  23.361  0.00  0.00    -0.411 OA
BRANCH  30  31
ATOM     31  C   UNL     1       9.504   0.092  22.354  0.00  0.00    +0.408 C 
ATOM     32  N   UNL     1       9.077   1.345  22.815  0.00  0.00    -0.267 N 
ATOM     33  C   UNL     1       8.247   2.104  21.882  0.00  0.00    +0.112 C 
ATOM     34  C   UNL     1       8.129   3.583  22.235  0.00  0.00    +0.038 C 
ATOM     35  C   UNL     1       7.624   3.781  23.681  0.00  0.00    +0.060 C 
ATOM     36  C   UNL     1       8.693   3.091  24.565  0.00  0.00    +0.038 C 
ATOM     37  C   UNL     1       8.904   1.611  24.239  0.00  0.00    +0.112 C 
ATOM     38  O   UNL     1       9.443  -0.215  21.165  0.00  0.00    -0.226 OA
BRANCH  35  39
ATOM     39  N   UNL     1       6.233   3.285  23.845  0.00  0.00    -0.299 NA
ATOM     40  C   UNL     1       5.252   3.925  22.942  0.00  0.00    +0.084 C 
ATOM     41  C   UNL     1       4.868   5.356  23.332  0.00  0.00    +0.015 C 
ATOM     42  C   UNL     1       4.406   5.456  24.781  0.00  0.00    +0.002 C 
ATOM     43  C   UNL     1       5.317   4.692  25.735  0.00  0.00    +0.015 C 
ATOM     44  C   UNL     1       5.692   3.304  25.211  0.00  0.00    +0.084 C 
ENDBRANCH  35  39
ENDBRANCH  30  31
ENDBRANCH   4  30
TORSDOF 6
ENDMDL
MODEL 2
REMARK VINA RESULT:      -6.3      2.260      3.635
REMARK  Name = 
REMARK  8 active torsions:
REMARK  status: ('A' for Active; 'I' for Inactive)
REMARK    1  A    between atoms: C_1  and  C_2
REMARK    2  A    between atoms: C_2  and  C_3
REMARK    3  A    between atoms: C_15  and  O_16
REMARK    4  A    between atoms: C_15  and  C_17
REMARK    5  A    between atoms: C_17  and  C_18
REMARK    6  A    between atoms: C_26  and  O_27
REMARK    7  A    between atoms: O_27  and  C_28
REMARK    8  A    between atoms: C_33  and  N_36
REMARK                            x       y       z     vdW  Elec       q    Type
REMARK                         _______ _______ _______ _____ _____    ______ ____
ROOT
ATOM      1  C   UNL     1       7.705  -1.007  23.817  0.00  0.00    -0.031 A 
ATOM      2  C   UNL     1       7.492   0.093  24.675  0.00  0.00    +0.007 A 
ATOM      3  C   UNL     1       8.070   1.350  24.415  0.00  0.00    +0.056 A 
ATOM      4  C   UNL     1       8.012   2.386  25.341  0.00  0.00    +0.134 A 
ATOM      5  C   UNL     1       7.255   2.223  26.493  0.00  0.00    +0.048 A 
ATOM      6  C   UNL     1       6.596   0.999  26.722  0.00  0.00    +0.032 A 
ATOM      7  C   UNL     1       6.692  -0.084  25.846  0.00  0.00    +0.072 A 
ATOM      8  N   UNL     1       6.048  -1.242  26.130  0.00  0.00    -0.245 NA
ATOM      9  C   UNL     1       6.218  -2.243  25.250  0.00  0.00    +0.093 A 
ATOM     10  C   UNL     1       5.582  -3.572  25.250  0.00  0.00    +0.071 A 
ATOM     11  C   UNL     1       4.728  -4.169  26.091  0.00  0.00    +0.035 A 
ATOM     12  C   UNL     1       4.186  -5.495  25.751  0.00  0.00    +0.008 A 
ATOM     13  C   UNL     1       3.127  -6.132  26.617  0.00  0.00    +0.188 C 
ATOM     14  C   UNL     1       2.532  -7.464  26.059  0.00  0.00    +0.344 C 
ATOM     15  O   UNL     1       1.621  -8.058  26.636  0.00  0.00    -0.247 OA
ATOM     16  O   UNL     1       3.065  -8.011  24.950  0.00  0.00    -0.457 OA
ATOM     17  C   UNL     1       4.165  -7.468  24.204  0.00  0.00    +0.273 C 
ATOM     18  C   UNL     1       4.633  -6.138  24.657  0.00  0.00    +0.061 A 
ATOM     19  C   UNL     1       5.656  -5.516  23.771  0.00  0.00    +0.259 A 
ATOM     20  O   UNL     1       6.097  -6.106  22.795  0.00  0.00    -0.267 OA
ATOM     21  N   UNL     1       6.022  -4.245  24.124  0.00  0.00    -0.302 N 
ATOM     22  C   UNL     1       6.961  -3.450  23.348  0.00  0.00    +0.163 C 
ATOM     23  C   UNL     1       7.014  -2.172  24.108  0.00  0.00    +0.003 A 
ENDROOT
BRANCH   1  25
ATOM     24  C   UNL     1      10.044  -1.512  23.004  0.00  0.00    +0.009 C 
ATOM     25  C   UNL     1       8.664  -0.983  22.649  0.00  0.00    +0.033 C 
ENDBRANCH   1  25
BRANCH  13  26
ATOM     26  O   UNL     1       3.753  -6.406  27.884  0.00  0.00    -0.373 OA
ATOM     27  H   UNL     1       4.678  -6.106  27.830  0.00  0.00    +0.211 HD
ENDBRANCH  13  26
BRANCH  13  28
ATOM     28  C   UNL     1       1.928  -5.195  26.922  0.00  0.00    +0.048 C 
ATOM     29  C   UNL     1       1.124  -4.746  25.707  0.00  0.00    +0.007 C 
ENDBRANCH  13  28
BRANCH   4  30
ATOM     30  O   UNL     1       8.682   3.617  25.130  0.00  0.00    -0.411 OA
BRANCH  30  31
ATOM     31  C   UNL     1       8.565   4.241  23.872  0.00  0.00    +0.408 C 
ATOM     32  N   UNL     1       7.530   5.181  23.784  0.00  0.00    -0.267 N 
ATOM     33  C   UNL     1       7.150   5.566  22.426  0.00  0.00    +0.112 C 
ATOM     34  C   UNL     1       6.322   6.845  22.365  0.00  0.00    +0.038 C 
ATOM     35  C   UNL     1       5.069   6.752  23.264  0.00  0.00    +0.060 C 
ATOM     36  C   UNL     1       5.630   6.533  24.691  0.00  0.00    +0.038 C 
ATOM     37  C   UNL     1       6.513   5.290  24.824  0.00  0.00    +0.112 C 
ATOM     38  O   UNL     1       9.292   3.987  22.914  0.00  0.00    -0.226 OA
BRANCH  35  39
ATOM     39  N   UNL     1       4.123   5.717  22.775  0.00  0.00    -0.299 NA
ATOM     40  C   UNL     1       3.248   6.168  21.673  0.00  0.00    +0.084 C 
ATOM     41  C   UNL     1       2.116   7.107  22.102  0.00  0.00    +0.015 C 
ATOM     42  C   UNL     1       1.285   6.528  23.241  0.00  0.00    +0.002 C 
ATOM     43  C   UNL     1       2.150   5.925  24.343  0.00  0.00    +0.015 C 
ATOM     44  C   UNL     1       3.290   5.064  23.795  0.00  0.00    +0.084 C 
ENDBRANCH  35  39
ENDBRANCH  30  31
ENDBRANCH   4  30
TORSDOF 6
ENDMDL
MODEL 3
REMARK VINA RESULT:      -6.2      3.565     10.079
REMARK  Name = 
REMARK  8 active torsions:
REMARK  status: ('A' for Active; 'I' for Inactive)
REMARK    1  A    between atoms: C_1  and  C_2
REMARK    2  A    between atoms: C_2  and  C_3
REMARK    3  A    between atoms: C_15  and  O_16
REMARK    4  A    between atoms: C_15  and  C_17
REMARK    5  A    between atoms: C_17  and  C_18
REMARK    6  A    between atoms: C_26  and  O_27
REMARK    7  A    between atoms: O_27  and  C_28
REMARK    8  A    between atoms: C_33  and  N_36
REMARK                            x       y       z     vdW  Elec       q    Type
REMARK                         _______ _______ _______ _____ _____    ______ ____
ROOT
ATOM      1  C   UNL     1       8.481   0.237  24.474  0.00  0.00    -0.031 A 
ATOM      2  C   UNL     1       7.990  -1.014  24.043  0.00  0.00    +0.007 A 
ATOM      3  C   UNL     1       8.642  -2.214  24.381  0.00  0.00    +0.056 A 
ATOM      4  C   UNL     1       8.270  -3.431  23.818  0.00  0.00    +0.134 A 
ATOM      5  C   UNL     1       7.144  -3.485  23.007  0.00  0.00    +0.048 A 
ATOM      6  C   UNL     1       6.427  -2.303  22.735  0.00  0.00    +0.032 A 
ATOM      7  C   UNL     1       6.817  -1.056  23.227  0.00  0.00    +0.072 A 
ATOM      8  N   UNL     1       6.096   0.049  22.916  0.00  0.00    -0.245 NA
ATOM      9  C   UNL     1       6.557   1.212  23.406  0.00  0.00    +0.093 A 
ATOM     10  C   UNL     1       5.943   2.548  23.306  0.00  0.00    +0.071 A 
ATOM     11  C   UNL     1       4.833   2.993  22.704  0.00  0.00    +0.035 A 
ATOM     12  C   UNL     1       4.430   4.398  22.879  0.00  0.00    +0.008 A 
ATOM     13  C   UNL     1       3.119   4.892  22.317  0.00  0.00    +0.188 C 
ATOM     14  C   UNL     1       2.745   6.358  22.706  0.00  0.00    +0.344 C 
ATOM     15  O   UNL     1       1.678   6.866  22.363  0.00  0.00    -0.247 OA
ATOM     16  O   UNL     1       3.635   7.108  23.384  0.00  0.00    -0.457 OA
ATOM     17  C   UNL     1       4.939   6.674  23.800  0.00  0.00    +0.273 C 
ATOM     18  C   UNL     1       5.232   5.244  23.551  0.00  0.00    +0.061 A 
ATOM     19  C   UNL     1       6.516   4.771  24.139  0.00  0.00    +0.259 A 
ATOM     20  O   UNL     1       7.271   5.539  24.720  0.00  0.00    -0.267 OA
ATOM     21  N   UNL     1       6.750   3.430  24.002  0.00  0.00    -0.302 N 
ATOM     22  C   UNL     1       7.919   2.771  24.563  0.00  0.00    +0.163 C 
ATOM     23  C   UNL     1       7.713   1.350  24.171  0.00  0.00    +0.003 A 
ENDROOT
BRANCH   1  25
ATOM     24  C   UNL     1      10.945   0.754  24.256  0.00  0.00    +0.009 C 
ATOM     25  C   UNL     1       9.798   0.416  25.193  0.00  0.00    +0.033 C 
ENDBRANCH   1  25
BRANCH  13  26
ATOM     26  O   UNL     1       3.240   4.815  20.885  0.00  0.00    -0.373 OA
ATOM     27  H   UNL     1       2.405   4.460  20.533  0.00  0.00    +0.211 HD
ENDBRANCH  13  26
BRANCH  13  28
ATOM     28  C   UNL     1       1.906   4.001  22.696  0.00  0.00    +0.048 C 
ATOM     29  C   UNL     1       1.215   3.308  21.527  0.00  0.00    +0.007 C 
ENDBRANCH  13  28
BRANCH   4  30
ATOM     30  O   UNL     1       8.990  -4.624  24.072  0.00  0.00    -0.411 OA
BRANCH  30  31
ATOM     31  C   UNL     1       9.080  -5.087  25.399  0.00  0.00    +0.408 C 
ATOM     32  N   UNL     1       7.867  -5.525  25.946  0.00  0.00    -0.267 N 
ATOM     33  C   UNL     1       7.849  -5.659  27.401  0.00  0.00    +0.112 C 
ATOM     34  C   UNL     1       6.683  -6.492  27.923  0.00  0.00    +0.038 C 
ATOM     35  C   UNL     1       5.328  -5.945  27.421  0.00  0.00    +0.060 C 
ATOM     36  C   UNL     1       5.419  -6.039  25.877  0.00  0.00    +0.038 C 
ATOM     37  C   UNL     1       6.596  -5.265  25.279  0.00  0.00    +0.112 C 
ATOM     38  O   UNL     1      10.125  -5.103  26.048  0.00  0.00    -0.226 OA
BRANCH  35  39
ATOM     39  N   UNL     1       5.048  -4.594  27.970  0.00  0.00    -0.299 NA
ATOM     40  C   UNL     1       4.888  -4.560  29.440  0.00  0.00    +0.084 C 
ATOM     41  C   UNL     1       3.557  -5.125  29.948  0.00  0.00    +0.015 C 
ATOM     42  C   UNL     1       2.357  -4.482  29.264  0.00  0.00    +0.002 C 
ATOM     43  C   UNL     1       2.539  -4.371  27.754  0.00  0.00    +0.015 C 
ATOM     44  C   UNL     1       3.928  -3.863  27.362  0.00  0.00    +0.084 C 
ENDBRANCH  35  39
ENDBRANCH  30  31
ENDBRANCH   4  30
TORSDOF 6
ENDMDL
MODEL 4
REMARK VINA RESULT:      -5.8      3.402      5.468
REMARK  Name = 
REMARK  8 active torsions:
REMARK  status: ('A' for Active; 'I' for Inactive)
REMARK    1  A    between atoms: C_1  and  C_2
REMARK    2  A    between atoms: C_2  and  C_3
REMARK    3  A    between atoms: C_15  and  O_16
REMARK    4  A    between atoms: C_15  and  C_17
REMARK    5  A    between atoms: C_17  and  C_18
REMARK    6  A    between atoms: C_26  and  O_27
REMARK    7  A    between atoms: O_27  and  C_28
REMARK    8  A    between atoms: C_33  and  N_36
REMARK                            x       y       z     vdW  Elec       q    Type
REMARK                         _______ _______ _______ _____ _____    ______ ____
ROOT
ATOM      1  C   UNL     1       6.407   0.193  26.854  0.00  0.00    -0.031 A 
ATOM      2  C   UNL     1       5.603   0.765  27.864  0.00  0.00    +0.007 A 
ATOM      3  C   UNL     1       5.747   2.113  28.239  0.00  0.00    +0.056 A 
ATOM      4  C   UNL     1       5.087   2.637  29.347  0.00  0.00    +0.134 A 
ATOM      5  C   UNL     1       4.162   1.848  30.019  0.00  0.00    +0.048 A 
ATOM      6  C   UNL     1       3.942   0.523  29.594  0.00  0.00    +0.032 A 
ATOM      7  C   UNL     1       4.640  -0.053  28.531  0.00  0.00    +0.072 A 
ATOM      8  N   UNL     1       4.396  -1.340  28.181  0.00  0.00    -0.245 NA
ATOM      9  C   UNL     1       5.133  -1.825  27.167  0.00  0.00    +0.093 A 
ATOM     10  C   UNL     1       5.031  -3.144  26.519  0.00  0.00    +0.071 A 
ATOM     11  C   UNL     1       4.254  -4.210  26.749  0.00  0.00    +0.035 A 
ATOM     12  C   UNL     1       4.325  -5.366  25.840  0.00  0.00    +0.008 A 
ATOM     13  C   UNL     1       3.371  -6.524  26.002  0.00  0.00    +0.188 C 
ATOM     14  C   UNL     1       3.453  -7.609  24.881  0.00  0.00    +0.344 C 
ATOM     15  O   UNL     1       2.693  -8.577  24.860  0.00  0.00    -0.247 OA
ATOM     16  O   UNL     1       4.416  -7.517  23.944  0.00  0.00    -0.457 OA
ATOM     17  C   UNL     1       5.408  -6.481  23.873  0.00  0.00    +0.273 C 
ATOM     18  C   UNL     1       5.239  -5.385  24.854  0.00  0.00    +0.061 A 
ATOM     19  C   UNL     1       6.170  -4.239  24.656  0.00  0.00    +0.259 A 
ATOM     20  O   UNL     1       7.031  -4.261  23.787  0.00  0.00    -0.267 OA
ATOM     21  N   UNL     1       5.959  -3.177  25.493  0.00  0.00    -0.302 N 
ATOM     22  C   UNL     1       6.725  -1.944  25.413  0.00  0.00    +0.163 C 
ATOM     23  C   UNL     1       6.122  -1.113  26.491  0.00  0.00    +0.003 A 
ENDROOT
BRANCH   1  25
ATOM     24  C   UNL     1       7.170   1.655  24.939  0.00  0.00    +0.009 C 
ATOM     25  C   UNL     1       7.567   0.910  26.202  0.00  0.00    +0.033 C 
ENDBRANCH   1  25
BRANCH  13  26
ATOM     26  O   UNL     1       3.698  -7.142  27.261  0.00  0.00    -0.373 OA
ATOM     27  H   UNL     1       4.081  -8.017  27.074  0.00  0.00    +0.211 HD
ENDBRANCH  13  26
BRANCH  13  28
ATOM     28  C   UNL     1       1.883  -6.095  26.107  0.00  0.00    +0.048 C 
ATOM     29  C   UNL     1       1.340  -5.324  24.909  0.00  0.00    +0.007 C 
ENDBRANCH  13  28
BRANCH   4  30
ATOM     30  O   UNL     1       5.309   3.963  29.793  0.00  0.00    -0.411 OA
BRANCH  30  31
ATOM     31  C   UNL     1       6.493   4.617  29.399  0.00  0.00    +0.408 C 
ATOM     32  N   UNL     1       6.360   5.423  28.261  0.00  0.00    -0.267 N 
ATOM     33  C   UNL     1       7.615   5.812  27.621  0.00  0.00    +0.112 C 
ATOM     34  C   UNL     1       7.468   6.979  26.651  0.00  0.00    +0.038 C 
ATOM     35  C   UNL     1       6.390   6.695  25.582  0.00  0.00    +0.060 C 
ATOM     36  C   UNL     1       5.085   6.490  26.392  0.00  0.00    +0.038 C 
ATOM     37  C   UNL     1       5.167   5.363  27.423  0.00  0.00    +0.112 C 
ATOM     38  O   UNL     1       7.568   4.494  29.983  0.00  0.00    -0.226 OA
BRANCH  35  39
ATOM     39  N   UNL     1       6.783   5.570  24.696  0.00  0.00    -0.299 NA
ATOM     40  C   UNL     1       8.132   5.707  24.107  0.00  0.00    +0.084 C 
ATOM     41  C   UNL     1       8.230   6.733  22.973  0.00  0.00    +0.015 C 
ATOM     42  C   UNL     1       7.193   6.491  21.883  0.00  0.00    +0.002 C 
ATOM     43  C   UNL     1       5.807   6.208  22.452  0.00  0.00    +0.015 C 
ATOM     44  C   UNL     1       5.839   5.224  23.624  0.00  0.00    +0.084 C 
ENDBRANCH  35  39
ENDBRANCH  30  31
ENDBRANCH   4  30
TORSDOF 6
ENDMDL
MODEL 5
REMARK VINA RESULT:      -5.6      3.949     10.130
REMARK  Name = 
REMARK  8 active torsions:
REMARK  status: ('A' for Active; 'I' for Inactive)
REMARK    1  A    between atoms: C_1  and  C_2
REMARK    2  A    between atoms: C_2  and  C_3
REMARK    3  A    between atoms: C_15  and  O_16
REMARK    4  A    between atoms: C_15  and  C_17
REMARK    5  A    between atoms: C_17  and  C_18
REMARK    6  A    between atoms: C_26  and  O_27
REMARK    7  A    between atoms: O_27  and  C_28
REMARK    8  A    between atoms: C_33  and  N_36
REMARK                            x       y       z     vdW  Elec       q    Type
REMARK                         _______ _______ _______ _____ _____    ______ ____
ROOT
ATOM      1  C   UNL     1       5.906   0.555  25.899  0.00  0.00    -0.031 A 
ATOM      2  C   UNL     1       6.672  -0.181  24.971  0.00  0.00    +0.007 A 
ATOM      3  C   UNL     1       7.374  -1.339  25.353  0.00  0.00    +0.056 A 
ATOM      4  C   UNL     1       8.269  -1.968  24.494  0.00  0.00    +0.134 A 
ATOM      5  C   UNL     1       8.375  -1.522  23.183  0.00  0.00    +0.048 A 
ATOM      6  C   UNL     1       7.608  -0.418  22.761  0.00  0.00    +0.032 A 
ATOM      7  C   UNL     1       6.755   0.277  23.619  0.00  0.00    +0.072 A 
ATOM      8  N   UNL     1       6.055   1.344  23.159  0.00  0.00    -0.245 NA
ATOM      9  C   UNL     1       5.281   1.974  24.058  0.00  0.00    +0.093 A 
ATOM     10  C   UNL     1       4.353   3.097  23.832  0.00  0.00    +0.071 A 
ATOM     11  C   UNL     1       4.046   3.814  22.743  0.00  0.00    +0.035 A 
ATOM     12  C   UNL     1       2.980   4.825  22.822  0.00  0.00    +0.008 A 
ATOM     13  C   UNL     1       2.528   5.556  21.581  0.00  0.00    +0.188 C 
ATOM     14  C   UNL     1       1.289   6.487  21.777  0.00  0.00    +0.344 C 
ATOM     15  O   UNL     1       0.782   7.097  20.836  0.00  0.00    -0.247 OA
ATOM     16  O   UNL     1       0.796   6.675  23.016  0.00  0.00    -0.457 OA
ATOM     17  C   UNL     1       1.315   6.080  24.215  0.00  0.00    +0.273 C 
ATOM     18  C   UNL     1       2.400   5.094  24.005  0.00  0.00    +0.061 A 
ATOM     19  C   UNL     1       2.808   4.364  25.237  0.00  0.00    +0.259 A 
ATOM     20  O   UNL     1       2.315   4.625  26.326  0.00  0.00    -0.267 OA
ATOM     21  N   UNL     1       3.738   3.379  25.038  0.00  0.00    -0.302 N 
ATOM     22  C   UNL     1       4.217   2.517  26.107  0.00  0.00    +0.163 C 
ATOM     23  C   UNL     1       5.176   1.623  25.403  0.00  0.00    +0.003 A 
ENDROOT
BRANCH   1  25
ATOM     24  C   UNL     1       6.939   1.038  28.155  0.00  0.00    +0.009 C 
ATOM     25  C   UNL     1       5.883   0.265  27.383  0.00  0.00    +0.033 C 
ENDBRANCH   1  25
BRANCH  13  26
ATOM     26  O   UNL     1       3.644   6.362  21.159  0.00  0.00    -0.373 OA
ATOM     27  H   UNL     1       3.792   6.195  20.212  0.00  0.00    +0.211 HD
ENDBRANCH  13  26
BRANCH  13  28
ATOM     28  C   UNL     1       2.201   4.616  20.390  0.00  0.00    +0.048 C 
ATOM     29  C   UNL     1       1.091   3.603  20.643  0.00  0.00    +0.007 C 
ENDBRANCH  13  28
BRANCH   4  30
ATOM     30  O   UNL     1       9.056  -3.070  24.908  0.00  0.00    -0.411 OA
BRANCH  30  31
ATOM     31  C   UNL     1       8.567  -3.899  25.937  0.00  0.00    +0.408 C 
ATOM     32  N   UNL     1       7.462  -4.682  25.576  0.00  0.00    -0.267 N 
ATOM     33  C   UNL     1       6.715  -5.261  26.691  0.00  0.00    +0.112 C 
ATOM     34  C   UNL     1       5.787  -6.397  26.279  0.00  0.00    +0.038 C 
ATOM     35  C   UNL     1       4.818  -5.958  25.158  0.00  0.00    +0.060 C 
ATOM     36  C   UNL     1       5.741  -5.552  23.983  0.00  0.00    +0.038 C 
ATOM     37  C   UNL     1       6.738  -4.445  24.332  0.00  0.00    +0.112 C 
ATOM     38  O   UNL     1       9.046  -3.939  27.069  0.00  0.00    -0.226 OA
BRANCH  35  39
ATOM     39  N   UNL     1       3.877  -4.910  25.631  0.00  0.00    -0.299 NA
ATOM     40  C   UNL     1       2.950  -5.363  26.691  0.00  0.00    +0.084 C 
ATOM     41  C   UNL     1       1.815  -6.267  26.200  0.00  0.00    +0.015 C 
ATOM     42  C   UNL     1       1.042  -5.647  25.042  0.00  0.00    +0.002 C 
ATOM     43  C   UNL     1       1.961  -5.043  23.986  0.00  0.00    +0.015 C 
ATOM     44  C   UNL     1       3.098  -4.219  24.594  0.00  0.00    +0.084 C 
ENDBRANCH  35  39
ENDBRANCH  30  31
ENDBRANCH   4  30
TORSDOF 6
ENDMDL
MODEL 6
REMARK VINA RESULT:      -5.4      2.958     10.308
REMARK  Name = 
REMARK  8 active torsions:
REMARK  status: ('A' for Active; 'I' for Inactive)
REMARK    1  A    between atoms: C_1  and  C_2
REMARK    2  A    between atoms: C_2  and  C_3
REMARK    3  A    between atoms: C_15  and  O_16
REMARK    4  A    between atoms: C_15  and  C_17
REMARK    5  A    between atoms: C_17  and  C_18
REMARK    6  A    between atoms: C_26  and  O_27
REMARK    7  A    between atoms: O_27  and  C_28
REMARK    8  A    between atoms: C_33  and  N_36
REMARK                            x       y       z     vdW  Elec       q    Type
REMARK                         _______ _______ _______ _____ _____    ______ ____
ROOT
ATOM      1  C   UNL     1       5.324  -1.790  27.421  0.00  0.00    -0.031 A 
ATOM      2  C   UNL     1       6.237  -2.830  27.143  0.00  0.00    +0.007 A 
ATOM      3  C   UNL     1       6.056  -4.124  27.666  0.00  0.00    +0.056 A 
ATOM      4  C   UNL     1       7.036  -5.104  27.545  0.00  0.00    +0.134 A 
ATOM      5  C   UNL     1       8.163  -4.843  26.776  0.00  0.00    +0.048 A 
ATOM      6  C   UNL     1       8.312  -3.579  26.170  0.00  0.00    +0.032 A 
ATOM      7  C   UNL     1       7.380  -2.553  26.331  0.00  0.00    +0.072 A 
ATOM      8  N   UNL     1       7.588  -1.352  25.737  0.00  0.00    -0.245 NA
ATOM      9  C   UNL     1       6.658  -0.410  25.968  0.00  0.00    +0.093 A 
ATOM     10  C   UNL     1       6.573   0.944  25.394  0.00  0.00    +0.071 A 
ATOM     11  C   UNL     1       7.363   1.625  24.554  0.00  0.00    +0.035 A 
ATOM     12  C   UNL     1       6.941   2.953  24.080  0.00  0.00    +0.008 A 
ATOM     13  C   UNL     1       7.750   3.684  23.036  0.00  0.00    +0.188 C 
ATOM     14  C   UNL     1       7.109   5.008  22.513  0.00  0.00    +0.344 C 
ATOM     15  O   UNL     1       7.634   5.674  21.621  0.00  0.00    -0.247 OA
ATOM     16  O   UNL     1       5.983   5.469  23.091  0.00  0.00    -0.457 OA
ATOM     17  C   UNL     1       5.289   4.837  24.177  0.00  0.00    +0.273 C 
ATOM     18  C   UNL     1       5.823   3.514  24.575  0.00  0.00    +0.061 A 
ATOM     19  C   UNL     1       4.993   2.798  25.583  0.00  0.00    +0.259 A 
ATOM     20  O   UNL     1       3.994   3.313  26.069  0.00  0.00    -0.267 OA
ATOM     21  N   UNL     1       5.421   1.533  25.884  0.00  0.00    -0.302 N 
ATOM     22  C   UNL     1       4.709   0.655  26.800  0.00  0.00    +0.163 C 
ATOM     23  C   UNL     1       5.538  -0.580  26.780  0.00  0.00    +0.003 A 
ENDROOT
BRANCH   1  25
ATOM     24  C   UNL     1       2.863  -2.279  27.728  0.00  0.00    +0.009 C 
ATOM     25  C   UNL     1       4.179  -1.921  28.399  0.00  0.00    +0.033 C 
ENDBRANCH   1  25
BRANCH  13  26
ATOM     26  O   UNL     1       9.012   3.998  23.653  0.00  0.00    -0.373 OA
ATOM     27  H   UNL     1       9.719   3.646  23.083  0.00  0.00    +0.211 HD
ENDBRANCH  13  26
BRANCH  13  28
ATOM     28  C   UNL     1       8.082   2.820  21.790  0.00  0.00    +0.048 C 
ATOM     29  C   UNL     1       9.375   2.017  21.877  0.00  0.00    +0.007 C 
ENDBRANCH  13  28
BRANCH   4  30
ATOM     30  O   UNL     1       6.906  -6.373  28.161  0.00  0.00    -0.411 OA
BRANCH  30  31
ATOM     31  C   UNL     1       5.660  -6.729  28.714  0.00  0.00    +0.408 C 
ATOM     32  N   UNL     1       4.688  -7.088  27.772  0.00  0.00    -0.267 N 
ATOM     33  C   UNL     1       3.313  -7.103  28.267  0.00  0.00    +0.112 C 
ATOM     34  C   UNL     1       2.346  -7.859  27.362  0.00  0.00    +0.038 C 
ATOM     35  C   UNL     1       2.386  -7.319  25.915  0.00  0.00    +0.060 C 
ATOM     36  C   UNL     1       3.850  -7.539  25.458  0.00  0.00    +0.038 C 
ATOM     37  C   UNL     1       4.886  -6.849  26.346  0.00  0.00    +0.112 C 
ATOM     38  O   UNL     1       5.420  -6.720  29.920  0.00  0.00    -0.226 OA
BRANCH  35  39
ATOM     39  N   UNL     1       1.891  -5.920  25.842  0.00  0.00    -0.299 NA
ATOM     40  C   UNL     1       0.529  -5.789  25.282  0.00  0.00    +0.084 C 
ATOM     41  C   UNL     1       0.444  -5.978  23.764  0.00  0.00    +0.015 C 
ATOM     42  C   UNL     1       1.419  -5.079  23.013  0.00  0.00    +0.002 C 
ATOM     43  C   UNL     1       2.809  -5.077  23.642  0.00  0.00    +0.015 C 
ATOM     44  C   UNL     1       2.768  -4.953  25.166  0.00  0.00    +0.084 C 
ENDBRANCH  35  39
ENDBRANCH  30  31
ENDBRANCH   4  30
TORSDOF 6
ENDMDL
MODEL 7
REMARK VINA RESULT:      -5.2      2.238      2.802
REMARK  Name = 
REMARK  8 active torsions:
REMARK  status: ('A' for Active; 'I' for Inactive)
REMARK    1  A    between atoms: C_1  and  C_2
REMARK    2  A    between atoms: C_2  and  C_3
REMARK    3  A    between atoms: C_15  and  O_16
REMARK    4  A    between atoms: C_15  and  C_17
REMARK    5  A    between atoms: C_17  and  C_18
REMARK    6  A    between atoms: C_26  and  O_27
REMARK    7  A    between atoms: O_27  and  C_28
REMARK    8  A    between atoms: C_33  and  N_36
REMARK                            x       y       z     vdW  Elec       q    Type
REMARK                         _______ _______ _______ _____ _____    ______ ____
ROOT
ATOM      1  C   UNL     1       8.060  -3.378  25.574  0.00  0.00    -0.031 A 
ATOM      2  C   UNL     1       7.601  -2.260  24.846  0.00  0.00    +0.007 A 
ATOM      3  C   UNL     1       8.406  -1.637  23.873  0.00  0.00    +0.056 A 
ATOM      4  C   UNL     1       8.034  -0.435  23.279  0.00  0.00    +0.134 A 
ATOM      5  C   UNL     1       6.780   0.096  23.552  0.00  0.00    +0.048 A 
ATOM      6  C   UNL     1       5.927  -0.569  24.455  0.00  0.00    +0.032 A 
ATOM      7  C   UNL     1       6.299  -1.738  25.121  0.00  0.00    +0.072 A 
ATOM      8  N   UNL     1       5.441  -2.321  25.993  0.00  0.00    -0.245 NA
ATOM      9  C   UNL     1       5.889  -3.426  26.613  0.00  0.00    +0.093 A 
ATOM     10  C   UNL     1       5.158  -4.311  27.536  0.00  0.00    +0.071 A 
ATOM     11  C   UNL     1       3.918  -4.270  28.041  0.00  0.00    +0.035 A 
ATOM     12  C   UNL     1       3.440  -5.384  28.876  0.00  0.00    +0.008 A 
ATOM     13  C   UNL     1       2.008  -5.423  29.350  0.00  0.00    +0.188 C 
ATOM     14  C   UNL     1       1.595  -6.732  30.096  0.00  0.00    +0.344 C 
ATOM     15  O   UNL     1       0.443  -6.920  30.485  0.00  0.00    -0.247 OA
ATOM     16  O   UNL     1       2.535  -7.657  30.374  0.00  0.00    -0.457 OA
ATOM     17  C   UNL     1       3.926  -7.553  30.037  0.00  0.00    +0.273 C 
ATOM     18  C   UNL     1       4.284  -6.377  29.211  0.00  0.00    +0.061 A 
ATOM     19  C   UNL     1       5.693  -6.375  28.729  0.00  0.00    +0.259 A 
ATOM     20  O   UNL     1       6.481  -7.252  29.057  0.00  0.00    -0.267 OA
ATOM     21  N   UNL     1       6.008  -5.346  27.883  0.00  0.00    -0.302 N 
ATOM     22  C   UNL     1       7.315  -5.207  27.261  0.00  0.00    +0.163 C 
ATOM     23  C   UNL     1       7.157  -3.977  26.438  0.00  0.00    +0.003 A 
ENDROOT
BRANCH   1  25
ATOM     24  C   UNL     1       9.548  -5.306  24.899  0.00  0.00    +0.009 C 
ATOM     25  C   UNL     1       9.473  -3.908  25.490  0.00  0.00    +0.033 C 
ENDBRANCH   1  25
BRANCH  13  26
ATOM     26  O   UNL     1       1.853  -4.313  30.254  0.00  0.00    -0.373 OA
ATOM     27  H   UNL     1       2.740  -4.045  30.552  0.00  0.00    +0.211 HD
ENDBRANCH  13  26
BRANCH  13  28
ATOM     28  C   UNL     1       0.972  -5.204  28.216  0.00  0.00    +0.048 C 
ATOM     29  C   UNL     1       0.989  -6.247  27.104  0.00  0.00    +0.007 C 
ENDBRANCH  13  28
BRANCH   4  30
ATOM     30  O   UNL     1       8.888   0.250  22.380  0.00  0.00    -0.411 OA
BRANCH  30  31
ATOM     31  C   UNL     1       8.418   1.432  21.773  0.00  0.00    +0.408 C 
ATOM     32  N   UNL     1       8.463   2.565  22.596  0.00  0.00    -0.267 N 
ATOM     33  C   UNL     1       7.660   3.699  22.143  0.00  0.00    +0.112 C 
ATOM     34  C   UNL     1       8.028   5.015  22.820  0.00  0.00    +0.038 C 
ATOM     35  C   UNL     1       7.964   4.897  24.359  0.00  0.00    +0.060 C 
ATOM     36  C   UNL     1       8.997   3.796  24.708  0.00  0.00    +0.038 C 
ATOM     37  C   UNL     1       8.722   2.453  24.028  0.00  0.00    +0.112 C 
ATOM     38  O   UNL     1       7.987   1.485  20.623  0.00  0.00    -0.226 OA
BRANCH  35  39
ATOM     39  N   UNL     1       6.577   4.654  24.830  0.00  0.00    -0.299 NA
ATOM     40  C   UNL     1       5.560   5.516  24.190  0.00  0.00    +0.084 C 
ATOM     41  C   UNL     1       5.554   6.967  24.684  0.00  0.00    +0.015 C 
ATOM     42  C   UNL     1       5.454   7.060  26.202  0.00  0.00    +0.002 C 
ATOM     43  C   UNL     1       6.392   6.085  26.906  0.00  0.00    +0.015 C 
ATOM     44  C   UNL     1       6.367   4.687  26.284  0.00  0.00    +0.084 C 
ENDBRANCH  35  39
ENDBRANCH  30  31
ENDBRANCH   4  30
TORSDOF 6
ENDMDL
MODEL 8
REMARK VINA RESULT:      -5.1      3.177      5.388
REMARK  Name = 
REMARK  8 active torsions:
REMARK  status: ('A' for Active; 'I' for Inactive)
REMARK    1  A    between atoms: C_1  and  C_2
REMARK    2  A    between atoms: C_2  and  C_3
REMARK    3  A    between atoms: C_15  and  O_16
REMARK    4  A    between atoms: C_15  and  C_17
REMARK    5  A    between atoms: C_17  and  C_18
REMARK    6  A    between atoms: C_26  and  O_27
REMARK    7  A    between atoms: O_27  and  C_28
REMARK    8  A    between atoms: C_33  and  N_36
REMARK                            x       y       z     vdW  Elec       q    Type
REMARK                         _______ _______ _______ _____ _____    ______ ____
ROOT
ATOM      1  C   UNL     1       5.574   0.004  26.620  0.00  0.00    -0.031 A 
ATOM      2  C   UNL     1       4.563   0.979  26.765  0.00  0.00    +0.007 A 
ATOM      3  C   UNL     1       4.870   2.351  26.823  0.00  0.00    +0.056 A 
ATOM      4  C   UNL     1       3.906   3.302  27.142  0.00  0.00    +0.134 A 
ATOM      5  C   UNL     1       2.582   2.904  27.277  0.00  0.00    +0.048 A 
ATOM      6  C   UNL     1       2.247   1.544  27.130  0.00  0.00    +0.032 A 
ATOM      7  C   UNL     1       3.202   0.557  26.880  0.00  0.00    +0.072 A 
ATOM      8  N   UNL     1       2.821  -0.739  26.766  0.00  0.00    -0.245 NA
ATOM      9  C   UNL     1       3.806  -1.628  26.556  0.00  0.00    +0.093 A 
ATOM     10  C   UNL     1       3.688  -3.076  26.310  0.00  0.00    +0.071 A 
ATOM     11  C   UNL     1       2.637  -3.905  26.263  0.00  0.00    +0.035 A 
ATOM     12  C   UNL     1       2.843  -5.313  25.885  0.00  0.00    +0.008 A 
ATOM     13  C   UNL     1       1.663  -6.235  25.701  0.00  0.00    +0.188 C 
ATOM     14  C   UNL     1       2.013  -7.654  25.152  0.00  0.00    +0.344 C 
ATOM     15  O   UNL     1       1.141  -8.485  24.901  0.00  0.00    -0.247 OA
ATOM     16  O   UNL     1       3.306  -8.003  25.002  0.00  0.00    -0.457 OA
ATOM     17  C   UNL     1       4.431  -7.165  25.307  0.00  0.00    +0.273 C 
ATOM     18  C   UNL     1       4.091  -5.777  25.695  0.00  0.00    +0.061 A 
ATOM     19  C   UNL     1       5.270  -4.878  25.841  0.00  0.00    +0.259 A 
ATOM     20  O   UNL     1       6.412  -5.297  25.707  0.00  0.00    -0.267 OA
ATOM     21  N   UNL     1       4.963  -3.569  26.100  0.00  0.00    -0.302 N 
ATOM     22  C   UNL     1       5.974  -2.529  26.216  0.00  0.00    +0.163 C 
ATOM     23  C   UNL     1       5.161  -1.310  26.475  0.00  0.00    +0.003 A 
ENDROOT
BRANCH   1  25
ATOM     24  C   UNL     1       7.635   0.253  28.061  0.00  0.00    +0.009 C 
ATOM     25  C   UNL     1       7.051   0.320  26.659  0.00  0.00    +0.033 C 
ENDBRANCH   1  25
BRANCH  13  26
ATOM     26  O   UNL     1       1.061  -6.383  27.001  0.00  0.00    -0.373 OA
ATOM     27  H   UNL     1       1.352  -7.236  27.369  0.00  0.00    +0.211 HD
ENDBRANCH  13  26
BRANCH  13  28
ATOM     28  C   UNL     1       0.559  -5.654  24.778  0.00  0.00    +0.048 C 
ATOM     29  C   UNL     1       0.981  -5.397  23.336  0.00  0.00    +0.007 C 
ENDBRANCH  13  28
BRANCH   4  30
ATOM     30  O   UNL     1       4.230   4.671  27.306  0.00  0.00    -0.411 OA
BRANCH  30  31
ATOM     31  C   UNL     1       5.584   5.029  27.459  0.00  0.00    +0.408 C 
ATOM     32  N   UNL     1       6.332   4.993  26.275  0.00  0.00    -0.267 N 
ATOM     33  C   UNL     1       7.783   4.995  26.452  0.00  0.00    +0.112 C 
ATOM     34  C   UNL     1       8.551   5.348  25.183  0.00  0.00    +0.038 C 
ATOM     35  C   UNL     1       8.159   4.423  24.009  0.00  0.00    +0.060 C 
ATOM     36  C   UNL     1       6.641   4.666  23.814  0.00  0.00    +0.038 C 
ATOM     37  C   UNL     1       5.803   4.379  25.062  0.00  0.00    +0.112 C 
ATOM     38  O   UNL     1       6.091   5.339  28.536  0.00  0.00    -0.226 OA
BRANCH  35  39
ATOM     39  N   UNL     1       8.560   3.017  24.266  0.00  0.00    -0.299 NA
ATOM     40  C   UNL     1      10.020   2.785  24.217  0.00  0.00    +0.084 C 
ATOM     41  C   UNL     1      10.617   2.778  22.806  0.00  0.00    +0.015 C 
ATOM     42  C   UNL     1       9.891   1.812  21.876  0.00  0.00    +0.002 C 
ATOM     43  C   UNL     1       8.375   1.921  21.994  0.00  0.00    +0.015 C 
ATOM     44  C   UNL     1       7.898   1.991  23.446  0.00  0.00    +0.084 C 
ENDBRANCH  35  39
ENDBRANCH  30  31
ENDBRANCH   4  30
TORSDOF 6
ENDMDL
MODEL 9
REMARK VINA RESULT:      -5.1      3.225      5.269
REMARK  Name = 
REMARK  8 active torsions:
REMARK  status: ('A' for Active; 'I' for Inactive)
REMARK    1  A    between atoms: C_1  and  C_2
REMARK    2  A    between atoms: C_2  and  C_3
REMARK    3  A    between atoms: C_15  and  O_16
REMARK    4  A    between atoms: C_15  and  C_17
REMARK    5  A    between atoms: C_17  and  C_18
REMARK    6  A    between atoms: C_26  and  O_27
REMARK    7  A    between atoms: O_27  and  C_28
REMARK    8  A    between atoms: C_33  and  N_36
REMARK                            x       y       z     vdW  Elec       q    Type
REMARK                         _______ _______ _______ _____ _____    ______ ____
ROOT
ATOM      1  C   UNL     1       6.039   0.278  25.032  0.00  0.00    -0.031 A 
ATOM      2  C   UNL     1       5.017   1.228  25.248  0.00  0.00    +0.007 A 
ATOM      3  C   UNL     1       4.975   2.436  24.529  0.00  0.00    +0.056 A 
ATOM      4  C   UNL     1       4.080   3.450  24.857  0.00  0.00    +0.134 A 
ATOM      5  C   UNL     1       3.117   3.214  25.829  0.00  0.00    +0.048 A 
ATOM      6  C   UNL     1       3.091   1.972  26.493  0.00  0.00    +0.032 A 
ATOM      7  C   UNL     1       4.019   0.961  26.236  0.00  0.00    +0.072 A 
ATOM      8  N   UNL     1       3.953  -0.207  26.921  0.00  0.00    -0.245 NA
ATOM      9  C   UNL     1       4.902  -1.114  26.634  0.00  0.00    +0.093 A 
ATOM     10  C   UNL     1       5.033  -2.488  27.149  0.00  0.00    +0.071 A 
ATOM     11  C   UNL     1       4.319  -3.197  28.033  0.00  0.00    +0.035 A 
ATOM     12  C   UNL     1       4.653  -4.612  28.263  0.00  0.00    +0.008 A 
ATOM     13  C   UNL     1       3.787  -5.465  29.156  0.00  0.00    +0.188 C 
ATOM     14  C   UNL     1       4.165  -6.980  29.190  0.00  0.00    +0.344 C 
ATOM     15  O   UNL     1       3.507  -7.798  29.833  0.00  0.00    -0.247 OA
ATOM     16  O   UNL     1       5.274  -7.398  28.549  0.00  0.00    -0.457 OA
ATOM     17  C   UNL     1       6.171  -6.556  27.810  0.00  0.00    +0.273 C 
ATOM     18  C   UNL     1       5.733  -5.148  27.666  0.00  0.00    +0.061 A 
ATOM     19  C   UNL     1       6.585  -4.333  26.757  0.00  0.00    +0.259 A 
ATOM     20  O   UNL     1       7.591  -4.799  26.237  0.00  0.00    -0.267 OA
ATOM     21  N   UNL     1       6.134  -3.060  26.537  0.00  0.00    -0.302 N 
ATOM     22  C   UNL     1       6.796  -2.132  25.633  0.00  0.00    +0.163 C 
ATOM     23  C   UNL     1       5.936  -0.921  25.720  0.00  0.00    +0.003 A 
ENDROOT
BRANCH   1  25
ATOM     24  C   UNL     1       7.471  -0.595  23.142  0.00  0.00    +0.009 C 
ATOM     25  C   UNL     1       7.235   0.525  24.141  0.00  0.00    +0.033 C 
ENDBRANCH   1  25
BRANCH  13  26
ATOM     26  O   UNL     1       3.927  -4.929  30.485  0.00  0.00    -0.373 OA
ATOM     27  H   UNL     1       4.323  -4.043  30.409  0.00  0.00    +0.211 HD
ENDBRANCH  13  26
BRANCH  13  28
ATOM     28  C   UNL     1       2.275  -5.386  28.816  0.00  0.00    +0.048 C 
ATOM     29  C   UNL     1       1.356  -5.070  29.991  0.00  0.00    +0.007 C 
ENDBRANCH  13  28
BRANCH   4  30
ATOM     30  O   UNL     1       4.104   4.709  24.207  0.00  0.00    -0.411 OA
BRANCH  30  31
ATOM     31  C   UNL     1       4.935   5.720  24.727  0.00  0.00    +0.408 C 
ATOM     32  N   UNL     1       6.157   5.870  24.058  0.00  0.00    -0.267 N 
ATOM     33  C   UNL     1       7.175   6.632  24.777  0.00  0.00    +0.112 C 
ATOM     34  C   UNL     1       8.321   7.108  23.891  0.00  0.00    +0.038 C 
ATOM     35  C   UNL     1       8.973   5.932  23.130  0.00  0.00    +0.060 C 
ATOM     36  C   UNL     1       7.827   5.340  22.272  0.00  0.00    +0.038 C 
ATOM     37  C   UNL     1       6.617   4.881  23.088  0.00  0.00    +0.112 C 
ATOM     38  O   UNL     1       4.639   6.417  25.696  0.00  0.00    -0.226 OA
BRANCH  35  39
ATOM     39  N   UNL     1       9.639   4.984  24.060  0.00  0.00    -0.299 NA
ATOM     40  C   UNL     1      10.627   5.614  24.962  0.00  0.00    +0.084 C 
ATOM     41  C   UNL     1      11.949   5.999  24.288  0.00  0.00    +0.015 C 
ATOM     42  C   UNL     1      12.577   4.830  23.538  0.00  0.00    +0.002 C 
ATOM     43  C   UNL     1      11.561   4.064  22.699  0.00  0.00    +0.015 C 
ATOM     44  C   UNL     1      10.255   3.797  23.450  0.00  0.00    +0.084 C 
ENDBRANCH  35  39
ENDBRANCH  30  31
ENDBRANCH   4  30
TORSDOF 6
ENDMDL
