MODEL 1
REMARK VINA RESULT:      -6.9      0.000      0.000
REMARK  Name = 
REMARK  5 active torsions:
REMARK  status: ('A' for Active; 'I' for Inactive)
REMARK    1  A    between atoms: O_1  and  C_2
REMARK    2  A    between atoms: C_2  and  C_4
REMARK    3  A    between atoms: C_4  and  C_5
REMARK    4  A    between atoms: C_6  and  O_7
REMARK    5  A    between atoms: C_16  and  O_17
REMARK                            x       y       z     vdW  Elec       q    Type
REMARK                         _______ _______ _______ _____ _____    ______ ____
ROOT
ATOM      1  C   UNL     1       6.940  -4.589  25.559  0.00  0.00    +0.005 A 
ATOM      2  C   UNL     1       8.221  -4.982  25.141  0.00  0.00    +0.008 A 
ATOM      3  C   UNL     1       9.005  -4.138  24.357  0.00  0.00    +0.013 A 
ATOM      4  C   UNL     1       8.524  -2.880  23.973  0.00  0.00    +0.037 A 
ATOM      5  C   UNL     1       9.394  -2.009  23.156  0.00  0.00    +0.195 C 
ATOM      6  C   UNL     1       8.902  -0.688  22.730  0.00  0.00    +0.037 A 
ATOM      7  C   UNL     1       9.725   0.137  21.946  0.00  0.00    +0.012 A 
ATOM      8  C   UNL     1       9.269   1.387  21.528  0.00  0.00    +0.004 A 
ATOM      9  C   UNL     1       7.994   1.817  21.889  0.00  0.00    +0.046 A 
ATOM     10  C   UNL     1       7.182   0.997  22.669  0.00  0.00    +0.128 A 
ATOM     11  C   UNL     1       7.629  -0.263  23.097  0.00  0.00    +0.075 A 
ATOM     12  C   UNL     1       6.764  -1.130  23.921  0.00  0.00    +0.202 C 
ATOM     13  O   UNL     1       5.655  -0.697  24.218  0.00  0.00    -0.286 OA
ATOM     14  O   UNL     1      10.513  -2.388  22.832  0.00  0.00    -0.287 OA
ATOM     15  C   UNL     1       7.245  -2.469  24.357  0.00  0.00    +0.075 A 
ATOM     16  C   UNL     1       6.452  -3.335  25.142  0.00  0.00    +0.132 A 
ENDROOT
BRANCH  10  17
ATOM     17  O   UNL     1       5.944   1.498  22.979  0.00  0.00    -0.506 OA
ATOM     18  H   UNL     1       5.652   2.069  22.232  0.00  0.00    +0.292 HD
ENDBRANCH  10  17
BRANCH  16  19
ATOM     19  O   UNL     1       5.189  -2.937  25.475  0.00  0.00    -0.506 OA
ATOM     20  H   UNL     1       5.133  -2.064  25.887  0.00  0.00    +0.292 HD
ENDBRANCH  16  19
BRANCH   1  21
ATOM     21  C   UNL     1       6.147  -5.544  26.427  0.00  0.00    +0.159 C 
BRANCH  21  22
ATOM     22  C   UNL     1       6.472  -5.567  27.903  0.00  0.00    +0.309 C 
ATOM     23  O   UNL     1       5.955  -4.782  28.687  0.00  0.00    -0.251 OA
BRANCH  22  24
ATOM     24  O   UNL     1       7.363  -6.487  28.325  0.00  0.00    -0.480 OA
ATOM     25  H   UNL     1       7.195  -7.409  28.058  0.00  0.00    +0.295 HD
ENDBRANCH  22  24
ENDBRANCH  21  22
ENDBRANCH   1  21
TORSDOF 5
ENDMDL
MODEL 2
REMARK VINA RESULT:      -6.9      2.370      6.563
REMARK  Name = 
REMARK  5 active torsions:
REMARK  status: ('A' for Active; 'I' for Inactive)
REMARK    1  A    between atoms: O_1  and  C_2
REMARK    2  A    between atoms: C_2  and  C_4
REMARK    3  A    between atoms: C_4  and  C_5
REMARK    4  A    between atoms: C_6  and  O_7
REMARK    5  A    between atoms: C_16  and  O_17
REMARK                            x       y       z     vdW  Elec       q    Type
REMARK                         _______ _______ _______ _____ _____    ______ ____
ROOT
ATOM      1  C   UNL     1       9.360  -1.027  23.480  0.00  0.00    +0.005 A 
ATOM      2  C   UNL     1       9.403  -0.986  24.882  0.00  0.00    +0.008 A 
ATOM      3  C   UNL     1       8.671  -1.894  25.644  0.00  0.00    +0.013 A 
ATOM      4  C   UNL     1       7.878  -2.864  25.018  0.00  0.00    +0.037 A 
ATOM      5  C   UNL     1       7.130  -3.819  25.863  0.00  0.00    +0.195 C 
ATOM      6  C   UNL     1       6.280  -4.839  25.226  0.00  0.00    +0.037 A 
ATOM      7  C   UNL     1       5.563  -5.741  26.027  0.00  0.00    +0.012 A 
ATOM      8  C   UNL     1       4.746  -6.706  25.438  0.00  0.00    +0.004 A 
ATOM      9  C   UNL     1       4.644  -6.775  24.050  0.00  0.00    +0.046 A 
ATOM     10  C   UNL     1       5.359  -5.880  23.258  0.00  0.00    +0.128 A 
ATOM     11  C   UNL     1       6.184  -4.904  23.839  0.00  0.00    +0.075 A 
ATOM     12  C   UNL     1       6.938  -3.955  22.996  0.00  0.00    +0.202 C 
ATOM     13  O   UNL     1       6.818  -4.067  21.780  0.00  0.00    -0.286 OA
ATOM     14  O   UNL     1       7.214  -3.757  27.083  0.00  0.00    -0.287 OA
ATOM     15  C   UNL     1       7.799  -2.917  23.625  0.00  0.00    +0.075 A 
ATOM     16  C   UNL     1       8.536  -1.985  22.859  0.00  0.00    +0.132 A 
ENDROOT
BRANCH  10  17
ATOM     17  O   UNL     1       5.201  -6.017  21.903  0.00  0.00    -0.506 OA
ATOM     18  H   UNL     1       5.090  -6.976  21.706  0.00  0.00    +0.292 HD
ENDBRANCH  10  17
BRANCH  16  19
ATOM     19  O   UNL     1       8.417  -2.022  21.500  0.00  0.00    -0.506 OA
ATOM     20  H   UNL     1       8.207  -1.174  21.086  0.00  0.00    +0.292 HD
ENDBRANCH  16  19
BRANCH   1  21
ATOM     21  C   UNL     1      10.196  -0.025  22.710  0.00  0.00    +0.159 C 
BRANCH  21  22
ATOM     22  C   UNL     1       9.462   1.117  22.043  0.00  0.00    +0.309 C 
ATOM     23  O   UNL     1       8.244   1.109  21.913  0.00  0.00    -0.251 OA
BRANCH  22  24
ATOM     24  O   UNL     1      10.204   2.147  21.589  0.00  0.00    -0.480 OA
ATOM     25  H   UNL     1       9.783   2.726  20.927  0.00  0.00    +0.295 HD
ENDBRANCH  22  24
ENDBRANCH  21  22
ENDBRANCH   1  21
TORSDOF 5
ENDMDL
MODEL 3
REMARK VINA RESULT:      -6.8      1.323      2.931
REMARK  Name = 
REMARK  5 active torsions:
REMARK  status: ('A' for Active; 'I' for Inactive)
REMARK    1  A    between atoms: O_1  and  C_2
REMARK    2  A    between atoms: C_2  and  C_4
REMARK    3  A    between atoms: C_4  and  C_5
REMARK    4  A    between atoms: C_6  and  O_7
REMARK    5  A    between atoms: C_16  and  O_17
REMARK                            x       y       z     vdW  Elec       q    Type
REMARK                         _______ _______ _______ _____ _____    ______ ____
ROOT
ATOM      1  C   UNL     1       5.839  -3.964  26.122  0.00  0.00    +0.005 A 
ATOM      2  C   UNL     1       4.976  -2.907  26.451  0.00  0.00    +0.008 A 
ATOM      3  C   UNL     1       5.102  -1.665  25.833  0.00  0.00    +0.013 A 
ATOM      4  C   UNL     1       6.097  -1.452  24.870  0.00  0.00    +0.037 A 
ATOM      5  C   UNL     1       6.186  -0.125  24.226  0.00  0.00    +0.195 C 
ATOM      6  C   UNL     1       7.233   0.124  23.220  0.00  0.00    +0.037 A 
ATOM      7  C   UNL     1       7.323   1.387  22.614  0.00  0.00    +0.012 A 
ATOM      8  C   UNL     1       8.315   1.640  21.667  0.00  0.00    +0.004 A 
ATOM      9  C   UNL     1       9.217   0.636  21.321  0.00  0.00    +0.046 A 
ATOM     10  C   UNL     1       9.122  -0.617  21.923  0.00  0.00    +0.128 A 
ATOM     11  C   UNL     1       8.128  -0.884  22.878  0.00  0.00    +0.075 A 
ATOM     12  C   UNL     1       8.033  -2.213  23.515  0.00  0.00    +0.202 C 
ATOM     13  O   UNL     1       8.847  -3.062  23.166  0.00  0.00    -0.286 OA
ATOM     14  O   UNL     1       5.398   0.761  24.533  0.00  0.00    -0.287 OA
ATOM     15  C   UNL     1       6.983  -2.479  24.536  0.00  0.00    +0.075 A 
ATOM     16  C   UNL     1       6.856  -3.732  25.175  0.00  0.00    +0.132 A 
ENDROOT
BRANCH  10  17
ATOM     17  O   UNL     1      10.048  -1.546  21.525  0.00  0.00    -0.506 OA
ATOM     18  H   UNL     1       9.609  -2.428  21.516  0.00  0.00    +0.292 HD
ENDBRANCH  10  17
BRANCH  16  19
ATOM     19  O   UNL     1       7.755  -4.713  24.868  0.00  0.00    -0.506 OA
ATOM     20  H   UNL     1       8.484  -4.433  24.298  0.00  0.00    +0.292 HD
ENDBRANCH  16  19
BRANCH   1  21
ATOM     21  C   UNL     1       5.636  -5.295  26.815  0.00  0.00    +0.159 C 
BRANCH  21  22
ATOM     22  C   UNL     1       6.577  -5.633  27.950  0.00  0.00    +0.309 C 
ATOM     23  O   UNL     1       6.213  -5.596  29.119  0.00  0.00    -0.251 OA
BRANCH  22  24
ATOM     24  O   UNL     1       7.840  -5.971  27.625  0.00  0.00    -0.480 OA
ATOM     25  H   UNL     1       8.505  -5.259  27.664  0.00  0.00    +0.295 HD
ENDBRANCH  22  24
ENDBRANCH  21  22
ENDBRANCH   1  21
TORSDOF 5
ENDMDL
MODEL 4
REMARK VINA RESULT:      -6.7      3.517      7.670
REMARK  Name = 
REMARK  5 active torsions:
REMARK  status: ('A' for Active; 'I' for Inactive)
REMARK    1  A    between atoms: O_1  and  C_2
REMARK    2  A    between atoms: C_2  and  C_4
REMARK    3  A    between atoms: C_4  and  C_5
REMARK    4  A    between atoms: C_6  and  O_7
REMARK    5  A    between atoms: C_16  and  O_17
REMARK                            x       y       z     vdW  Elec       q    Type
REMARK                         _______ _______ _______ _____ _____    ______ ____
ROOT
ATOM      1  C   UNL     1       8.938   4.038  24.121  0.00  0.00    +0.005 A 
ATOM      2  C   UNL     1       8.087   3.979  25.236  0.00  0.00    +0.008 A 
ATOM      3  C   UNL     1       7.769   2.757  25.826  0.00  0.00    +0.013 A 
ATOM      4  C   UNL     1       8.297   1.565  25.313  0.00  0.00    +0.037 A 
ATOM      5  C   UNL     1       7.948   0.293  25.979  0.00  0.00    +0.195 C 
ATOM      6  C   UNL     1       8.482  -0.972  25.447  0.00  0.00    +0.037 A 
ATOM      7  C   UNL     1       8.144  -2.182  26.074  0.00  0.00    +0.012 A 
ATOM      8  C   UNL     1       8.635  -3.390  25.576  0.00  0.00    +0.004 A 
ATOM      9  C   UNL     1       9.462  -3.394  24.455  0.00  0.00    +0.046 A 
ATOM     10  C   UNL     1       9.797  -2.191  23.837  0.00  0.00    +0.128 A 
ATOM     11  C   UNL     1       9.310  -0.969  24.329  0.00  0.00    +0.075 A 
ATOM     12  C   UNL     1       9.665   0.304  23.669  0.00  0.00    +0.202 C 
ATOM     13  O   UNL     1      10.403   0.242  22.692  0.00  0.00    -0.286 OA
ATOM     14  O   UNL     1       7.216   0.294  26.961  0.00  0.00    -0.287 OA
ATOM     15  C   UNL     1       9.131   1.591  24.192  0.00  0.00    +0.075 A 
ATOM     16  C   UNL     1       9.439   2.832  23.593  0.00  0.00    +0.132 A 
ENDROOT
BRANCH  10  17
ATOM     17  O   UNL     1      10.614  -2.285  22.742  0.00  0.00    -0.506 OA
ATOM     18  H   UNL     1      10.210  -1.758  22.015  0.00  0.00    +0.292 HD
ENDBRANCH  10  17
BRANCH  16  19
ATOM     19  O   UNL     1      10.222   2.837  22.474  0.00  0.00    -0.506 OA
ATOM     20  H   UNL     1      11.044   3.341  22.555  0.00  0.00    +0.292 HD
ENDBRANCH  16  19
BRANCH   1  21
ATOM     21  C   UNL     1       9.260   5.398  23.539  0.00  0.00    +0.159 C 
BRANCH  21  22
ATOM     22  C   UNL     1      10.659   5.929  23.758  0.00  0.00    +0.309 C 
ATOM     23  O   UNL     1      10.930   6.652  24.709  0.00  0.00    -0.251 OA
BRANCH  22  24
ATOM     24  O   UNL     1      11.600   5.581  22.858  0.00  0.00    -0.480 OA
ATOM     25  H   UNL     1      12.275   6.253  22.653  0.00  0.00    +0.295 HD
ENDBRANCH  22  24
ENDBRANCH  21  22
ENDBRANCH   1  21
TORSDOF 5
ENDMDL
MODEL 5
REMARK VINA RESULT:      -6.7      2.218      6.481
REMARK  Name = 
REMARK  5 active torsions:
REMARK  status: ('A' for Active; 'I' for Inactive)
REMARK    1  A    between atoms: O_1  and  C_2
REMARK    2  A    between atoms: C_2  and  C_4
REMARK    3  A    between atoms: C_4  and  C_5
REMARK    4  A    between atoms: C_6  and  O_7
REMARK    5  A    between atoms: C_16  and  O_17
REMARK                            x       y       z     vdW  Elec       q    Type
REMARK                         _______ _______ _______ _____ _____    ______ ____
ROOT
ATOM      1  C   UNL     1       9.658  -0.534  23.376  0.00  0.00    +0.005 A 
ATOM      2  C   UNL     1       9.321  -1.035  22.110  0.00  0.00    +0.008 A 
ATOM      3  C   UNL     1       8.487  -2.144  21.981  0.00  0.00    +0.013 A 
ATOM      4  C   UNL     1       7.971  -2.777  23.119  0.00  0.00    +0.037 A 
ATOM      5  C   UNL     1       7.077  -3.939  22.938  0.00  0.00    +0.195 C 
ATOM      6  C   UNL     1       6.535  -4.628  24.122  0.00  0.00    +0.037 A 
ATOM      7  C   UNL     1       5.692  -5.737  23.951  0.00  0.00    +0.012 A 
ATOM      8  C   UNL     1       5.178  -6.404  25.064  0.00  0.00    +0.004 A 
ATOM      9  C   UNL     1       5.502  -5.967  26.346  0.00  0.00    +0.046 A 
ATOM     10  C   UNL     1       6.337  -4.864  26.512  0.00  0.00    +0.128 A 
ATOM     11  C   UNL     1       6.860  -4.184  25.400  0.00  0.00    +0.075 A 
ATOM     12  C   UNL     1       7.747  -3.017  25.580  0.00  0.00    +0.202 C 
ATOM     13  O   UNL     1       7.991  -2.670  26.731  0.00  0.00    -0.286 OA
ATOM     14  O   UNL     1       6.796  -4.329  21.812  0.00  0.00    -0.287 OA
ATOM     15  C   UNL     1       8.306  -2.313  24.394  0.00  0.00    +0.075 A 
ATOM     16  C   UNL     1       9.161  -1.196  24.516  0.00  0.00    +0.132 A 
ENDROOT
BRANCH  10  17
ATOM     17  O   UNL     1       6.604  -4.502  27.806  0.00  0.00    -0.506 OA
ATOM     18  H   UNL     1       7.309  -5.099  28.149  0.00  0.00    +0.292 HD
ENDBRANCH  10  17
BRANCH  16  19
ATOM     19  O   UNL     1       9.511  -0.779  25.768  0.00  0.00    -0.506 OA
ATOM     20  H   UNL     1      10.301  -1.203  26.132  0.00  0.00    +0.292 HD
ENDBRANCH  16  19
BRANCH   1  21
ATOM     21  C   UNL     1      10.553   0.686  23.447  0.00  0.00    +0.159 C 
BRANCH  21  22
ATOM     22  C   UNL     1       9.997   1.982  22.902  0.00  0.00    +0.309 C 
ATOM     23  O   UNL     1       9.304   2.723  23.589  0.00  0.00    -0.251 OA
BRANCH  22  24
ATOM     24  O   UNL     1      10.287   2.290  21.623  0.00  0.00    -0.480 OA
ATOM     25  H   UNL     1      11.097   2.811  21.474  0.00  0.00    +0.295 HD
ENDBRANCH  22  24
ENDBRANCH  21  22
ENDBRANCH   1  21
TORSDOF 5
ENDMDL
MODEL 6
REMARK VINA RESULT:      -6.5      2.358      6.513
REMARK  Name = 
REMARK  5 active torsions:
REMARK  status: ('A' for Active; 'I' for Inactive)
REMARK    1  A    between atoms: O_1  and  C_2
REMARK    2  A    between atoms: C_2  and  C_4
REMARK    3  A    between atoms: C_4  and  C_5
REMARK    4  A    between atoms: C_6  and  O_7
REMARK    5  A    between atoms: C_16  and  O_17
REMARK                            x       y       z     vdW  Elec       q    Type
REMARK                         _______ _______ _______ _____ _____    ______ ____
ROOT
ATOM      1  C   UNL     1       9.305  -2.781  23.486  0.00  0.00    +0.005 A 
ATOM      2  C   UNL     1       9.762  -3.263  24.723  0.00  0.00    +0.008 A 
ATOM      3  C   UNL     1       8.978  -4.127  25.484  0.00  0.00    +0.013 A 
ATOM      4  C   UNL     1       7.718  -4.530  25.024  0.00  0.00    +0.037 A 
ATOM      5  C   UNL     1       6.926  -5.461  25.855  0.00  0.00    +0.195 C 
ATOM      6  C   UNL     1       5.593  -5.886  25.396  0.00  0.00    +0.037 A 
ATOM      7  C   UNL     1       4.836  -6.764  26.188  0.00  0.00    +0.012 A 
ATOM      8  C   UNL     1       3.568  -7.168  25.771  0.00  0.00    +0.004 A 
ATOM      9  C   UNL     1       3.052  -6.699  24.565  0.00  0.00    +0.046 A 
ATOM     10  C   UNL     1       3.807  -5.830  23.780  0.00  0.00    +0.128 A 
ATOM     11  C   UNL     1       5.085  -5.416  24.189  0.00  0.00    +0.075 A 
ATOM     12  C   UNL     1       5.880  -4.493  23.356  0.00  0.00    +0.202 C 
ATOM     13  O   UNL     1       5.381  -4.119  22.299  0.00  0.00    -0.286 OA
ATOM     14  O   UNL     1       7.375  -5.870  26.918  0.00  0.00    -0.287 OA
ATOM     15  C   UNL     1       7.228  -4.051  23.807  0.00  0.00    +0.075 A 
ATOM     16  C   UNL     1       8.023  -3.166  23.046  0.00  0.00    +0.132 A 
ENDROOT
BRANCH  10  17
ATOM     17  O   UNL     1       3.225  -5.418  22.610  0.00  0.00    -0.506 OA
ATOM     18  H   UNL     1       2.422  -5.969  22.459  0.00  0.00    +0.292 HD
ENDBRANCH  10  17
BRANCH  16  19
ATOM     19  O   UNL     1       7.514  -2.674  21.879  0.00  0.00    -0.506 OA
ATOM     20  H   UNL     1       8.035  -2.879  21.090  0.00  0.00    +0.292 HD
ENDBRANCH  16  19
BRANCH   1  21
ATOM     21  C   UNL     1      10.213  -1.860  22.698  0.00  0.00    +0.159 C 
BRANCH  21  22
ATOM     22  C   UNL     1       9.627  -0.547  22.230  0.00  0.00    +0.309 C 
ATOM     23  O   UNL     1       9.324   0.339  23.020  0.00  0.00    -0.251 OA
BRANCH  22  24
ATOM     24  O   UNL     1       9.443  -0.390  20.905  0.00  0.00    -0.480 OA
ATOM     25  H   UNL     1       9.437   0.526  20.572  0.00  0.00    +0.295 HD
ENDBRANCH  22  24
ENDBRANCH  21  22
ENDBRANCH   1  21
TORSDOF 5
ENDMDL
MODEL 7
REMARK VINA RESULT:      -6.5      1.464      6.477
REMARK  Name = 
REMARK  5 active torsions:
REMARK  status: ('A' for Active; 'I' for Inactive)
REMARK    1  A    between atoms: O_1  and  C_2
REMARK    2  A    between atoms: C_2  and  C_4
REMARK    3  A    between atoms: C_4  and  C_5
REMARK    4  A    between atoms: C_6  and  O_7
REMARK    5  A    between atoms: C_16  and  O_17
REMARK                            x       y       z     vdW  Elec       q    Type
REMARK                         _______ _______ _______ _____ _____    ______ ____
ROOT
ATOM      1  C   UNL     1       7.578   1.712  22.281  0.00  0.00    +0.005 A 
ATOM      2  C   UNL     1       8.852   1.383  21.792  0.00  0.00    +0.008 A 
ATOM      3  C   UNL     1       9.455   0.174  22.129  0.00  0.00    +0.013 A 
ATOM      4  C   UNL     1       8.796  -0.736  22.966  0.00  0.00    +0.037 A 
ATOM      5  C   UNL     1       9.463  -2.015  23.285  0.00  0.00    +0.195 C 
ATOM      6  C   UNL     1       8.792  -2.980  24.174  0.00  0.00    +0.037 A 
ATOM      7  C   UNL     1       9.429  -4.192  24.485  0.00  0.00    +0.012 A 
ATOM      8  C   UNL     1       8.810  -5.111  25.332  0.00  0.00    +0.004 A 
ATOM      9  C   UNL     1       7.557  -4.826  25.869  0.00  0.00    +0.046 A 
ATOM     10  C   UNL     1       6.927  -3.623  25.556  0.00  0.00    +0.128 A 
ATOM     11  C   UNL     1       7.540  -2.690  24.704  0.00  0.00    +0.075 A 
ATOM     12  C   UNL     1       6.869  -1.415  24.377  0.00  0.00    +0.202 C 
ATOM     13  O   UNL     1       5.764  -1.220  24.870  0.00  0.00    -0.286 OA
ATOM     14  O   UNL     1      10.567  -2.266  22.819  0.00  0.00    -0.287 OA
ATOM     15  C   UNL     1       7.535  -0.428  23.484  0.00  0.00    +0.075 A 
ATOM     16  C   UNL     1       6.936   0.805  23.146  0.00  0.00    +0.132 A 
ENDROOT
BRANCH  10  17
ATOM     17  O   UNL     1       5.697  -3.423  26.127  0.00  0.00    -0.506 OA
ATOM     18  H   UNL     1       5.683  -2.514  26.506  0.00  0.00    +0.292 HD
ENDBRANCH  10  17
BRANCH  16  19
ATOM     19  O   UNL     1       5.722   1.109  23.693  0.00  0.00    -0.506 OA
ATOM     20  H   UNL     1       5.585   2.048  23.884  0.00  0.00    +0.292 HD
ENDBRANCH  16  19
BRANCH   1  21
ATOM     21  C   UNL     1       6.970   3.033  21.860  0.00  0.00    +0.159 C 
BRANCH  21  22
ATOM     22  C   UNL     1       7.567   4.288  22.455  0.00  0.00    +0.309 C 
ATOM     23  O   UNL     1       8.027   4.305  23.590  0.00  0.00    -0.251 OA
BRANCH  22  24
ATOM     24  O   UNL     1       7.568   5.396  21.688  0.00  0.00    -0.480 OA
ATOM     25  H   UNL     1       7.564   5.257  20.723  0.00  0.00    +0.295 HD
ENDBRANCH  22  24
ENDBRANCH  21  22
ENDBRANCH   1  21
TORSDOF 5
ENDMDL
MODEL 8
REMARK VINA RESULT:      -6.4      2.007      6.185
REMARK  Name = 
REMARK  5 active torsions:
REMARK  status: ('A' for Active; 'I' for Inactive)
REMARK    1  A    between atoms: O_1  and  C_2
REMARK    2  A    between atoms: C_2  and  C_4
REMARK    3  A    between atoms: C_4  and  C_5
REMARK    4  A    between atoms: C_6  and  O_7
REMARK    5  A    between atoms: C_16  and  O_17
REMARK                            x       y       z     vdW  Elec       q    Type
REMARK                         _______ _______ _______ _____ _____    ______ ____
ROOT
ATOM      1  C   UNL     1       9.334  -0.582  23.753  0.00  0.00    +0.005 A 
ATOM      2  C   UNL     1      10.133  -1.736  23.768  0.00  0.00    +0.008 A 
ATOM      3  C   UNL     1       9.590  -2.975  24.101  0.00  0.00    +0.013 A 
ATOM      4  C   UNL     1       8.232  -3.087  24.427  0.00  0.00    +0.037 A 
ATOM      5  C   UNL     1       7.692  -4.422  24.758  0.00  0.00    +0.195 C 
ATOM      6  C   UNL     1       6.271  -4.560  25.117  0.00  0.00    +0.037 A 
ATOM      7  C   UNL     1       5.759  -5.826  25.440  0.00  0.00    +0.012 A 
ATOM      8  C   UNL     1       4.416  -5.971  25.791  0.00  0.00    +0.004 A 
ATOM      9  C   UNL     1       3.583  -4.855  25.820  0.00  0.00    +0.046 A 
ATOM     10  C   UNL     1       4.093  -3.600  25.497  0.00  0.00    +0.128 A 
ATOM     11  C   UNL     1       5.443  -3.442  25.141  0.00  0.00    +0.075 A 
ATOM     12  C   UNL     1       5.981  -2.109  24.802  0.00  0.00    +0.202 C 
ATOM     13  O   UNL     1       5.200  -1.164  24.835  0.00  0.00    -0.286 OA
ATOM     14  O   UNL     1       8.425  -5.403  24.739  0.00  0.00    -0.287 OA
ATOM     15  C   UNL     1       7.416  -1.953  24.441  0.00  0.00    +0.075 A 
ATOM     16  C   UNL     1       7.977  -0.698  24.113  0.00  0.00    +0.132 A 
ENDROOT
BRANCH  10  17
ATOM     17  O   UNL     1       3.206  -2.558  25.551  0.00  0.00    -0.506 OA
ATOM     18  H   UNL     1       3.722  -1.719  25.555  0.00  0.00    +0.292 HD
ENDBRANCH  10  17
BRANCH  16  19
ATOM     19  O   UNL     1       7.177   0.406  24.170  0.00  0.00    -0.506 OA
ATOM     20  H   UNL     1       6.417   0.390  23.572  0.00  0.00    +0.292 HD
ENDBRANCH  16  19
BRANCH   1  21
ATOM     21  C   UNL     1       9.981   0.731  23.363  0.00  0.00    +0.159 C 
BRANCH  21  22
ATOM     22  C   UNL     1       9.806   1.188  21.932  0.00  0.00    +0.309 C 
ATOM     23  O   UNL     1       9.249   0.486  21.097  0.00  0.00    -0.251 OA
BRANCH  22  24
ATOM     24  O   UNL     1      10.293   2.402  21.607  0.00  0.00    -0.480 OA
ATOM     25  H   UNL     1      10.164   3.112  22.262  0.00  0.00    +0.295 HD
ENDBRANCH  22  24
ENDBRANCH  21  22
ENDBRANCH   1  21
TORSDOF 5
ENDMDL
MODEL 9
REMARK VINA RESULT:      -6.3      2.861      6.600
REMARK  Name = 
REMARK  5 active torsions:
REMARK  status: ('A' for Active; 'I' for Inactive)
REMARK    1  A    between atoms: O_1  and  C_2
REMARK    2  A    between atoms: C_2  and  C_4
REMARK    3  A    between atoms: C_4  and  C_5
REMARK    4  A    between atoms: C_6  and  O_7
REMARK    5  A    between atoms: C_16  and  O_17
REMARK                            x       y       z     vdW  Elec       q    Type
REMARK                         _______ _______ _______ _____ _____    ______ ____
ROOT
ATOM      1  C   UNL     1       9.352   0.516  24.146  0.00  0.00    +0.005 A 
ATOM      2  C   UNL     1       8.270   1.004  24.896  0.00  0.00    +0.008 A 
ATOM      3  C   UNL     1       7.093   0.268  25.011  0.00  0.00    +0.013 A 
ATOM      4  C   UNL     1       6.971  -0.976  24.378  0.00  0.00    +0.037 A 
ATOM      5  C   UNL     1       5.712  -1.732  24.540  0.00  0.00    +0.195 C 
ATOM      6  C   UNL     1       5.559  -3.035  23.871  0.00  0.00    +0.037 A 
ATOM      7  C   UNL     1       4.360  -3.750  24.017  0.00  0.00    +0.012 A 
ATOM      8  C   UNL     1       4.197  -4.982  23.382  0.00  0.00    +0.004 A 
ATOM      9  C   UNL     1       5.227  -5.502  22.602  0.00  0.00    +0.046 A 
ATOM     10  C   UNL     1       6.416  -4.791  22.462  0.00  0.00    +0.128 A 
ATOM     11  C   UNL     1       6.593  -3.551  23.096  0.00  0.00    +0.075 A 
ATOM     12  C   UNL     1       7.854  -2.799  22.942  0.00  0.00    +0.202 C 
ATOM     13  O   UNL     1       8.731  -3.308  22.252  0.00  0.00    -0.286 OA
ATOM     14  O   UNL     1       4.803  -1.273  25.220  0.00  0.00    -0.287 OA
ATOM     15  C   UNL     1       8.023  -1.478  23.608  0.00  0.00    +0.075 A 
ATOM     16  C   UNL     1       9.210  -0.721  23.487  0.00  0.00    +0.132 A 
ENDROOT
BRANCH  10  17
ATOM     17  O   UNL     1       7.377  -5.375  21.678  0.00  0.00    -0.506 OA
ATOM     18  H   UNL     1       7.859  -4.659  21.205  0.00  0.00    +0.292 HD
ENDBRANCH  10  17
BRANCH  16  19
ATOM     19  O   UNL     1      10.213  -1.206  22.698  0.00  0.00    -0.506 OA
ATOM     20  H   UNL     1      10.967  -1.575  23.180  0.00  0.00    +0.292 HD
ENDBRANCH  16  19
BRANCH   1  21
ATOM     21  C   UNL     1      10.611   1.355  24.077  0.00  0.00    +0.159 C 
BRANCH  21  22
ATOM     22  C   UNL     1      10.636   2.478  23.065  0.00  0.00    +0.309 C 
ATOM     23  O   UNL     1      11.061   3.591  23.351  0.00  0.00    -0.251 OA
BRANCH  22  24
ATOM     24  O   UNL     1      10.166   2.209  21.831  0.00  0.00    -0.480 OA
ATOM     25  H   UNL     1       9.210   2.337  21.693  0.00  0.00    +0.295 HD
ENDBRANCH  22  24
ENDBRANCH  21  22
ENDBRANCH   1  21
TORSDOF 5
ENDMDL
