MODEL 1
REMARK VINA RESULT:      -3.9      0.000      0.000
REMARK  Name = 
REMARK  7 active torsions:
REMARK  status: ('A' for Active; 'I' for Inactive)
REMARK    1  A    between atoms: O_1  and  C_2
REMARK    2  A    between atoms: C_2  and  C_3
REMARK    3  A    between atoms: C_3  and  C_5
REMARK    4  A    between atoms: C_5  and  O_6
REMARK    5  A    between atoms: O_6  and  P_7
REMARK    6  A    between atoms: P_7  and  O_8
REMARK    7  A    between atoms: P_7  and  O_9
REMARK                            x       y       z     vdW  Elec       q    Type
REMARK                         _______ _______ _______ _____ _____    ______ ____
ROOT
ATOM      1  O   UNL     1      10.656   0.444  23.209  0.00  0.00    -0.279 OA
ENDROOT
BRANCH   1   2
ATOM      2  P   UNL     1      10.021   1.890  23.049  0.00  0.00    +0.473 P 
ATOM      3  O   UNL     1      10.768   3.050  23.605  0.00  0.00    -0.228 OA
BRANCH   2   4
ATOM      4  O   UNL     1       8.500   1.719  23.495  0.00  0.00    -0.303 OA
ATOM      5  H   UNL     1       8.161   2.573  23.821  0.00  0.00    +0.222 HD
ENDBRANCH   2   4
BRANCH   2   6
ATOM      6  O   UNL     1       9.816   1.964  21.467  0.00  0.00    -0.303 OA
ATOM      7  H   UNL     1      10.657   2.182  21.027  0.00  0.00    +0.222 HD
ENDBRANCH   2   6
ENDBRANCH   1   2
BRANCH   1   8
ATOM      8  C   UNL     1      10.026  -0.473  24.076  0.00  0.00    +0.249 C 
BRANCH   8   9
ATOM      9  C   UNL     1       9.828  -1.786  23.338  0.00  0.00    +0.184 C 
ATOM     10  O   UNL     1      10.257  -2.865  23.759  0.00  0.00    -0.292 OA
BRANCH   9  11
ATOM     11  C   UNL     1       8.993  -1.734  22.066  0.00  0.00    +0.232 C 
BRANCH  11  12
ATOM     12  O   UNL     1       9.662  -1.058  21.017  0.00  0.00    -0.387 OA
ATOM     13  H   UNL     1      10.370  -1.652  20.702  0.00  0.00    +0.210 HD
ENDBRANCH  11  12
ENDBRANCH   9  11
ENDBRANCH   8   9
ENDBRANCH   1   8
TORSDOF 7
ENDMDL
MODEL 2
REMARK VINA RESULT:      -3.8      2.025      3.967
REMARK  Name = 
REMARK  7 active torsions:
REMARK  status: ('A' for Active; 'I' for Inactive)
REMARK    1  A    between atoms: O_1  and  C_2
REMARK    2  A    between atoms: C_2  and  C_3
REMARK    3  A    between atoms: C_3  and  C_5
REMARK    4  A    between atoms: C_5  and  O_6
REMARK    5  A    between atoms: O_6  and  P_7
REMARK    6  A    between atoms: P_7  and  O_8
REMARK    7  A    between atoms: P_7  and  O_9
REMARK                            x       y       z     vdW  Elec       q    Type
REMARK                         _______ _______ _______ _____ _____    ______ ____
ROOT
ATOM      1  O   UNL     1       9.429  -0.364  23.597  0.00  0.00    -0.279 OA
ENDROOT
BRANCH   1   2
ATOM      2  P   UNL     1       9.607  -1.799  22.940  0.00  0.00    +0.473 P 
ATOM      3  O   UNL     1      10.212  -2.878  23.765  0.00  0.00    -0.228 OA
BRANCH   2   4
ATOM      4  O   UNL     1      10.260  -1.516  21.514  0.00  0.00    -0.303 OA
ATOM      5  H   UNL     1       9.859  -0.715  21.129  0.00  0.00    +0.222 HD
ENDBRANCH   2   4
BRANCH   2   6
ATOM      6  O   UNL     1       8.111  -2.114  22.478  0.00  0.00    -0.303 OA
ATOM      7  H   UNL     1       7.583  -1.295  22.460  0.00  0.00    +0.222 HD
ENDBRANCH   2   6
ENDBRANCH   1   2
BRANCH   1   8
ATOM      8  C   UNL     1      10.568   0.456  23.734  0.00  0.00    +0.249 C 
BRANCH   8   9
ATOM      9  C   UNL     1      10.218   1.859  23.266  0.00  0.00    +0.184 C 
ATOM     10  O   UNL     1      10.903   2.849  23.542  0.00  0.00    -0.292 OA
BRANCH   9  11
ATOM     11  C   UNL     1       9.004   1.992  22.358  0.00  0.00    +0.232 C 
BRANCH  11  12
ATOM     12  O   UNL     1       9.190   1.330  21.120  0.00  0.00    -0.387 OA
ATOM     13  H   UNL     1       9.154   2.013  20.424  0.00  0.00    +0.210 HD
ENDBRANCH  11  12
ENDBRANCH   9  11
ENDBRANCH   8   9
ENDBRANCH   1   8
TORSDOF 7
ENDMDL
MODEL 3
REMARK VINA RESULT:      -3.8      3.552      5.504
REMARK  Name = 
REMARK  7 active torsions:
REMARK  status: ('A' for Active; 'I' for Inactive)
REMARK    1  A    between atoms: O_1  and  C_2
REMARK    2  A    between atoms: C_2  and  C_3
REMARK    3  A    between atoms: C_3  and  C_5
REMARK    4  A    between atoms: C_5  and  O_6
REMARK    5  A    between atoms: O_6  and  P_7
REMARK    6  A    between atoms: P_7  and  O_8
REMARK    7  A    between atoms: P_7  and  O_9
REMARK                            x       y       z     vdW  Elec       q    Type
REMARK                         _______ _______ _______ _____ _____    ______ ____
ROOT
ATOM      1  O   UNL     1       9.876  -3.930  24.464  0.00  0.00    -0.279 OA
ENDROOT
BRANCH   1   2
ATOM      2  P   UNL     1       8.940  -4.867  25.340  0.00  0.00    +0.473 P 
ATOM      3  O   UNL     1       7.584  -5.185  24.822  0.00  0.00    -0.228 OA
BRANCH   2   4
ATOM      4  O   UNL     1       9.039  -4.275  26.817  0.00  0.00    -0.303 OA
ATOM      5  H   UNL     1       9.171  -3.310  26.769  0.00  0.00    +0.222 HD
ENDBRANCH   2   4
BRANCH   2   6
ATOM      6  O   UNL     1       9.872  -6.153  25.519  0.00  0.00    -0.303 OA
ATOM      7  H   UNL     1      10.794  -5.937  25.288  0.00  0.00    +0.222 HD
ENDBRANCH   2   6
ENDBRANCH   1   2
BRANCH   1   8
ATOM      8  C   UNL     1       9.582  -2.552  24.409  0.00  0.00    +0.249 C 
BRANCH   8   9
ATOM      9  C   UNL     1       9.568  -2.113  22.955  0.00  0.00    +0.184 C 
ATOM     10  O   UNL     1      10.588  -1.778  22.344  0.00  0.00    -0.292 OA
BRANCH   9  11
ATOM     11  C   UNL     1       8.227  -2.178  22.236  0.00  0.00    +0.232 C 
BRANCH  11  12
ATOM     12  O   UNL     1       7.656  -3.472  22.290  0.00  0.00    -0.387 OA
ATOM     13  H   UNL     1       8.362  -4.104  22.055  0.00  0.00    +0.210 HD
ENDBRANCH  11  12
ENDBRANCH   9  11
ENDBRANCH   8   9
ENDBRANCH   1   8
TORSDOF 7
ENDMDL
MODEL 4
REMARK VINA RESULT:      -3.8      2.090      3.775
REMARK  Name = 
REMARK  7 active torsions:
REMARK  status: ('A' for Active; 'I' for Inactive)
REMARK    1  A    between atoms: O_1  and  C_2
REMARK    2  A    between atoms: C_2  and  C_3
REMARK    3  A    between atoms: C_3  and  C_5
REMARK    4  A    between atoms: C_5  and  O_6
REMARK    5  A    between atoms: O_6  and  P_7
REMARK    6  A    between atoms: P_7  and  O_8
REMARK    7  A    between atoms: P_7  and  O_9
REMARK                            x       y       z     vdW  Elec       q    Type
REMARK                         _______ _______ _______ _____ _____    ______ ____
ROOT
ATOM      1  O   UNL     1       8.547  -0.206  22.843  0.00  0.00    -0.279 OA
ENDROOT
BRANCH   1   2
ATOM      2  P   UNL     1       9.069  -1.671  22.524  0.00  0.00    +0.473 P 
ATOM      3  O   UNL     1       8.070  -2.704  22.141  0.00  0.00    -0.228 OA
BRANCH   2   4
ATOM      4  O   UNL     1      10.060  -2.020  23.723  0.00  0.00    -0.303 OA
ATOM      5  H   UNL     1       9.550  -2.092  24.551  0.00  0.00    +0.222 HD
ENDBRANCH   2   4
BRANCH   2   6
ATOM      6  O   UNL     1      10.146  -1.372  21.383  0.00  0.00    -0.303 OA
ATOM      7  H   UNL     1      11.029  -1.674  21.663  0.00  0.00    +0.222 HD
ENDBRANCH   2   6
ENDBRANCH   1   2
BRANCH   1   8
ATOM      8  C   UNL     1       8.922   0.388  24.066  0.00  0.00    +0.249 C 
BRANCH   8   9
ATOM      9  C   UNL     1      10.225   1.143  23.863  0.00  0.00    +0.184 C 
ATOM     10  O   UNL     1      11.284   0.812  24.403  0.00  0.00    -0.292 OA
BRANCH   9  11
ATOM     11  C   UNL     1      10.192   2.308  22.883  0.00  0.00    +0.232 C 
BRANCH  11  12
ATOM     12  O   UNL     1      10.042   1.873  21.544  0.00  0.00    -0.387 OA
ATOM     13  H   UNL     1      10.929   1.891  21.138  0.00  0.00    +0.210 HD
ENDBRANCH  11  12
ENDBRANCH   9  11
ENDBRANCH   8   9
ENDBRANCH   1   8
TORSDOF 7
ENDMDL
MODEL 5
REMARK VINA RESULT:      -3.7      5.308      7.153
REMARK  Name = 
REMARK  7 active torsions:
REMARK  status: ('A' for Active; 'I' for Inactive)
REMARK    1  A    between atoms: O_1  and  C_2
REMARK    2  A    between atoms: C_2  and  C_3
REMARK    3  A    between atoms: C_3  and  C_5
REMARK    4  A    between atoms: C_5  and  O_6
REMARK    5  A    between atoms: O_6  and  P_7
REMARK    6  A    between atoms: P_7  and  O_8
REMARK    7  A    between atoms: P_7  and  O_9
REMARK                            x       y       z     vdW  Elec       q    Type
REMARK                         _______ _______ _______ _____ _____    ______ ____
ROOT
ATOM      1  O   UNL     1       7.769  -4.381  25.484  0.00  0.00    -0.279 OA
ENDROOT
BRANCH   1   2
ATOM      2  P   UNL     1       9.300  -4.620  25.138  0.00  0.00    +0.473 P 
ATOM      3  O   UNL     1      10.026  -3.554  24.399  0.00  0.00    -0.228 OA
BRANCH   2   4
ATOM      4  O   UNL     1       9.355  -6.095  24.535  0.00  0.00    -0.303 OA
ATOM      5  H   UNL     1       9.046  -6.730  25.207  0.00  0.00    +0.222 HD
ENDBRANCH   2   4
BRANCH   2   6
ATOM      6  O   UNL     1       9.902  -4.914  26.588  0.00  0.00    -0.303 OA
ATOM      7  H   UNL     1      10.818  -5.238  26.514  0.00  0.00    +0.222 HD
ENDBRANCH   2   6
ENDBRANCH   1   2
BRANCH   1   8
ATOM      8  C   UNL     1       6.812  -5.259  24.935  0.00  0.00    +0.249 C 
BRANCH   8   9
ATOM      9  C   UNL     1       5.995  -5.861  26.066  0.00  0.00    +0.184 C 
ATOM     10  O   UNL     1       5.105  -6.697  25.881  0.00  0.00    -0.292 OA
BRANCH   9  11
ATOM     11  C   UNL     1       6.376  -5.443  27.480  0.00  0.00    +0.232 C 
BRANCH  11  12
ATOM     12  O   UNL     1       7.534  -6.115  27.940  0.00  0.00    -0.387 OA
ATOM     13  H   UNL     1       7.274  -7.039  28.115  0.00  0.00    +0.210 HD
ENDBRANCH  11  12
ENDBRANCH   9  11
ENDBRANCH   8   9
ENDBRANCH   1   8
TORSDOF 7
ENDMDL
MODEL 6
REMARK VINA RESULT:      -3.7      3.529      5.734
REMARK  Name = 
REMARK  7 active torsions:
REMARK  status: ('A' for Active; 'I' for Inactive)
REMARK    1  A    between atoms: O_1  and  C_2
REMARK    2  A    between atoms: C_2  and  C_3
REMARK    3  A    between atoms: C_3  and  C_5
REMARK    4  A    between atoms: C_5  and  O_6
REMARK    5  A    between atoms: O_6  and  P_7
REMARK    6  A    between atoms: P_7  and  O_8
REMARK    7  A    between atoms: P_7  and  O_9
REMARK                            x       y       z     vdW  Elec       q    Type
REMARK                         _______ _______ _______ _____ _____    ______ ____
ROOT
ATOM      1  O   UNL     1       8.820  -3.485  25.778  0.00  0.00    -0.279 OA
ENDROOT
BRANCH   1   2
ATOM      2  P   UNL     1       8.799  -4.979  25.242  0.00  0.00    +0.473 P 
ATOM      3  O   UNL     1       8.014  -5.272  24.014  0.00  0.00    -0.228 OA
BRANCH   2   4
ATOM      4  O   UNL     1       8.501  -5.869  26.530  0.00  0.00    -0.303 OA
ATOM      5  H   UNL     1       7.579  -6.185  26.498  0.00  0.00    +0.222 HD
ENDBRANCH   2   4
BRANCH   2   6
ATOM      6  O   UNL     1      10.361  -5.272  25.085  0.00  0.00    -0.303 OA
ATOM      7  H   UNL     1      10.507  -6.203  24.837  0.00  0.00    +0.222 HD
ENDBRANCH   2   6
ENDBRANCH   1   2
BRANCH   1   8
ATOM      8  C   UNL     1       8.434  -2.452  24.899  0.00  0.00    +0.249 C 
BRANCH   8   9
ATOM      9  C   UNL     1       9.675  -1.907  24.210  0.00  0.00    +0.184 C 
ATOM     10  O   UNL     1      10.368  -2.582  23.443  0.00  0.00    -0.292 OA
BRANCH   9  11
ATOM     11  C   UNL     1       9.996  -0.438  24.447  0.00  0.00    +0.232 C 
BRANCH  11  12
ATOM     12  O   UNL     1       9.803  -0.061  25.798  0.00  0.00    -0.387 OA
ATOM     13  H   UNL     1       9.328  -0.796  26.232  0.00  0.00    +0.210 HD
ENDBRANCH  11  12
ENDBRANCH   9  11
ENDBRANCH   8   9
ENDBRANCH   1   8
TORSDOF 7
ENDMDL
MODEL 7
REMARK VINA RESULT:      -3.6      6.444      7.777
REMARK  Name = 
REMARK  7 active torsions:
REMARK  status: ('A' for Active; 'I' for Inactive)
REMARK    1  A    between atoms: O_1  and  C_2
REMARK    2  A    between atoms: C_2  and  C_3
REMARK    3  A    between atoms: C_3  and  C_5
REMARK    4  A    between atoms: C_5  and  O_6
REMARK    5  A    between atoms: O_6  and  P_7
REMARK    6  A    between atoms: P_7  and  O_8
REMARK    7  A    between atoms: P_7  and  O_9
REMARK                            x       y       z     vdW  Elec       q    Type
REMARK                         _______ _______ _______ _____ _____    ______ ____
ROOT
ATOM      1  O   UNL     1       5.700  -5.713  24.834  0.00  0.00    -0.279 OA
ENDROOT
BRANCH   1   2
ATOM      2  P   UNL     1       4.893  -6.065  23.513  0.00  0.00    +0.473 P 
ATOM      3  O   UNL     1       4.038  -5.008  22.911  0.00  0.00    -0.228 OA
BRANCH   2   4
ATOM      4  O   UNL     1       4.209  -7.473  23.816  0.00  0.00    -0.303 OA
ATOM      5  H   UNL     1       4.871  -8.076  24.204  0.00  0.00    +0.222 HD
ENDBRANCH   2   4
BRANCH   2   6
ATOM      6  O   UNL     1       6.071  -6.555  22.553  0.00  0.00    -0.303 OA
ATOM      7  H   UNL     1       5.730  -7.186  21.893  0.00  0.00    +0.222 HD
ENDBRANCH   2   6
ENDBRANCH   1   2
BRANCH   1   8
ATOM      8  C   UNL     1       6.523  -4.569  24.832  0.00  0.00    +0.249 C 
BRANCH   8   9
ATOM      9  C   UNL     1       7.971  -5.007  24.975  0.00  0.00    +0.184 C 
ATOM     10  O   UNL     1       8.663  -5.363  24.016  0.00  0.00    -0.292 OA
BRANCH   9  11
ATOM     11  C   UNL     1       8.576  -4.915  26.369  0.00  0.00    +0.232 C 
BRANCH  11  12
ATOM     12  O   UNL     1       7.912  -5.756  27.294  0.00  0.00    -0.387 OA
ATOM     13  H   UNL     1       7.338  -6.352  26.776  0.00  0.00    +0.210 HD
ENDBRANCH  11  12
ENDBRANCH   9  11
ENDBRANCH   8   9
ENDBRANCH   1   8
TORSDOF 7
ENDMDL
MODEL 8
REMARK VINA RESULT:      -3.6      1.442      2.354
REMARK  Name = 
REMARK  7 active torsions:
REMARK  status: ('A' for Active; 'I' for Inactive)
REMARK    1  A    between atoms: O_1  and  C_2
REMARK    2  A    between atoms: C_2  and  C_3
REMARK    3  A    between atoms: C_3  and  C_5
REMARK    4  A    between atoms: C_5  and  O_6
REMARK    5  A    between atoms: O_6  and  P_7
REMARK    6  A    between atoms: P_7  and  O_8
REMARK    7  A    between atoms: P_7  and  O_9
REMARK                            x       y       z     vdW  Elec       q    Type
REMARK                         _______ _______ _______ _____ _____    ______ ____
ROOT
ATOM      1  O   UNL     1       9.266   0.907  23.472  0.00  0.00    -0.279 OA
ENDROOT
BRANCH   1   2
ATOM      2  P   UNL     1       9.231   1.038  21.890  0.00  0.00    +0.473 P 
ATOM      3  O   UNL     1       9.399  -0.198  21.081  0.00  0.00    -0.228 OA
BRANCH   2   4
ATOM      4  O   UNL     1      10.195   2.264  21.562  0.00  0.00    -0.303 OA
ATOM      5  H   UNL     1      10.706   2.495  22.359  0.00  0.00    +0.222 HD
ENDBRANCH   2   4
BRANCH   2   6
ATOM      6  O   UNL     1       7.821   1.756  21.672  0.00  0.00    -0.303 OA
ATOM      7  H   UNL     1       7.094   1.154  21.914  0.00  0.00    +0.222 HD
ENDBRANCH   2   6
ENDBRANCH   1   2
BRANCH   1   8
ATOM      8  C   UNL     1      10.254   0.087  24.055  0.00  0.00    +0.249 C 
BRANCH   8   9
ATOM      9  C   UNL     1       9.584  -1.147  24.638  0.00  0.00    +0.184 C 
ATOM     10  O   UNL     1       8.900  -1.117  25.665  0.00  0.00    -0.292 OA
BRANCH   9  11
ATOM     11  C   UNL     1       9.727  -2.438  23.845  0.00  0.00    +0.232 C 
BRANCH  11  12
ATOM     12  O   UNL     1      10.619  -2.298  22.754  0.00  0.00    -0.387 OA
ATOM     13  H   UNL     1      10.517  -1.386  22.420  0.00  0.00    +0.210 HD
ENDBRANCH  11  12
ENDBRANCH   9  11
ENDBRANCH   8   9
ENDBRANCH   1   8
TORSDOF 7
ENDMDL
MODEL 9
REMARK VINA RESULT:      -3.6      3.572      4.712
REMARK  Name = 
REMARK  7 active torsions:
REMARK  status: ('A' for Active; 'I' for Inactive)
REMARK    1  A    between atoms: O_1  and  C_2
REMARK    2  A    between atoms: C_2  and  C_3
REMARK    3  A    between atoms: C_3  and  C_5
REMARK    4  A    between atoms: C_5  and  O_6
REMARK    5  A    between atoms: O_6  and  P_7
REMARK    6  A    between atoms: P_7  and  O_8
REMARK    7  A    between atoms: P_7  and  O_9
REMARK                            x       y       z     vdW  Elec       q    Type
REMARK                         _______ _______ _______ _____ _____    ______ ____
ROOT
ATOM      1  O   UNL     1       8.093  -2.472  22.194  0.00  0.00    -0.279 OA
ENDROOT
BRANCH   1   2
ATOM      2  P   UNL     1       9.340  -1.717  22.823  0.00  0.00    +0.473 P 
ATOM      3  O   UNL     1       9.086  -0.493  23.629  0.00  0.00    -0.228 OA
BRANCH   2   4
ATOM      4  O   UNL     1      10.390  -1.601  21.629  0.00  0.00    -0.303 OA
ATOM      5  H   UNL     1      11.231  -1.247  21.973  0.00  0.00    +0.222 HD
ENDBRANCH   2   4
BRANCH   2   6
ATOM      6  O   UNL     1      10.028  -2.895  23.654  0.00  0.00    -0.303 OA
ATOM      7  H   UNL     1      10.636  -2.529  24.321  0.00  0.00    +0.222 HD
ENDBRANCH   2   6
ENDBRANCH   1   2
BRANCH   1   8
ATOM      8  C   UNL     1       7.637  -3.650  22.821  0.00  0.00    +0.249 C 
BRANCH   8   9
ATOM      9  C   UNL     1       6.578  -4.293  21.941  0.00  0.00    +0.184 C 
ATOM     10  O   UNL     1       5.606  -3.674  21.498  0.00  0.00    -0.292 OA
BRANCH   9  11
ATOM     11  C   UNL     1       6.807  -5.747  21.553  0.00  0.00    +0.232 C 
BRANCH  11  12
ATOM     12  O   UNL     1       5.590  -6.453  21.389  0.00  0.00    -0.387 OA
ATOM     13  H   UNL     1       5.348  -6.385  20.446  0.00  0.00    +0.210 HD
ENDBRANCH  11  12
ENDBRANCH   9  11
ENDBRANCH   8   9
ENDBRANCH   1   8
TORSDOF 7
ENDMDL
