MODEL 1
REMARK VINA RESULT:      -7.0      0.000      0.000
REMARK  Name = 
REMARK  2 active torsions:
REMARK  status: ('A' for Active; 'I' for Inactive)
REMARK    1  A    between atoms: C_5  and  C_8
REMARK    2  A    between atoms: C_11  and  C_13
REMARK                            x       y       z     vdW  Elec       q    Type
REMARK                         _______ _______ _______ _____ _____    ______ ____
ROOT
ATOM      1  C   UNL     1       8.864  -1.595  23.208  0.00  0.00    +0.093 A 
ATOM      2  C   UNL     1       8.934  -2.586  24.224  0.00  0.00    +0.053 A 
ATOM      3  C   UNL     1       8.269  -3.689  23.737  0.00  0.00    +0.040 A 
ATOM      4  N   UNL     1       7.751  -3.276  22.538  0.00  0.00    -0.281 N 
ATOM      5  H   UNL     1       7.174  -3.807  21.894  0.00  0.00    +0.189 HD
ATOM      6  N   UNL     1       8.124  -2.040  22.183  0.00  0.00    -0.174 NA
ENDROOT
BRANCH   1  11
ATOM      7 CL   UNL     1      11.350   3.863  23.235  0.00  0.00    -0.084 Cl
ATOM      8  C   UNL     1      10.661   2.288  23.218  0.00  0.00    +0.041 A 
ATOM      9  C   UNL     1      10.670   1.517  24.377  0.00  0.00    +0.020 A 
ATOM     10  C   UNL     1      10.091   0.246  24.370  0.00  0.00    +0.011 A 
ATOM     11  C   UNL     1       9.491  -0.268  23.208  0.00  0.00    +0.002 A 
ATOM     12  C   UNL     1       9.512   0.515  22.044  0.00  0.00    +0.011 A 
ATOM     13  C   UNL     1      10.092   1.791  22.048  0.00  0.00    +0.020 A 
ENDBRANCH   1  11
BRANCH   3  14
ATOM     14  C   UNL     1       8.082  -5.091  24.252  0.00  0.00    +0.040 C 
ATOM     15  C   UNL     1       6.762  -5.298  25.014  0.00  0.00    +0.025 C 
ATOM     16  C   UNL     1       6.782  -4.728  26.438  0.00  0.00    +0.081 C 
ATOM     17  N   UNL     1       7.949  -5.174  27.199  0.00  0.00    -0.316 NA
ATOM     18  H   UNL     1       7.938  -4.726  28.115  0.00  0.00    +0.122 HD
ATOM     19  C   UNL     1       9.194  -4.828  26.515  0.00  0.00    +0.081 C 
ATOM     20  C   UNL     1       9.260  -5.505  25.147  0.00  0.00    +0.025 C 
ENDBRANCH   3  14
TORSDOF 2
ENDMDL
MODEL 2
REMARK VINA RESULT:      -6.7      1.866      2.636
REMARK  Name = 
REMARK  2 active torsions:
REMARK  status: ('A' for Active; 'I' for Inactive)
REMARK    1  A    between atoms: C_5  and  C_8
REMARK    2  A    between atoms: C_11  and  C_13
REMARK                            x       y       z     vdW  Elec       q    Type
REMARK                         _______ _______ _______ _____ _____    ______ ____
ROOT
ATOM      1  C   UNL     1       8.169  -1.491  23.164  0.00  0.00    +0.093 A 
ATOM      2  C   UNL     1       8.565  -2.782  23.606  0.00  0.00    +0.053 A 
ATOM      3  C   UNL     1       7.530  -3.635  23.294  0.00  0.00    +0.040 A 
ATOM      4  N   UNL     1       6.548  -2.817  22.801  0.00  0.00    -0.281 N 
ATOM      5  H   UNL     1       5.619  -3.078  22.488  0.00  0.00    +0.189 HD
ATOM      6  N   UNL     1       6.920  -1.535  22.679  0.00  0.00    -0.174 NA
ENDROOT
BRANCH   1  11
ATOM      7 CL   UNL     1      11.321   3.609  23.298  0.00  0.00    -0.084 Cl
ATOM      8  C   UNL     1      10.440   2.133  23.253  0.00  0.00    +0.041 A 
ATOM      9  C   UNL     1      10.235   1.416  24.428  0.00  0.00    +0.020 A 
ATOM     10  C   UNL     1       9.500   0.228  24.396  0.00  0.00    +0.011 A 
ATOM     11  C   UNL     1       8.959  -0.254  23.192  0.00  0.00    +0.002 A 
ATOM     12  C   UNL     1       9.196   0.472  22.015  0.00  0.00    +0.011 A 
ATOM     13  C   UNL     1       9.931   1.664  22.045  0.00  0.00    +0.020 A 
ENDBRANCH   1  11
BRANCH   3  14
ATOM     14  C   UNL     1       7.361  -5.127  23.382  0.00  0.00    +0.040 C 
ATOM     15  C   UNL     1       7.414  -5.838  22.020  0.00  0.00    +0.025 C 
ATOM     16  C   UNL     1       6.123  -5.693  21.204  0.00  0.00    +0.081 C 
ATOM     17  N   UNL     1       4.933  -6.047  21.978  0.00  0.00    -0.316 NA
ATOM     18  H   UNL     1       4.106  -5.884  21.405  0.00  0.00    +0.122 HD
ATOM     19  C   UNL     1       4.835  -5.246  23.197  0.00  0.00    +0.081 C 
ATOM     20  C   UNL     1       6.047  -5.486  24.095  0.00  0.00    +0.025 C 
ENDBRANCH   3  14
TORSDOF 2
ENDMDL
MODEL 3
REMARK VINA RESULT:      -6.5      3.800      7.103
REMARK  Name = 
REMARK  2 active torsions:
REMARK  status: ('A' for Active; 'I' for Inactive)
REMARK    1  A    between atoms: C_5  and  C_8
REMARK    2  A    between atoms: C_11  and  C_13
REMARK                            x       y       z     vdW  Elec       q    Type
REMARK                         _______ _______ _______ _____ _____    ______ ____
ROOT
ATOM      1  C   UNL     1       8.503  -1.689  25.812  0.00  0.00    +0.093 A 
ATOM      2  C   UNL     1       9.064  -1.526  24.517  0.00  0.00    +0.053 A 
ATOM      3  C   UNL     1       9.703  -0.306  24.520  0.00  0.00    +0.040 A 
ATOM      4  N   UNL     1       9.403   0.235  25.742  0.00  0.00    -0.281 N 
ATOM      5  H   UNL     1       9.675   1.144  26.105  0.00  0.00    +0.189 HD
ATOM      6  N   UNL     1       8.717  -0.588  26.547  0.00  0.00    -0.174 NA
ENDROOT
BRANCH   1  11
ATOM      7 CL   UNL     1       5.630  -6.453  28.049  0.00  0.00    -0.084 Cl
ATOM      8  C   UNL     1       6.446  -5.095  27.382  0.00  0.00    +0.041 A 
ATOM      9  C   UNL     1       5.793  -3.869  27.299  0.00  0.00    +0.020 A 
ATOM     10  C   UNL     1       6.463  -2.760  26.779  0.00  0.00    +0.011 A 
ATOM     11  C   UNL     1       7.794  -2.861  26.339  0.00  0.00    +0.002 A 
ATOM     12  C   UNL     1       8.428  -4.111  26.410  0.00  0.00    +0.011 A 
ATOM     13  C   UNL     1       7.758  -5.225  26.933  0.00  0.00    +0.020 A 
ENDBRANCH   1  11
BRANCH   3  14
ATOM     14  C   UNL     1      10.578   0.403  23.522  0.00  0.00    +0.040 C 
ATOM     15  C   UNL     1      10.605   1.930  23.697  0.00  0.00    +0.025 C 
ATOM     16  C   UNL     1       9.349   2.629  23.161  0.00  0.00    +0.081 C 
ATOM     17  N   UNL     1       9.029   2.224  21.792  0.00  0.00    -0.316 NA
ATOM     18  H   UNL     1       8.162   2.677  21.507  0.00  0.00    +0.122 HD
ATOM     19  C   UNL     1       8.864   0.774  21.692  0.00  0.00    +0.081 C 
ATOM     20  C   UNL     1      10.156   0.060  22.085  0.00  0.00    +0.025 C 
ENDBRANCH   3  14
TORSDOF 2
ENDMDL
MODEL 4
REMARK VINA RESULT:      -6.5      1.756      2.684
REMARK  Name = 
REMARK  2 active torsions:
REMARK  status: ('A' for Active; 'I' for Inactive)
REMARK    1  A    between atoms: C_5  and  C_8
REMARK    2  A    between atoms: C_11  and  C_13
REMARK                            x       y       z     vdW  Elec       q    Type
REMARK                         _______ _______ _______ _____ _____    ______ ____
ROOT
ATOM      1  C   UNL     1       9.044  -1.992  24.097  0.00  0.00    +0.093 A 
ATOM      2  C   UNL     1       8.633  -2.976  23.159  0.00  0.00    +0.053 A 
ATOM      3  C   UNL     1       8.123  -4.025  23.892  0.00  0.00    +0.040 A 
ATOM      4  N   UNL     1       8.354  -3.676  25.196  0.00  0.00    -0.281 N 
ATOM      5  H   UNL     1       8.140  -4.211  26.031  0.00  0.00    +0.189 HD
ATOM      6  N   UNL     1       8.870  -2.448  25.347  0.00  0.00    -0.174 NA
ENDROOT
BRANCH   1  11
ATOM      7 CL   UNL     1      11.144   3.512  22.980  0.00  0.00    -0.084 Cl
ATOM      8  C   UNL     1      10.565   1.923  23.289  0.00  0.00    +0.041 A 
ATOM      9  C   UNL     1      10.769   1.346  24.539  0.00  0.00    +0.020 A 
ATOM     10  C   UNL     1      10.279   0.063  24.798  0.00  0.00    +0.011 A 
ATOM     11  C   UNL     1       9.576  -0.654  23.816  0.00  0.00    +0.002 A 
ATOM     12  C   UNL     1       9.401  -0.063  22.555  0.00  0.00    +0.011 A 
ATOM     13  C   UNL     1       9.890   1.223  22.292  0.00  0.00    +0.020 A 
ENDBRANCH   1  11
BRANCH   3  14
ATOM     14  C   UNL     1       7.426  -5.304  23.516  0.00  0.00    +0.040 C 
ATOM     15  C   UNL     1       7.198  -5.463  22.004  0.00  0.00    +0.025 C 
ATOM     16  C   UNL     1       6.034  -4.617  21.469  0.00  0.00    +0.081 C 
ATOM     17  N   UNL     1       4.809  -4.802  22.247  0.00  0.00    -0.316 NA
ATOM     18  H   UNL     1       4.088  -4.181  21.881  0.00  0.00    +0.122 HD
ATOM     19  C   UNL     1       5.026  -4.499  23.661  0.00  0.00    +0.081 C 
ATOM     20  C   UNL     1       6.082  -5.430  24.252  0.00  0.00    +0.025 C 
ENDBRANCH   3  14
TORSDOF 2
ENDMDL
MODEL 5
REMARK VINA RESULT:      -6.5      3.700      7.044
REMARK  Name = 
REMARK  2 active torsions:
REMARK  status: ('A' for Active; 'I' for Inactive)
REMARK    1  A    between atoms: C_5  and  C_8
REMARK    2  A    between atoms: C_11  and  C_13
REMARK                            x       y       z     vdW  Elec       q    Type
REMARK                         _______ _______ _______ _____ _____    ______ ____
ROOT
ATOM      1  C   UNL     1       8.152  -1.917  22.383  0.00  0.00    +0.093 A 
ATOM      2  C   UNL     1       7.839  -0.538  22.525  0.00  0.00    +0.053 A 
ATOM      3  C   UNL     1       8.894   0.159  21.979  0.00  0.00    +0.040 A 
ATOM      4  N   UNL     1       9.810  -0.806  21.653  0.00  0.00    -0.281 N 
ATOM      5  H   UNL     1      10.732  -0.678  21.249  0.00  0.00    +0.189 HD
ATOM      6  N   UNL     1       9.375  -2.057  21.851  0.00  0.00    -0.174 NA
ENDROOT
BRANCH   1  11
ATOM      7 CL   UNL     1       4.693  -6.576  23.895  0.00  0.00    -0.084 Cl
ATOM      8  C   UNL     1       5.690  -5.253  23.438  0.00  0.00    +0.041 A 
ATOM      9  C   UNL     1       5.124  -4.143  22.817  0.00  0.00    +0.020 A 
ATOM     10  C   UNL     1       5.931  -3.058  22.466  0.00  0.00    +0.011 A 
ATOM     11  C   UNL     1       7.310  -3.067  22.734  0.00  0.00    +0.002 A 
ATOM     12  C   UNL     1       7.865  -4.204  23.340  0.00  0.00    +0.011 A 
ATOM     13  C   UNL     1       7.059  -5.293  23.694  0.00  0.00    +0.020 A 
ENDBRANCH   1  11
BRANCH   3  14
ATOM     14  C   UNL     1       9.135   1.619  21.706  0.00  0.00    +0.040 C 
ATOM     15  C   UNL     1      10.464   2.143  22.275  0.00  0.00    +0.025 C 
ATOM     16  C   UNL     1      10.428   2.383  23.790  0.00  0.00    +0.081 C 
ATOM     17  N   UNL     1       9.281   3.196  24.197  0.00  0.00    -0.316 NA
ATOM     18  H   UNL     1       9.280   3.280  25.213  0.00  0.00    +0.122 HD
ATOM     19  C   UNL     1       8.022   2.590  23.767  0.00  0.00    +0.081 C 
ATOM     20  C   UNL     1       7.976   2.473  22.245  0.00  0.00    +0.025 C 
ENDBRANCH   3  14
TORSDOF 2
ENDMDL
MODEL 6
REMARK VINA RESULT:      -6.4      3.435      6.889
REMARK  Name = 
REMARK  2 active torsions:
REMARK  status: ('A' for Active; 'I' for Inactive)
REMARK    1  A    between atoms: C_5  and  C_8
REMARK    2  A    between atoms: C_11  and  C_13
REMARK                            x       y       z     vdW  Elec       q    Type
REMARK                         _______ _______ _______ _____ _____    ______ ____
ROOT
ATOM      1  C   UNL     1       8.978  -2.384  24.415  0.00  0.00    +0.093 A 
ATOM      2  C   UNL     1       8.986  -0.987  24.675  0.00  0.00    +0.053 A 
ATOM      3  C   UNL     1       9.876  -0.430  23.783  0.00  0.00    +0.040 A 
ATOM      4  N   UNL     1      10.425  -1.502  23.133  0.00  0.00    -0.281 N 
ATOM      5  H   UNL     1      11.145  -1.495  22.417  0.00  0.00    +0.189 HD
ATOM      6  N   UNL     1       9.878  -2.679  23.466  0.00  0.00    -0.174 NA
ENDROOT
BRANCH   1  11
ATOM      7 CL   UNL     1       5.486  -6.498  27.030  0.00  0.00    -0.084 Cl
ATOM      8  C   UNL     1       6.498  -5.338  26.264  0.00  0.00    +0.041 A 
ATOM      9  C   UNL     1       6.019  -4.614  25.177  0.00  0.00    +0.020 A 
ATOM     10  C   UNL     1       6.833  -3.656  24.569  0.00  0.00    +0.011 A 
ATOM     11  C   UNL     1       8.132  -3.406  25.042  0.00  0.00    +0.002 A 
ATOM     12  C   UNL     1       8.604  -4.162  26.125  0.00  0.00    +0.011 A 
ATOM     13  C   UNL     1       7.790  -5.123  26.738  0.00  0.00    +0.020 A 
ENDBRANCH   1  11
BRANCH   3  14
ATOM     14  C   UNL     1      10.255   0.988  23.455  0.00  0.00    +0.040 C 
ATOM     15  C   UNL     1       9.506   2.039  24.291  0.00  0.00    +0.025 C 
ATOM     16  C   UNL     1       8.061   2.269  23.830  0.00  0.00    +0.081 C 
ATOM     17  N   UNL     1       7.970   2.523  22.392  0.00  0.00    -0.316 NA
ATOM     18  H   UNL     1       6.988   2.618  22.135  0.00  0.00    +0.122 HD
ATOM     19  C   UNL     1       8.561   1.431  21.621  0.00  0.00    +0.081 C 
ATOM     20  C   UNL     1      10.043   1.277  21.960  0.00  0.00    +0.025 C 
ENDBRANCH   3  14
TORSDOF 2
ENDMDL
MODEL 7
REMARK VINA RESULT:      -6.4      3.684      7.060
REMARK  Name = 
REMARK  2 active torsions:
REMARK  status: ('A' for Active; 'I' for Inactive)
REMARK    1  A    between atoms: C_5  and  C_8
REMARK    2  A    between atoms: C_11  and  C_13
REMARK                            x       y       z     vdW  Elec       q    Type
REMARK                         _______ _______ _______ _____ _____    ______ ____
ROOT
ATOM      1  C   UNL     1       8.247  -3.507  23.764  0.00  0.00    +0.093 A 
ATOM      2  C   UNL     1       8.221  -2.244  23.116  0.00  0.00    +0.053 A 
ATOM      3  C   UNL     1       9.508  -1.756  23.161  0.00  0.00    +0.040 A 
ATOM      4  N   UNL     1      10.195  -2.672  23.912  0.00  0.00    -0.281 N 
ATOM      5  H   UNL     1      11.171  -2.644  24.189  0.00  0.00    +0.189 HD
ATOM      6  N   UNL     1       9.472  -3.747  24.254  0.00  0.00    -0.174 NA
ENDROOT
BRANCH   1  11
ATOM      7 CL   UNL     1       3.677  -7.351  24.318  0.00  0.00    -0.084 Cl
ATOM      8  C   UNL     1       5.004  -6.269  24.166  0.00  0.00    +0.041 A 
ATOM      9  C   UNL     1       5.592  -6.067  22.921  0.00  0.00    +0.020 A 
ATOM     10  C   UNL     1       6.656  -5.171  22.792  0.00  0.00    +0.011 A 
ATOM     11  C   UNL     1       7.142  -4.464  23.904  0.00  0.00    +0.002 A 
ATOM     12  C   UNL     1       6.552  -4.698  25.155  0.00  0.00    +0.011 A 
ATOM     13  C   UNL     1       5.484  -5.596  25.287  0.00  0.00    +0.020 A 
ENDBRANCH   1  11
BRANCH   3  14
ATOM     14  C   UNL     1      10.175  -0.546  22.564  0.00  0.00    +0.040 C 
ATOM     15  C   UNL     1      10.678   0.462  23.611  0.00  0.00    +0.025 C 
ATOM     16  C   UNL     1       9.561   1.319  24.219  0.00  0.00    +0.081 C 
ATOM     17  N   UNL     1       8.718   1.941  23.198  0.00  0.00    -0.316 NA
ATOM     18  H   UNL     1       7.966   2.454  23.657  0.00  0.00    +0.122 HD
ATOM     19  C   UNL     1       8.135   0.937  22.308  0.00  0.00    +0.081 C 
ATOM     20  C   UNL     1       9.233   0.165  21.579  0.00  0.00    +0.025 C 
ENDBRANCH   3  14
TORSDOF 2
ENDMDL
MODEL 8
REMARK VINA RESULT:      -6.3      1.478      1.831
REMARK  Name = 
REMARK  2 active torsions:
REMARK  status: ('A' for Active; 'I' for Inactive)
REMARK    1  A    between atoms: C_5  and  C_8
REMARK    2  A    between atoms: C_11  and  C_13
REMARK                            x       y       z     vdW  Elec       q    Type
REMARK                         _______ _______ _______ _____ _____    ______ ____
ROOT
ATOM      1  C   UNL     1       9.071  -0.743  23.896  0.00  0.00    +0.093 A 
ATOM      2  C   UNL     1       7.854  -1.463  24.036  0.00  0.00    +0.053 A 
ATOM      3  C   UNL     1       8.190  -2.798  24.043  0.00  0.00    +0.040 A 
ATOM      4  N   UNL     1       9.537  -2.814  23.797  0.00  0.00    -0.281 N 
ATOM      5  H   UNL     1      10.143  -3.623  23.702  0.00  0.00    +0.189 HD
ATOM      6  N   UNL     1      10.094  -1.597  23.742  0.00  0.00    -0.174 NA
ENDROOT
BRANCH   1  11
ATOM      7 CL   UNL     1       9.901   5.194  24.043  0.00  0.00    -0.084 Cl
ATOM      8  C   UNL     1       9.643   3.496  23.983  0.00  0.00    +0.041 A 
ATOM      9  C   UNL     1      10.390   2.714  23.108  0.00  0.00    +0.020 A 
ATOM     10  C   UNL     1      10.197   1.331  23.074  0.00  0.00    +0.011 A 
ATOM     11  C   UNL     1       9.258   0.712  23.917  0.00  0.00    +0.002 A 
ATOM     12  C   UNL     1       8.498   1.520  24.777  0.00  0.00    +0.011 A 
ATOM     13  C   UNL     1       8.691   2.907  24.813  0.00  0.00    +0.020 A 
ENDBRANCH   1  11
BRANCH   3  14
ATOM     14  C   UNL     1       7.402  -4.059  24.274  0.00  0.00    +0.040 C 
ATOM     15  C   UNL     1       6.679  -4.096  25.630  0.00  0.00    +0.025 C 
ATOM     16  C   UNL     1       7.609  -4.406  26.811  0.00  0.00    +0.081 C 
ATOM     17  N   UNL     1       8.428  -5.595  26.576  0.00  0.00    -0.316 NA
ATOM     18  H   UNL     1       9.060  -5.723  27.366  0.00  0.00    +0.122 HD
ATOM     19  C   UNL     1       9.218  -5.463  25.352  0.00  0.00    +0.081 C 
ATOM     20  C   UNL     1       8.302  -5.298  24.140  0.00  0.00    +0.025 C 
ENDBRANCH   3  14
TORSDOF 2
ENDMDL
MODEL 9
REMARK VINA RESULT:      -6.2      1.675      2.394
REMARK  Name = 
REMARK  2 active torsions:
REMARK  status: ('A' for Active; 'I' for Inactive)
REMARK    1  A    between atoms: C_5  and  C_8
REMARK    2  A    between atoms: C_11  and  C_13
REMARK                            x       y       z     vdW  Elec       q    Type
REMARK                         _______ _______ _______ _____ _____    ______ ____
ROOT
ATOM      1  C   UNL     1       7.927  -1.215  22.804  0.00  0.00    +0.093 A 
ATOM      2  C   UNL     1       6.611  -1.426  23.295  0.00  0.00    +0.053 A 
ATOM      3  C   UNL     1       6.283  -2.727  22.983  0.00  0.00    +0.040 A 
ATOM      4  N   UNL     1       7.342  -3.179  22.241  0.00  0.00    -0.281 N 
ATOM      5  H   UNL     1       7.455  -4.089  21.807  0.00  0.00    +0.189 HD
ATOM      6  N   UNL     1       8.354  -2.306  22.151  0.00  0.00    -0.174 NA
ENDROOT
BRANCH   1  11
ATOM      7 CL   UNL     1      11.399   3.635  23.428  0.00  0.00    -0.084 Cl
ATOM      8  C   UNL     1      10.382   2.260  23.253  0.00  0.00    +0.041 A 
ATOM      9  C   UNL     1       9.999   1.842  21.982  0.00  0.00    +0.020 A 
ATOM     10  C   UNL     1       9.190   0.712  21.837  0.00  0.00    +0.011 A 
ATOM     11  C   UNL     1       8.759  -0.015  22.959  0.00  0.00    +0.002 A 
ATOM     12  C   UNL     1       9.137   0.435  24.233  0.00  0.00    +0.011 A 
ATOM     13  C   UNL     1       9.949   1.567  24.381  0.00  0.00    +0.020 A 
ENDBRANCH   1  11
BRANCH   3  14
ATOM     14  C   UNL     1       5.105  -3.602  23.316  0.00  0.00    +0.040 C 
ATOM     15  C   UNL     1       4.369  -3.185  24.600  0.00  0.00    +0.025 C 
ATOM     16  C   UNL     1       5.099  -3.598  25.885  0.00  0.00    +0.081 C 
ATOM     17  N   UNL     1       5.472  -5.013  25.882  0.00  0.00    -0.316 NA
ATOM     18  H   UNL     1       5.996  -5.218  26.732  0.00  0.00    +0.122 HD
ATOM     19  C   UNL     1       6.298  -5.343  24.722  0.00  0.00    +0.081 C 
ATOM     20  C   UNL     1       5.534  -5.074  23.427  0.00  0.00    +0.025 C 
ENDBRANCH   3  14
TORSDOF 2
ENDMDL
