MODEL 1
REMARK VINA RESULT:      -7.3      0.000      0.000
REMARK  Name = 
REMARK  11 active torsions:
REMARK  status: ('A' for Active; 'I' for Inactive)
REMARK    1  A    between atoms: O_1  and  N_2
REMARK    2  A    between atoms: C_3  and  C_5
REMARK    3  A    between atoms: C_6  and  C_7
REMARK    4  A    between atoms: C_7  and  C_8
REMARK    5  A    between atoms: C_9  and  C_10
REMARK    6  A    between atoms: C_10  and  C_11
REMARK    7  A    between atoms: C_10  and  C_13
REMARK    8  A    between atoms: C_13  and  C_15
REMARK    9  A    between atoms: C_18  and  N_19
REMARK   10  A    between atoms: N_19  and  C_20
REMARK   11  A    between atoms: N_19  and  C_21
REMARK                            x       y       z     vdW  Elec       q    Type
REMARK                         _______ _______ _______ _____ _____    ______ ____
ROOT
ATOM      1  C   UNL     1       7.735  -2.083  22.468  0.00  0.00    +0.080 C 
ATOM      2  C   UNL     1       6.845  -1.767  23.673  0.00  0.00    +0.020 C 
ENDROOT
BRANCH   1   4
ATOM      3  C   UNL     1       7.368  -4.619  22.657  0.00  0.00    -0.054 C 
ATOM      4  C   UNL     1       7.557  -3.489  21.946  0.00  0.00    -0.013 C 
ATOM      5  C   UNL     1       6.955  -5.884  21.950  0.00  0.00    +0.043 C 
BRANCH   3   7
ATOM      6  C   UNL     1       8.561  -4.940  24.786  0.00  0.00    +0.069 C 
ATOM      7  C   UNL     1       7.432  -4.709  24.102  0.00  0.00    +0.008 C 
BRANCH   6  10
ATOM      8  N   UNL     1       7.543  -5.939  26.661  0.00  0.00    -0.194 N 
ATOM      9  H   UNL     1       7.202  -6.646  26.017  0.00  0.00    +0.183 HD
ATOM     10  C   UNL     1       8.514  -5.049  26.262  0.00  0.00    +0.259 C 
ATOM     11  O   UNL     1       9.274  -4.417  26.978  0.00  0.00    -0.269 OA
BRANCH   8  12
ATOM     12  O   UNL     1       7.474  -6.207  28.043  0.00  0.00    -0.295 OA
ATOM     13  H   UNL     1       8.390  -6.441  28.276  0.00  0.00    +0.241 HD
ENDBRANCH   8  12
ENDBRANCH   6  10
ENDBRANCH   3   7
ENDBRANCH   1   4
BRANCH   1  14
ATOM     14  C   UNL     1       9.213  -1.754  22.767  0.00  0.00    +0.170 C 
ATOM     15  O   UNL     1      10.049  -2.666  22.780  0.00  0.00    -0.291 OA
BRANCH  14  16
ATOM     16  C   UNL     1       9.664  -0.340  23.017  0.00  0.00    +0.018 A 
ATOM     17  C   UNL     1       9.748   0.548  21.945  0.00  0.00    +0.013 A 
ATOM     18  C   UNL     1      10.110   1.895  22.152  0.00  0.00    +0.024 A 
ATOM     19  C   UNL     1      10.417   2.410  23.425  0.00  0.00    +0.029 A 
ATOM     20  C   UNL     1      10.361   1.486  24.473  0.00  0.00    +0.024 A 
ATOM     21  C   UNL     1       9.986   0.148  24.281  0.00  0.00    +0.013 A 
BRANCH  19  22
ATOM     22  N   UNL     1      10.676   3.759  23.640  0.00  0.00    -0.336 N 
ATOM     23  C   UNL     1      11.935   4.371  23.208  0.00  0.00    +0.129 C 
ATOM     24  C   UNL     1       9.580   4.717  23.787  0.00  0.00    +0.129 C 
ENDBRANCH  19  22
ENDBRANCH  14  16
ENDBRANCH   1  14
TORSDOF 7
ENDMDL
MODEL 2
REMARK VINA RESULT:      -7.2      2.262      3.196
REMARK  Name = 
REMARK  11 active torsions:
REMARK  status: ('A' for Active; 'I' for Inactive)
REMARK    1  A    between atoms: O_1  and  N_2
REMARK    2  A    between atoms: C_3  and  C_5
REMARK    3  A    between atoms: C_6  and  C_7
REMARK    4  A    between atoms: C_7  and  C_8
REMARK    5  A    between atoms: C_9  and  C_10
REMARK    6  A    between atoms: C_10  and  C_11
REMARK    7  A    between atoms: C_10  and  C_13
REMARK    8  A    between atoms: C_13  and  C_15
REMARK    9  A    between atoms: C_18  and  N_19
REMARK   10  A    between atoms: N_19  and  C_20
REMARK   11  A    between atoms: N_19  and  C_21
REMARK                            x       y       z     vdW  Elec       q    Type
REMARK                         _______ _______ _______ _____ _____    ______ ____
ROOT
ATOM      1  C   UNL     1       8.709  -2.236  23.362  0.00  0.00    +0.080 C 
ATOM      2  C   UNL     1       7.688  -1.233  23.908  0.00  0.00    +0.020 C 
ENDROOT
BRANCH   1   4
ATOM      3  C   UNL     1       8.458  -4.539  24.472  0.00  0.00    -0.054 C 
ATOM      4  C   UNL     1       9.049  -3.334  24.341  0.00  0.00    -0.013 C 
ATOM      5  C   UNL     1       9.104  -5.596  25.331  0.00  0.00    +0.043 C 
BRANCH   3   7
ATOM      6  C   UNL     1       7.282  -5.455  22.513  0.00  0.00    +0.069 C 
ATOM      7  C   UNL     1       7.269  -4.962  23.759  0.00  0.00    +0.008 C 
BRANCH   6  10
ATOM      8  N   UNL     1       5.061  -6.186  22.791  0.00  0.00    -0.194 N 
ATOM      9  H   UNL     1       5.149  -5.878  23.754  0.00  0.00    +0.183 HD
ATOM     10  C   UNL     1       6.007  -5.826  21.859  0.00  0.00    +0.259 C 
ATOM     11  O   UNL     1       5.870  -5.784  20.647  0.00  0.00    -0.269 OA
BRANCH   8  12
ATOM     12  O   UNL     1       3.770  -6.459  22.294  0.00  0.00    -0.295 OA
ATOM     13  H   UNL     1       3.512  -7.272  22.764  0.00  0.00    +0.241 HD
ENDBRANCH   8  12
ENDBRANCH   6  10
ENDBRANCH   3   7
ENDBRANCH   1   4
BRANCH   1  14
ATOM     14  C   UNL     1       9.966  -1.516  22.832  0.00  0.00    +0.170 C 
ATOM     15  O   UNL     1      10.854  -2.171  22.274  0.00  0.00    -0.291 OA
BRANCH  14  16
ATOM     16  C   UNL     1      10.123  -0.023  22.958  0.00  0.00    +0.018 A 
ATOM     17  C   UNL     1      10.651   0.509  24.134  0.00  0.00    +0.013 A 
ATOM     18  C   UNL     1      10.866   1.897  24.263  0.00  0.00    +0.024 A 
ATOM     19  C   UNL     1      10.554   2.811  23.240  0.00  0.00    +0.029 A 
ATOM     20  C   UNL     1       9.991   2.250  22.089  0.00  0.00    +0.024 A 
ATOM     21  C   UNL     1       9.787   0.870  21.943  0.00  0.00    +0.013 A 
BRANCH  19  22
ATOM     22  N   UNL     1      10.859   4.164  23.332  0.00  0.00    -0.336 N 
ATOM     23  C   UNL     1       9.937   5.111  23.963  0.00  0.00    +0.129 C 
ATOM     24  C   UNL     1      12.249   4.619  23.319  0.00  0.00    +0.129 C 
ENDBRANCH  19  22
ENDBRANCH  14  16
ENDBRANCH   1  14
TORSDOF 7
ENDMDL
MODEL 3
REMARK VINA RESULT:      -7.0      3.278      5.810
REMARK  Name = 
REMARK  11 active torsions:
REMARK  status: ('A' for Active; 'I' for Inactive)
REMARK    1  A    between atoms: O_1  and  N_2
REMARK    2  A    between atoms: C_3  and  C_5
REMARK    3  A    between atoms: C_6  and  C_7
REMARK    4  A    between atoms: C_7  and  C_8
REMARK    5  A    between atoms: C_9  and  C_10
REMARK    6  A    between atoms: C_10  and  C_11
REMARK    7  A    between atoms: C_10  and  C_13
REMARK    8  A    between atoms: C_13  and  C_15
REMARK    9  A    between atoms: C_18  and  N_19
REMARK   10  A    between atoms: N_19  and  C_20
REMARK   11  A    between atoms: N_19  and  C_21
REMARK                            x       y       z     vdW  Elec       q    Type
REMARK                         _______ _______ _______ _____ _____    ______ ____
ROOT
ATOM      1  C   UNL     1       3.811  -6.733  24.661  0.00  0.00    +0.080 C 
ATOM      2  C   UNL     1       2.810  -7.842  24.326  0.00  0.00    +0.020 C 
ENDROOT
BRANCH   1   4
ATOM      3  C   UNL     1       4.477  -5.549  26.842  0.00  0.00    -0.054 C 
ATOM      4  C   UNL     1       3.569  -6.099  26.010  0.00  0.00    -0.013 C 
ATOM      5  C   UNL     1       4.011  -4.739  28.024  0.00  0.00    +0.043 C 
BRANCH   3   7
ATOM      6  C   UNL     1       6.734  -4.573  26.960  0.00  0.00    +0.069 C 
ATOM      7  C   UNL     1       5.912  -5.583  26.642  0.00  0.00    +0.008 C 
BRANCH   6  10
ATOM      8  N   UNL     1       8.472  -5.893  26.075  0.00  0.00    -0.194 N 
ATOM      9  H   UNL     1       7.745  -6.407  25.587  0.00  0.00    +0.183 HD
ATOM     10  C   UNL     1       8.184  -4.693  26.683  0.00  0.00    +0.259 C 
ATOM     11  O   UNL     1       8.968  -3.802  26.967  0.00  0.00    -0.269 OA
BRANCH   8  12
ATOM     12  O   UNL     1       9.808  -6.078  25.665  0.00  0.00    -0.295 OA
ATOM     13  H   UNL     1       9.723  -6.465  24.776  0.00  0.00    +0.241 HD
ENDBRANCH   8  12
ENDBRANCH   6  10
ENDBRANCH   3   7
ENDBRANCH   1   4
BRANCH   1  14
ATOM     14  C   UNL     1       3.881  -5.687  23.529  0.00  0.00    +0.170 C 
ATOM     15  O   UNL     1       2.880  -5.471  22.836  0.00  0.00    -0.291 OA
BRANCH  14  16
ATOM     16  C   UNL     1       5.139  -4.902  23.267  0.00  0.00    +0.018 A 
ATOM     17  C   UNL     1       5.094  -3.509  23.309  0.00  0.00    +0.013 A 
ATOM     18  C   UNL     1       6.266  -2.745  23.126  0.00  0.00    +0.024 A 
ATOM     19  C   UNL     1       7.521  -3.330  22.880  0.00  0.00    +0.029 A 
ATOM     20  C   UNL     1       7.526  -4.726  22.805  0.00  0.00    +0.024 A 
ATOM     21  C   UNL     1       6.370  -5.497  23.001  0.00  0.00    +0.013 A 
BRANCH  19  22
ATOM     22  N   UNL     1       8.689  -2.580  22.799  0.00  0.00    -0.336 N 
ATOM     23  C   UNL     1       8.745  -1.340  22.021  0.00  0.00    +0.129 C 
ATOM     24  C   UNL     1       9.701  -2.657  23.852  0.00  0.00    +0.129 C 
ENDBRANCH  19  22
ENDBRANCH  14  16
ENDBRANCH   1  14
TORSDOF 7
ENDMDL
MODEL 4
REMARK VINA RESULT:      -6.8      2.655      4.054
REMARK  Name = 
REMARK  11 active torsions:
REMARK  status: ('A' for Active; 'I' for Inactive)
REMARK    1  A    between atoms: O_1  and  N_2
REMARK    2  A    between atoms: C_3  and  C_5
REMARK    3  A    between atoms: C_6  and  C_7
REMARK    4  A    between atoms: C_7  and  C_8
REMARK    5  A    between atoms: C_9  and  C_10
REMARK    6  A    between atoms: C_10  and  C_11
REMARK    7  A    between atoms: C_10  and  C_13
REMARK    8  A    between atoms: C_13  and  C_15
REMARK    9  A    between atoms: C_18  and  N_19
REMARK   10  A    between atoms: N_19  and  C_20
REMARK   11  A    between atoms: N_19  and  C_21
REMARK                            x       y       z     vdW  Elec       q    Type
REMARK                         _______ _______ _______ _____ _____    ______ ____
ROOT
ATOM      1  C   UNL     1       5.981  -5.365  22.027  0.00  0.00    +0.080 C 
ATOM      2  C   UNL     1       6.056  -6.162  20.721  0.00  0.00    +0.020 C 
ENDROOT
BRANCH   1   4
ATOM      3  C   UNL     1       4.633  -5.626  24.199  0.00  0.00    -0.054 C 
ATOM      4  C   UNL     1       4.764  -5.696  22.859  0.00  0.00    -0.013 C 
ATOM      5  C   UNL     1       3.267  -5.750  24.822  0.00  0.00    +0.043 C 
BRANCH   3   7
ATOM      6  C   UNL     1       5.890  -5.973  26.288  0.00  0.00    +0.069 C 
ATOM      7  C   UNL     1       5.711  -5.333  25.124  0.00  0.00    +0.008 C 
BRANCH   6  10
ATOM      8  N   UNL     1       8.186  -5.488  26.481  0.00  0.00    -0.194 N 
ATOM      9  H   UNL     1       8.179  -5.364  25.474  0.00  0.00    +0.183 HD
ATOM     10  C   UNL     1       7.003  -5.574  27.179  0.00  0.00    +0.259 C 
ATOM     11  O   UNL     1       6.829  -5.350  28.365  0.00  0.00    -0.269 OA
BRANCH   8  12
ATOM     12  O   UNL     1       9.301  -5.013  27.203  0.00  0.00    -0.295 OA
ATOM     13  H   UNL     1       8.905  -4.620  28.001  0.00  0.00    +0.241 HD
ENDBRANCH   8  12
ENDBRANCH   6  10
ENDBRANCH   3   7
ENDBRANCH   1   4
BRANCH   1  14
ATOM     14  C   UNL     1       6.112  -3.851  21.762  0.00  0.00    +0.170 C 
ATOM     15  O   UNL     1       5.511  -3.345  20.807  0.00  0.00    -0.291 OA
BRANCH  14  16
ATOM     16  C   UNL     1       6.939  -2.970  22.661  0.00  0.00    +0.018 A 
ATOM     17  C   UNL     1       6.458  -1.707  23.005  0.00  0.00    +0.013 A 
ATOM     18  C   UNL     1       7.178  -0.879  23.891  0.00  0.00    +0.024 A 
ATOM     19  C   UNL     1       8.407  -1.263  24.457  0.00  0.00    +0.029 A 
ATOM     20  C   UNL     1       8.882  -2.518  24.061  0.00  0.00    +0.024 A 
ATOM     21  C   UNL     1       8.166  -3.357  23.194  0.00  0.00    +0.013 A 
BRANCH  19  22
ATOM     22  N   UNL     1       9.065  -0.488  25.405  0.00  0.00    -0.336 N 
ATOM     23  C   UNL     1       8.885  -0.725  26.840  0.00  0.00    +0.129 C 
ATOM     24  C   UNL     1      10.318   0.191  25.077  0.00  0.00    +0.129 C 
ENDBRANCH  19  22
ENDBRANCH  14  16
ENDBRANCH   1  14
TORSDOF 7
ENDMDL
MODEL 5
REMARK VINA RESULT:      -6.8      3.239      8.403
REMARK  Name = 
REMARK  11 active torsions:
REMARK  status: ('A' for Active; 'I' for Inactive)
REMARK    1  A    between atoms: O_1  and  N_2
REMARK    2  A    between atoms: C_3  and  C_5
REMARK    3  A    between atoms: C_6  and  C_7
REMARK    4  A    between atoms: C_7  and  C_8
REMARK    5  A    between atoms: C_9  and  C_10
REMARK    6  A    between atoms: C_10  and  C_11
REMARK    7  A    between atoms: C_10  and  C_13
REMARK    8  A    between atoms: C_13  and  C_15
REMARK    9  A    between atoms: C_18  and  N_19
REMARK   10  A    between atoms: N_19  and  C_20
REMARK   11  A    between atoms: N_19  and  C_21
REMARK                            x       y       z     vdW  Elec       q    Type
REMARK                         _______ _______ _______ _____ _____    ______ ____
ROOT
ATOM      1  C   UNL     1       9.851   0.736  23.598  0.00  0.00    +0.080 C 
ATOM      2  C   UNL     1      10.102   0.196  25.008  0.00  0.00    +0.020 C 
ENDROOT
BRANCH   1   4
ATOM      3  C   UNL     1       9.179   3.216  23.553  0.00  0.00    -0.054 C 
ATOM      4  C   UNL     1       8.888   1.899  23.566  0.00  0.00    -0.013 C 
ATOM      5  C   UNL     1       8.091   4.217  23.262  0.00  0.00    +0.043 C 
BRANCH   3   7
ATOM      6  C   UNL     1      10.767   5.087  23.746  0.00  0.00    +0.069 C 
ATOM      7  C   UNL     1      10.510   3.772  23.698  0.00  0.00    +0.008 C 
BRANCH   6  10
ATOM      8  N   UNL     1      13.011   4.783  23.096  0.00  0.00    -0.194 N 
ATOM      9  H   UNL     1      12.644   4.240  22.320  0.00  0.00    +0.183 HD
ATOM     10  C   UNL     1      12.168   5.555  23.861  0.00  0.00    +0.259 C 
ATOM     11  O   UNL     1      12.469   6.516  24.550  0.00  0.00    -0.269 OA
BRANCH   8  12
ATOM     12  O   UNL     1      14.357   5.198  23.041  0.00  0.00    -0.295 OA
ATOM     13  H   UNL     1      14.411   5.688  22.202  0.00  0.00    +0.241 HD
ENDBRANCH   8  12
ENDBRANCH   6  10
ENDBRANCH   3   7
ENDBRANCH   1   4
BRANCH   1  14
ATOM     14  C   UNL     1       9.431  -0.395  22.636  0.00  0.00    +0.170 C 
ATOM     15  O   UNL     1       9.891  -0.420  21.488  0.00  0.00    -0.291 OA
BRANCH  14  16
ATOM     16  C   UNL     1       8.491  -1.486  23.075  0.00  0.00    +0.018 A 
ATOM     17  C   UNL     1       7.115  -1.276  22.987  0.00  0.00    +0.013 A 
ATOM     18  C   UNL     1       6.207  -2.298  23.335  0.00  0.00    +0.024 A 
ATOM     19  C   UNL     1       6.626  -3.559  23.796  0.00  0.00    +0.029 A 
ATOM     20  C   UNL     1       8.010  -3.724  23.911  0.00  0.00    +0.024 A 
ATOM     21  C   UNL     1       8.923  -2.721  23.553  0.00  0.00    +0.013 A 
BRANCH  19  22
ATOM     22  N   UNL     1       5.733  -4.595  24.043  0.00  0.00    -0.336 N 
ATOM     23  C   UNL     1       4.877  -5.132  22.983  0.00  0.00    +0.129 C 
ATOM     24  C   UNL     1       5.963  -5.534  25.141  0.00  0.00    +0.129 C 
ENDBRANCH  19  22
ENDBRANCH  14  16
ENDBRANCH   1  14
TORSDOF 7
ENDMDL
MODEL 6
REMARK VINA RESULT:      -6.8      2.248      3.591
REMARK  Name = 
REMARK  11 active torsions:
REMARK  status: ('A' for Active; 'I' for Inactive)
REMARK    1  A    between atoms: O_1  and  N_2
REMARK    2  A    between atoms: C_3  and  C_5
REMARK    3  A    between atoms: C_6  and  C_7
REMARK    4  A    between atoms: C_7  and  C_8
REMARK    5  A    between atoms: C_9  and  C_10
REMARK    6  A    between atoms: C_10  and  C_11
REMARK    7  A    between atoms: C_10  and  C_13
REMARK    8  A    between atoms: C_13  and  C_15
REMARK    9  A    between atoms: C_18  and  N_19
REMARK   10  A    between atoms: N_19  and  C_20
REMARK   11  A    between atoms: N_19  and  C_21
REMARK                            x       y       z     vdW  Elec       q    Type
REMARK                         _______ _______ _______ _____ _____    ______ ____
ROOT
ATOM      1  C   UNL     1       6.669  -5.037  22.412  0.00  0.00    +0.080 C 
ATOM      2  C   UNL     1       6.635  -5.882  21.136  0.00  0.00    +0.020 C 
ENDROOT
BRANCH   1   4
ATOM      3  C   UNL     1       5.975  -5.410  24.858  0.00  0.00    -0.054 C 
ATOM      4  C   UNL     1       5.834  -5.611  23.532  0.00  0.00    -0.013 C 
ATOM      5  C   UNL     1       4.889  -5.862  25.799  0.00  0.00    +0.043 C 
BRANCH   3   7
ATOM      6  C   UNL     1       6.945  -3.458  26.001  0.00  0.00    +0.069 C 
ATOM      7  C   UNL     1       7.068  -4.685  25.475  0.00  0.00    +0.008 C 
BRANCH   6  10
ATOM      8  N   UNL     1       7.968  -1.422  26.595  0.00  0.00    -0.194 N 
ATOM      9  H   UNL     1       7.038  -1.018  26.556  0.00  0.00    +0.183 HD
ATOM     10  C   UNL     1       8.133  -2.787  26.579  0.00  0.00    +0.259 C 
ATOM     11  O   UNL     1       9.095  -3.419  26.984  0.00  0.00    -0.269 OA
BRANCH   8  12
ATOM     12  O   UNL     1       8.991  -0.679  27.221  0.00  0.00    -0.295 OA
ATOM     13  H   UNL     1       8.877  -0.886  28.166  0.00  0.00    +0.241 HD
ENDBRANCH   8  12
ENDBRANCH   6  10
ENDBRANCH   3   7
ENDBRANCH   1   4
BRANCH   1  14
ATOM     14  C   UNL     1       6.313  -3.566  22.114  0.00  0.00    +0.170 C 
ATOM     15  O   UNL     1       5.268  -3.302  21.507  0.00  0.00    -0.291 OA
BRANCH  14  16
ATOM     16  C   UNL     1       7.201  -2.439  22.571  0.00  0.00    +0.018 A 
ATOM     17  C   UNL     1       8.580  -2.641  22.635  0.00  0.00    +0.013 A 
ATOM     18  C   UNL     1       9.446  -1.590  23.002  0.00  0.00    +0.024 A 
ATOM     19  C   UNL     1       8.979  -0.305  23.334  0.00  0.00    +0.029 A 
ATOM     20  C   UNL     1       7.590  -0.145  23.299  0.00  0.00    +0.024 A 
ATOM     21  C   UNL     1       6.721  -1.179  22.919  0.00  0.00    +0.013 A 
BRANCH  19  22
ATOM     22  N   UNL     1       9.839   0.754  23.599  0.00  0.00    -0.336 N 
ATOM     23  C   UNL     1      10.938   0.622  24.558  0.00  0.00    +0.129 C 
ATOM     24  C   UNL     1      10.051   1.811  22.609  0.00  0.00    +0.129 C 
ENDBRANCH  19  22
ENDBRANCH  14  16
ENDBRANCH   1  14
TORSDOF 7
ENDMDL
MODEL 7
REMARK VINA RESULT:      -6.7      2.116      3.530
REMARK  Name = 
REMARK  11 active torsions:
REMARK  status: ('A' for Active; 'I' for Inactive)
REMARK    1  A    between atoms: O_1  and  N_2
REMARK    2  A    between atoms: C_3  and  C_5
REMARK    3  A    between atoms: C_6  and  C_7
REMARK    4  A    between atoms: C_7  and  C_8
REMARK    5  A    between atoms: C_9  and  C_10
REMARK    6  A    between atoms: C_10  and  C_11
REMARK    7  A    between atoms: C_10  and  C_13
REMARK    8  A    between atoms: C_13  and  C_15
REMARK    9  A    between atoms: C_18  and  N_19
REMARK   10  A    between atoms: N_19  and  C_20
REMARK   11  A    between atoms: N_19  and  C_21
REMARK                            x       y       z     vdW  Elec       q    Type
REMARK                         _______ _______ _______ _____ _____    ______ ____
ROOT
ATOM      1  C   UNL     1       6.686  -5.300  23.223  0.00  0.00    +0.080 C 
ATOM      2  C   UNL     1       6.760  -5.759  21.764  0.00  0.00    +0.020 C 
ENDROOT
BRANCH   1   4
ATOM      3  C   UNL     1       4.837  -4.231  24.652  0.00  0.00    -0.054 C 
ATOM      4  C   UNL     1       5.524  -4.376  23.500  0.00  0.00    -0.013 C 
ATOM      5  C   UNL     1       3.880  -3.078  24.809  0.00  0.00    +0.043 C 
BRANCH   3   7
ATOM      6  C   UNL     1       5.866  -4.757  26.826  0.00  0.00    +0.069 C 
ATOM      7  C   UNL     1       5.016  -5.053  25.833  0.00  0.00    +0.008 C 
BRANCH   6  10
ATOM      8  N   UNL     1       5.571  -6.945  27.644  0.00  0.00    -0.194 N 
ATOM      9  H   UNL     1       5.531  -7.234  26.671  0.00  0.00    +0.183 HD
ATOM     10  C   UNL     1       6.000  -5.681  27.976  0.00  0.00    +0.259 C 
ATOM     11  O   UNL     1       6.453  -5.313  29.047  0.00  0.00    -0.269 OA
BRANCH   8  12
ATOM     12  O   UNL     1       5.750  -7.941  28.627  0.00  0.00    -0.295 OA
ATOM     13  H   UNL     1       6.151  -8.678  28.134  0.00  0.00    +0.241 HD
ENDBRANCH   8  12
ENDBRANCH   6  10
ENDBRANCH   3   7
ENDBRANCH   1   4
BRANCH   1  14
ATOM     14  C   UNL     1       8.030  -4.700  23.686  0.00  0.00    +0.170 C 
ATOM     15  O   UNL     1       8.904  -5.445  24.145  0.00  0.00    -0.291 OA
BRANCH  14  16
ATOM     16  C   UNL     1       8.311  -3.226  23.565  0.00  0.00    +0.018 A 
ATOM     17  C   UNL     1       8.620  -2.495  24.712  0.00  0.00    +0.013 A 
ATOM     18  C   UNL     1       8.946  -1.125  24.627  0.00  0.00    +0.024 A 
ATOM     19  C   UNL     1       8.964  -0.424  23.407  0.00  0.00    +0.029 A 
ATOM     20  C   UNL     1       8.612  -1.175  22.281  0.00  0.00    +0.024 A 
ATOM     21  C   UNL     1       8.302  -2.542  22.351  0.00  0.00    +0.013 A 
BRANCH  19  22
ATOM     22  N   UNL     1       9.381   0.898  23.314  0.00  0.00    -0.336 N 
ATOM     23  C   UNL     1       9.711   1.678  24.509  0.00  0.00    +0.129 C 
ATOM     24  C   UNL     1      10.016   1.398  22.095  0.00  0.00    +0.129 C 
ENDBRANCH  19  22
ENDBRANCH  14  16
ENDBRANCH   1  14
TORSDOF 7
ENDMDL
MODEL 8
REMARK VINA RESULT:      -6.6      3.466      8.561
REMARK  Name = 
REMARK  11 active torsions:
REMARK  status: ('A' for Active; 'I' for Inactive)
REMARK    1  A    between atoms: O_1  and  N_2
REMARK    2  A    between atoms: C_3  and  C_5
REMARK    3  A    between atoms: C_6  and  C_7
REMARK    4  A    between atoms: C_7  and  C_8
REMARK    5  A    between atoms: C_9  and  C_10
REMARK    6  A    between atoms: C_10  and  C_11
REMARK    7  A    between atoms: C_10  and  C_13
REMARK    8  A    between atoms: C_13  and  C_15
REMARK    9  A    between atoms: C_18  and  N_19
REMARK   10  A    between atoms: N_19  and  C_20
REMARK   11  A    between atoms: N_19  and  C_21
REMARK                            x       y       z     vdW  Elec       q    Type
REMARK                         _______ _______ _______ _____ _____    ______ ____
ROOT
ATOM      1  C   UNL     1       8.159   2.438  24.173  0.00  0.00    +0.080 C 
ATOM      2  C   UNL     1       7.757   2.142  25.620  0.00  0.00    +0.020 C 
ENDROOT
BRANCH   1   4
ATOM      3  C   UNL     1       8.550   4.903  23.563  0.00  0.00    -0.054 C 
ATOM      4  C   UNL     1       7.760   3.820  23.713  0.00  0.00    -0.013 C 
ATOM      5  C   UNL     1       8.018   6.120  22.850  0.00  0.00    +0.043 C 
BRANCH   3   7
ATOM      6  C   UNL     1      10.829   5.821  23.405  0.00  0.00    +0.069 C 
ATOM      7  C   UNL     1       9.946   4.972  23.949  0.00  0.00    +0.008 C 
BRANCH   6  10
ATOM      8  N   UNL     1      13.019   5.080  22.958  0.00  0.00    -0.194 N 
ATOM      9  H   UNL     1      12.708   4.943  22.001  0.00  0.00    +0.183 HD
ATOM     10  C   UNL     1      12.243   5.788  23.845  0.00  0.00    +0.259 C 
ATOM     11  O   UNL     1      12.612   6.349  24.864  0.00  0.00    -0.269 OA
BRANCH   8  12
ATOM     12  O   UNL     1      14.406   5.069  23.215  0.00  0.00    -0.295 OA
ATOM     13  H   UNL     1      14.484   4.525  24.019  0.00  0.00    +0.241 HD
ENDBRANCH   8  12
ENDBRANCH   6  10
ENDBRANCH   3   7
ENDBRANCH   1   4
BRANCH   1  14
ATOM     14  C   UNL     1       7.651   1.337  23.219  0.00  0.00    +0.170 C 
ATOM     15  O   UNL     1       7.123   1.655  22.147  0.00  0.00    -0.291 OA
BRANCH  14  16
ATOM     16  C   UNL     1       7.809  -0.122  23.555  0.00  0.00    +0.018 A 
ATOM     17  C   UNL     1       6.675  -0.930  23.632  0.00  0.00    +0.013 A 
ATOM     18  C   UNL     1       6.791  -2.312  23.887  0.00  0.00    +0.024 A 
ATOM     19  C   UNL     1       8.032  -2.944  24.090  0.00  0.00    +0.029 A 
ATOM     20  C   UNL     1       9.146  -2.100  24.046  0.00  0.00    +0.024 A 
ATOM     21  C   UNL     1       9.044  -0.727  23.776  0.00  0.00    +0.013 A 
BRANCH  19  22
ATOM     22  N   UNL     1       8.151  -4.320  24.242  0.00  0.00    -0.336 N 
ATOM     23  C   UNL     1       7.597  -5.247  23.251  0.00  0.00    +0.129 C 
ATOM     24  C   UNL     1       9.237  -4.894  25.036  0.00  0.00    +0.129 C 
ENDBRANCH  19  22
ENDBRANCH  14  16
ENDBRANCH   1  14
TORSDOF 7
ENDMDL
MODEL 9
REMARK VINA RESULT:      -6.6      3.259      4.959
REMARK  Name = 
REMARK  11 active torsions:
REMARK  status: ('A' for Active; 'I' for Inactive)
REMARK    1  A    between atoms: O_1  and  N_2
REMARK    2  A    between atoms: C_3  and  C_5
REMARK    3  A    between atoms: C_6  and  C_7
REMARK    4  A    between atoms: C_7  and  C_8
REMARK    5  A    between atoms: C_9  and  C_10
REMARK    6  A    between atoms: C_10  and  C_11
REMARK    7  A    between atoms: C_10  and  C_13
REMARK    8  A    between atoms: C_13  and  C_15
REMARK    9  A    between atoms: C_18  and  N_19
REMARK   10  A    between atoms: N_19  and  C_20
REMARK   11  A    between atoms: N_19  and  C_21
REMARK                            x       y       z     vdW  Elec       q    Type
REMARK                         _______ _______ _______ _____ _____    ______ ____
ROOT
ATOM      1  C   UNL     1       7.142  -4.713  22.442  0.00  0.00    +0.080 C 
ATOM      2  C   UNL     1       6.865  -5.870  21.478  0.00  0.00    +0.020 C 
ENDROOT
BRANCH   1   4
ATOM      3  C   UNL     1       8.702  -4.466  24.468  0.00  0.00    -0.054 C 
ATOM      4  C   UNL     1       7.810  -5.150  23.724  0.00  0.00    -0.013 C 
ATOM      5  C   UNL     1       9.060  -4.962  25.845  0.00  0.00    +0.043 C 
BRANCH   3   7
ATOM      6  C   UNL     1       9.315  -2.119  24.888  0.00  0.00    +0.069 C 
ATOM      7  C   UNL     1       9.296  -3.198  24.093  0.00  0.00    +0.008 C 
BRANCH   6  10
ATOM      8  N   UNL     1       9.721   0.165  25.297  0.00  0.00    -0.194 N 
ATOM      9  H   UNL     1       9.525  -0.041  26.272  0.00  0.00    +0.183 HD
ATOM     10  C   UNL     1       9.916  -0.858  24.397  0.00  0.00    +0.259 C 
ATOM     11  O   UNL     1      10.508  -0.800  23.332  0.00  0.00    -0.269 OA
BRANCH   8  12
ATOM     12  O   UNL     1      10.343   1.392  24.988  0.00  0.00    -0.295 OA
ATOM     13  H   UNL     1      10.175   1.499  24.035  0.00  0.00    +0.241 HD
ENDBRANCH   8  12
ENDBRANCH   6  10
ENDBRANCH   3   7
ENDBRANCH   1   4
BRANCH   1  14
ATOM     14  C   UNL     1       5.864  -3.889  22.702  0.00  0.00    +0.170 C 
ATOM     15  O   UNL     1       4.762  -4.360  22.396  0.00  0.00    -0.291 OA
BRANCH  14  16
ATOM     16  C   UNL     1       5.928  -2.530  23.347  0.00  0.00    +0.018 A 
ATOM     17  C   UNL     1       5.431  -2.365  24.640  0.00  0.00    +0.013 A 
ATOM     18  C   UNL     1       5.528  -1.120  25.296  0.00  0.00    +0.024 A 
ATOM     19  C   UNL     1       6.107   0.011  24.693  0.00  0.00    +0.029 A 
ATOM     20  C   UNL     1       6.561  -0.176  23.383  0.00  0.00    +0.024 A 
ATOM     21  C   UNL     1       6.484  -1.414  22.727  0.00  0.00    +0.013 A 
BRANCH  19  22
ATOM     22  N   UNL     1       6.291   1.207  25.376  0.00  0.00    -0.336 N 
ATOM     23  C   UNL     1       6.529   1.230  26.821  0.00  0.00    +0.129 C 
ATOM     24  C   UNL     1       6.788   2.395  24.683  0.00  0.00    +0.129 C 
ENDBRANCH  19  22
ENDBRANCH  14  16
ENDBRANCH   1  14
TORSDOF 7
ENDMDL
