MODEL 1
REMARK VINA RESULT:      -6.5      0.000      0.000
REMARK  Name = 
REMARK  5 active torsions:
REMARK  status: ('A' for Active; 'I' for Inactive)
REMARK    1  A    between atoms: C_2  and  O_3
REMARK    2  A    between atoms: C_2  and  C_4
REMARK    3  A    between atoms: C_2  and  C_11
REMARK    4  A    between atoms: C_11  and  C_22
REMARK    5  A    between atoms: C_20  and  C_21
REMARK                            x       y       z     vdW  Elec       q    Type
REMARK                         _______ _______ _______ _____ _____    ______ ____
ROOT
ATOM      1  C   UNL     1       7.612  -4.086  23.724  0.00  0.00    +0.146 C 
ATOM      2  C   UNL     1       6.174  -4.506  24.266  0.00  0.00    +0.108 C 
ATOM      3  C   UNL     1       5.205  -3.335  24.350  0.00  0.00    +0.045 C 
ATOM      4  C   UNL     1       5.930  -5.744  23.380  0.00  0.00    +0.111 C 
ATOM      5  C   UNL     1       4.692  -6.404  23.846  0.00  0.00    +0.044 C 
ATOM      6  C   UNL     1       4.808  -6.092  25.343  0.00  0.00    +0.161 C 
ATOM      7  C   UNL     1       6.346  -5.290  22.048  0.00  0.00    +0.220 C 
ATOM      8  O   UNL     1       5.824  -5.475  20.977  0.00  0.00    -0.275 OA
ATOM      9  O   UNL     1       5.976  -5.205  25.531  0.00  0.00    -0.370 OA
ATOM     10  N   UNL     1       7.540  -4.609  22.313  0.00  0.00    -0.298 N 
ATOM     11  H   UNL     1       7.963  -4.131  21.527  0.00  0.00    +0.150 HD
ENDROOT
BRANCH   1  12
ATOM     12  C   UNL     1       8.508  -4.835  24.695  0.00  0.00    +0.254 C 
ATOM     13  O   UNL     1       9.346  -5.689  24.361  0.00  0.00    -0.299 OA
ENDBRANCH   1  12
BRANCH   1  14
ATOM     14  C   UNL     1       8.303  -2.684  23.633  0.00  0.00    +0.154 C 
BRANCH  14  15
ATOM     15  C   UNL     1       8.053  -1.654  22.474  0.00  0.00    +0.043 C 
ATOM     16  C   UNL     1       9.258  -1.205  21.682  0.00  0.00    -0.025 C 
ATOM     17  C   UNL     1       9.805   0.018  21.735  0.00  0.00    -0.031 C 
ATOM     18  C   UNL     1       9.308   1.140  22.587  0.00  0.00    +0.027 C 
ATOM     19  C   UNL     1       8.066   0.828  23.412  0.00  0.00    +0.005 C 
ATOM     20  C   UNL     1       7.252  -0.400  22.964  0.00  0.00    +0.010 C 
ENDBRANCH  14  15
BRANCH  14  21
ATOM     21  O   UNL     1       9.745  -2.927  23.622  0.00  0.00    -0.389 OA
ATOM     22  H   UNL     1       9.930  -3.818  23.964  0.00  0.00    +0.210 HD
ENDBRANCH  14  21
ENDBRANCH   1  14
TORSDOF 4
ENDMDL
MODEL 2
REMARK VINA RESULT:      -6.2      1.310      1.443
REMARK  Name = 
REMARK  5 active torsions:
REMARK  status: ('A' for Active; 'I' for Inactive)
REMARK    1  A    between atoms: C_2  and  O_3
REMARK    2  A    between atoms: C_2  and  C_4
REMARK    3  A    between atoms: C_2  and  C_11
REMARK    4  A    between atoms: C_11  and  C_22
REMARK    5  A    between atoms: C_20  and  C_21
REMARK                            x       y       z     vdW  Elec       q    Type
REMARK                         _______ _______ _______ _____ _____    ______ ____
ROOT
ATOM      1  C   UNL     1       8.062  -4.036  24.235  0.00  0.00    +0.146 C 
ATOM      2  C   UNL     1       6.675  -4.464  24.894  0.00  0.00    +0.108 C 
ATOM      3  C   UNL     1       5.976  -3.314  25.606  0.00  0.00    +0.045 C 
ATOM      4  C   UNL     1       6.058  -5.218  23.699  0.00  0.00    +0.111 C 
ATOM      5  C   UNL     1       4.807  -5.858  24.158  0.00  0.00    +0.044 C 
ATOM      6  C   UNL     1       5.220  -6.173  25.601  0.00  0.00    +0.161 C 
ATOM      7  C   UNL     1       6.335  -4.331  22.563  0.00  0.00    +0.220 C 
ATOM      8  O   UNL     1       5.622  -4.019  21.642  0.00  0.00    -0.275 OA
ATOM      9  O   UNL     1       6.552  -5.574  25.832  0.00  0.00    -0.370 OA
ATOM     10  N   UNL     1       7.664  -3.952  22.784  0.00  0.00    -0.298 N 
ATOM     11  H   UNL     1       8.040  -3.258  22.151  0.00  0.00    +0.150 HD
ENDROOT
BRANCH   1  12
ATOM     12  C   UNL     1       8.940  -5.204  24.646  0.00  0.00    +0.254 C 
ATOM     13  O   UNL     1      10.077  -5.090  25.133  0.00  0.00    -0.299 OA
ENDBRANCH   1  12
BRANCH   1  14
ATOM     14  C   UNL     1       8.986  -2.801  24.504  0.00  0.00    +0.154 C 
BRANCH  14  15
ATOM     15  C   UNL     1       8.503  -1.308  24.428  0.00  0.00    +0.043 C 
ATOM     16  C   UNL     1       8.512  -0.653  23.067  0.00  0.00    -0.025 C 
ATOM     17  C   UNL     1       9.359   0.311  22.679  0.00  0.00    -0.031 C 
ATOM     18  C   UNL     1      10.433   0.900  23.535  0.00  0.00    +0.027 C 
ATOM     19  C   UNL     1      10.508   0.349  24.953  0.00  0.00    +0.005 C 
ATOM     20  C   UNL     1       9.255  -0.394  25.453  0.00  0.00    +0.010 C 
ENDBRANCH  14  15
BRANCH  14  21
ATOM     21  O   UNL     1      10.095  -2.892  23.556  0.00  0.00    -0.389 OA
ATOM     22  H   UNL     1      10.210  -3.816  23.274  0.00  0.00    +0.210 HD
ENDBRANCH  14  21
ENDBRANCH   1  14
TORSDOF 4
ENDMDL
MODEL 3
REMARK VINA RESULT:      -6.1      2.005      2.800
REMARK  Name = 
REMARK  5 active torsions:
REMARK  status: ('A' for Active; 'I' for Inactive)
REMARK    1  A    between atoms: C_2  and  O_3
REMARK    2  A    between atoms: C_2  and  C_4
REMARK    3  A    between atoms: C_2  and  C_11
REMARK    4  A    between atoms: C_11  and  C_22
REMARK    5  A    between atoms: C_20  and  C_21
REMARK                            x       y       z     vdW  Elec       q    Type
REMARK                         _______ _______ _______ _____ _____    ______ ____
ROOT
ATOM      1  C   UNL     1       7.185  -2.264  23.915  0.00  0.00    +0.146 C 
ATOM      2  C   UNL     1       6.061  -3.281  23.423  0.00  0.00    +0.108 C 
ATOM      3  C   UNL     1       5.890  -3.292  21.910  0.00  0.00    +0.045 C 
ATOM      4  C   UNL     1       6.481  -4.523  24.235  0.00  0.00    +0.111 C 
ATOM      5  C   UNL     1       5.446  -5.563  24.051  0.00  0.00    +0.044 C 
ATOM      6  C   UNL     1       4.217  -4.653  23.934  0.00  0.00    +0.161 C 
ATOM      7  C   UNL     1       7.938  -4.561  24.060  0.00  0.00    +0.220 C 
ATOM      8  O   UNL     1       8.661  -5.504  23.852  0.00  0.00    -0.275 OA
ATOM      9  O   UNL     1       4.690  -3.252  23.922  0.00  0.00    -0.370 OA
ATOM     10  N   UNL     1       8.305  -3.222  24.231  0.00  0.00    -0.298 N 
ATOM     11  H   UNL     1       9.279  -3.002  24.064  0.00  0.00    +0.150 HD
ENDROOT
BRANCH   1  12
ATOM     12  C   UNL     1       6.478  -1.613  25.090  0.00  0.00    +0.254 C 
ATOM     13  O   UNL     1       7.002  -1.404  26.197  0.00  0.00    -0.299 OA
ENDBRANCH   1  12
BRANCH   1  14
ATOM     14  C   UNL     1       7.847  -1.043  23.194  0.00  0.00    +0.154 C 
BRANCH  14  15
ATOM     15  C   UNL     1       9.394  -0.767  23.174  0.00  0.00    +0.043 C 
ATOM     16  C   UNL     1       9.992  -0.117  24.398  0.00  0.00    -0.025 C 
ATOM     17  C   UNL     1      10.454   1.140  24.457  0.00  0.00    -0.031 C 
ATOM     18  C   UNL     1      10.458   2.104  23.316  0.00  0.00    +0.027 C 
ATOM     19  C   UNL     1       9.912   1.556  22.003  0.00  0.00    +0.005 C 
ATOM     20  C   UNL     1       9.834   0.023  21.895  0.00  0.00    +0.010 C 
ENDBRANCH  14  15
BRANCH  14  21
ATOM     21  O   UNL     1       7.254   0.161  23.775  0.00  0.00    -0.389 OA
ATOM     22  H   UNL     1       7.812   0.931  23.575  0.00  0.00    +0.210 HD
ENDBRANCH  14  21
ENDBRANCH   1  14
TORSDOF 4
ENDMDL
MODEL 4
REMARK VINA RESULT:      -5.9      1.925      2.888
REMARK  Name = 
REMARK  5 active torsions:
REMARK  status: ('A' for Active; 'I' for Inactive)
REMARK    1  A    between atoms: C_2  and  O_3
REMARK    2  A    between atoms: C_2  and  C_4
REMARK    3  A    between atoms: C_2  and  C_11
REMARK    4  A    between atoms: C_11  and  C_22
REMARK    5  A    between atoms: C_20  and  C_21
REMARK                            x       y       z     vdW  Elec       q    Type
REMARK                         _______ _______ _______ _____ _____    ______ ____
ROOT
ATOM      1  C   UNL     1       7.522  -2.510  23.706  0.00  0.00    +0.146 C 
ATOM      2  C   UNL     1       7.471  -3.334  25.069  0.00  0.00    +0.108 C 
ATOM      3  C   UNL     1       8.342  -2.729  26.162  0.00  0.00    +0.045 C 
ATOM      4  C   UNL     1       5.943  -3.499  25.199  0.00  0.00    +0.111 C 
ATOM      5  C   UNL     1       5.675  -4.401  26.339  0.00  0.00    +0.044 C 
ATOM      6  C   UNL     1       6.902  -5.312  26.211  0.00  0.00    +0.161 C 
ATOM      7  C   UNL     1       5.433  -2.160  24.880  0.00  0.00    +0.220 C 
ATOM      8  O   UNL     1       4.556  -1.526  25.412  0.00  0.00    -0.275 OA
ATOM      9  O   UNL     1       7.767  -4.761  25.146  0.00  0.00    -0.370 OA
ATOM     10  N   UNL     1       6.196  -1.797  23.764  0.00  0.00    -0.298 N 
ATOM     11  H   UNL     1       6.065  -0.853  23.423  0.00  0.00    +0.150 HD
ENDROOT
BRANCH   1  12
ATOM     12  C   UNL     1       7.657  -3.640  22.701  0.00  0.00    +0.254 C 
ATOM     13  O   UNL     1       6.795  -3.935  21.856  0.00  0.00    -0.299 OA
ENDBRANCH   1  12
BRANCH   1  14
ATOM     14  C   UNL     1       8.558  -1.460  23.182  0.00  0.00    +0.154 C 
BRANCH  14  15
ATOM     15  C   UNL     1       8.239   0.065  22.982  0.00  0.00    +0.043 C 
ATOM     16  C   UNL     1       8.906   0.759  21.818  0.00  0.00    -0.025 C 
ATOM     17  C   UNL     1       9.883   1.672  21.920  0.00  0.00    -0.031 C 
ATOM     18  C   UNL     1      10.469   2.156  23.206  0.00  0.00    +0.027 C 
ATOM     19  C   UNL     1       9.854   1.558  24.465  0.00  0.00    +0.005 C 
ATOM     20  C   UNL     1       8.477   0.892  24.290  0.00  0.00    +0.010 C 
ENDBRANCH  14  15
BRANCH  14  21
ATOM     21  O   UNL     1       9.007  -1.931  21.872  0.00  0.00    -0.389 OA
ATOM     22  H   UNL     1       8.240  -2.048  21.286  0.00  0.00    +0.210 HD
ENDBRANCH  14  21
ENDBRANCH   1  14
TORSDOF 4
ENDMDL
MODEL 5
REMARK VINA RESULT:      -5.9      2.183      6.001
REMARK  Name = 
REMARK  5 active torsions:
REMARK  status: ('A' for Active; 'I' for Inactive)
REMARK    1  A    between atoms: C_2  and  O_3
REMARK    2  A    between atoms: C_2  and  C_4
REMARK    3  A    between atoms: C_2  and  C_11
REMARK    4  A    between atoms: C_11  and  C_22
REMARK    5  A    between atoms: C_20  and  C_21
REMARK                            x       y       z     vdW  Elec       q    Type
REMARK                         _______ _______ _______ _____ _____    ______ ____
ROOT
ATOM      1  C   UNL     1       8.261  -1.320  23.697  0.00  0.00    +0.146 C 
ATOM      2  C   UNL     1       9.331  -0.192  23.347  0.00  0.00    +0.108 C 
ATOM      3  C   UNL     1       9.800  -0.247  21.900  0.00  0.00    +0.045 C 
ATOM      4  C   UNL     1       8.612   1.027  23.957  0.00  0.00    +0.111 C 
ATOM      5  C   UNL     1       9.530   2.183  23.889  0.00  0.00    +0.044 C 
ATOM      6  C   UNL     1      10.857   1.441  24.086  0.00  0.00    +0.161 C 
ATOM      7  C   UNL     1       7.225   0.860  23.502  0.00  0.00    +0.220 C 
ATOM      8  O   UNL     1       6.452   1.684  23.082  0.00  0.00    -0.275 OA
ATOM      9  O   UNL     1      10.567  -0.010  24.101  0.00  0.00    -0.370 OA
ATOM     10  N   UNL     1       6.994  -0.504  23.712  0.00  0.00    -0.298 N 
ATOM     11  H   UNL     1       6.107  -0.861  23.379  0.00  0.00    +0.150 HD
ENDROOT
BRANCH   1  12
ATOM     12  C   UNL     1       8.790  -1.802  25.036  0.00  0.00    +0.254 C 
ATOM     13  O   UNL     1       8.074  -2.133  25.996  0.00  0.00    -0.299 OA
ENDBRANCH   1  12
BRANCH   1  14
ATOM     14  C   UNL     1       7.908  -2.658  22.967  0.00  0.00    +0.154 C 
BRANCH  14  15
ATOM     15  C   UNL     1       6.471  -3.293  22.941  0.00  0.00    +0.043 C 
ATOM     16  C   UNL     1       6.177  -4.369  23.959  0.00  0.00    -0.025 C 
ATOM     17  C   UNL     1       6.019  -5.671  23.683  0.00  0.00    -0.031 C 
ATOM     18  C   UNL     1       6.104  -6.272  22.317  0.00  0.00    +0.027 C 
ATOM     19  C   UNL     1       6.360  -5.282  21.188  0.00  0.00    +0.005 C 
ATOM     20  C   UNL     1       6.079  -3.803  21.513  0.00  0.00    +0.010 C 
ENDBRANCH  14  15
BRANCH  14  21
ATOM     21  O   UNL     1       8.770  -3.691  23.542  0.00  0.00    -0.389 OA
ATOM     22  H   UNL     1       9.230  -4.167  22.830  0.00  0.00    +0.210 HD
ENDBRANCH  14  21
ENDBRANCH   1  14
TORSDOF 4
ENDMDL
MODEL 6
REMARK VINA RESULT:      -5.9      3.296      5.440
REMARK  Name = 
REMARK  5 active torsions:
REMARK  status: ('A' for Active; 'I' for Inactive)
REMARK    1  A    between atoms: C_2  and  O_3
REMARK    2  A    between atoms: C_2  and  C_4
REMARK    3  A    between atoms: C_2  and  C_11
REMARK    4  A    between atoms: C_11  and  C_22
REMARK    5  A    between atoms: C_20  and  C_21
REMARK                            x       y       z     vdW  Elec       q    Type
REMARK                         _______ _______ _______ _____ _____    ______ ____
ROOT
ATOM      1  C   UNL     1       8.838   0.606  22.943  0.00  0.00    +0.146 C 
ATOM      2  C   UNL     1       9.251  -0.595  23.905  0.00  0.00    +0.108 C 
ATOM      3  C   UNL     1       9.674  -0.127  25.291  0.00  0.00    +0.045 C 
ATOM      4  C   UNL     1       8.052  -1.532  23.658  0.00  0.00    +0.111 C 
ATOM      5  C   UNL     1       8.322  -2.813  24.344  0.00  0.00    +0.044 C 
ATOM      6  C   UNL     1       9.845  -2.858  24.167  0.00  0.00    +0.161 C 
ATOM      7  C   UNL     1       6.900  -0.623  23.715  0.00  0.00    +0.220 C 
ATOM      8  O   UNL     1       5.826  -0.779  24.240  0.00  0.00    -0.275 OA
ATOM      9  O   UNL     1      10.267  -1.581  23.552  0.00  0.00    -0.370 OA
ATOM     10  N   UNL     1       7.337   0.477  22.968  0.00  0.00    -0.298 N 
ATOM     11  H   UNL     1       6.716   1.276  22.949  0.00  0.00    +0.150 HD
ENDROOT
BRANCH   1  12
ATOM     12  C   UNL     1       9.547   0.198  21.664  0.00  0.00    +0.254 C 
ATOM     13  O   UNL     1       8.969  -0.095  20.604  0.00  0.00    -0.299 OA
ENDBRANCH   1  12
BRANCH   1  14
ATOM     14  C   UNL     1       9.144   2.139  23.029  0.00  0.00    +0.154 C 
BRANCH  14  15
ATOM     15  C   UNL     1       8.141   3.205  23.601  0.00  0.00    +0.043 C 
ATOM     16  C   UNL     1       7.389   4.047  22.598  0.00  0.00    -0.025 C 
ATOM     17  C   UNL     1       7.594   5.354  22.378  0.00  0.00    -0.031 C 
ATOM     18  C   UNL     1       8.601   6.193  23.095  0.00  0.00    +0.027 C 
ATOM     19  C   UNL     1       9.406   5.467  24.166  0.00  0.00    +0.005 C 
ATOM     20  C   UNL     1       8.815   4.136  24.664  0.00  0.00    +0.010 C 
ENDBRANCH  14  15
BRANCH  14  21
ATOM     21  O   UNL     1       9.439   2.585  21.668  0.00  0.00    -0.389 OA
ATOM     22  H   UNL     1       9.560   1.814  21.089  0.00  0.00    +0.210 HD
ENDBRANCH  14  21
ENDBRANCH   1  14
TORSDOF 4
ENDMDL
MODEL 7
REMARK VINA RESULT:      -5.9      2.707      4.186
REMARK  Name = 
REMARK  5 active torsions:
REMARK  status: ('A' for Active; 'I' for Inactive)
REMARK    1  A    between atoms: C_2  and  O_3
REMARK    2  A    between atoms: C_2  and  C_4
REMARK    3  A    between atoms: C_2  and  C_11
REMARK    4  A    between atoms: C_11  and  C_22
REMARK    5  A    between atoms: C_20  and  C_21
REMARK                            x       y       z     vdW  Elec       q    Type
REMARK                         _______ _______ _______ _____ _____    ______ ____
ROOT
ATOM      1  C   UNL     1       8.332  -0.562  24.818  0.00  0.00    +0.146 C 
ATOM      2  C   UNL     1       7.588  -1.871  24.296  0.00  0.00    +0.108 C 
ATOM      3  C   UNL     1       6.683  -1.603  23.101  0.00  0.00    +0.045 C 
ATOM      4  C   UNL     1       8.791  -2.834  24.246  0.00  0.00    +0.111 C 
ATOM      5  C   UNL     1       8.284  -4.187  23.938  0.00  0.00    +0.044 C 
ATOM      6  C   UNL     1       6.935  -4.103  24.663  0.00  0.00    +0.161 C 
ATOM      7  C   UNL     1       9.843  -2.024  23.617  0.00  0.00    +0.220 C 
ATOM      8  O   UNL     1      10.646  -2.333  22.772  0.00  0.00    -0.275 OA
ATOM      9  O   UNL     1       6.773  -2.719  25.160  0.00  0.00    -0.370 OA
ATOM     10  N   UNL     1       9.716  -0.793  24.270  0.00  0.00    -0.298 N 
ATOM     11  H   UNL     1      10.302  -0.044  23.924  0.00  0.00    +0.150 HD
ENDROOT
BRANCH   1  12
ATOM     12  C   UNL     1       8.146  -0.714  26.317  0.00  0.00    +0.254 C 
ATOM     13  O   UNL     1       9.077  -0.833  27.132  0.00  0.00    -0.299 OA
ENDBRANCH   1  12
BRANCH   1  14
ATOM     14  C   UNL     1       8.020   0.954  24.587  0.00  0.00    +0.154 C 
BRANCH  14  15
ATOM     15  C   UNL     1       8.717   1.838  23.491  0.00  0.00    +0.043 C 
ATOM     16  C   UNL     1       9.182   3.212  23.910  0.00  0.00    -0.025 C 
ATOM     17  C   UNL     1       8.626   4.368  23.521  0.00  0.00    -0.031 C 
ATOM     18  C   UNL     1       7.455   4.486  22.601  0.00  0.00    +0.027 C 
ATOM     19  C   UNL     1       6.910   3.165  22.072  0.00  0.00    +0.005 C 
ATOM     20  C   UNL     1       7.853   1.953  22.190  0.00  0.00    +0.010 C 
ENDBRANCH  14  15
BRANCH  14  21
ATOM     21  O   UNL     1       8.287   1.636  25.852  0.00  0.00    -0.389 OA
ATOM     22  H   UNL     1       8.036   2.573  25.779  0.00  0.00    +0.210 HD
ENDBRANCH  14  21
ENDBRANCH   1  14
TORSDOF 4
ENDMDL
MODEL 8
REMARK VINA RESULT:      -5.8      2.091      5.997
REMARK  Name = 
REMARK  5 active torsions:
REMARK  status: ('A' for Active; 'I' for Inactive)
REMARK    1  A    between atoms: C_2  and  O_3
REMARK    2  A    between atoms: C_2  and  C_4
REMARK    3  A    between atoms: C_2  and  C_11
REMARK    4  A    between atoms: C_11  and  C_22
REMARK    5  A    between atoms: C_20  and  C_21
REMARK                            x       y       z     vdW  Elec       q    Type
REMARK                         _______ _______ _______ _____ _____    ______ ____
ROOT
ATOM      1  C   UNL     1       8.348  -1.718  23.614  0.00  0.00    +0.146 C 
ATOM      2  C   UNL     1       8.204  -0.131  23.621  0.00  0.00    +0.108 C 
ATOM      3  C   UNL     1       6.758   0.334  23.725  0.00  0.00    +0.045 C 
ATOM      4  C   UNL     1       9.280   0.209  24.671  0.00  0.00    +0.111 C 
ATOM      5  C   UNL     1       9.434   1.678  24.712  0.00  0.00    +0.044 C 
ATOM      6  C   UNL     1       9.164   1.984  23.233  0.00  0.00    +0.161 C 
ATOM      7  C   UNL     1       9.030  -0.771  25.736  0.00  0.00    +0.220 C 
ATOM      8  O   UNL     1       9.027  -0.620  26.932  0.00  0.00    -0.275 OA
ATOM      9  O   UNL     1       8.763   0.721  22.576  0.00  0.00    -0.370 OA
ATOM     10  N   UNL     1       8.829  -1.958  25.022  0.00  0.00    -0.298 N 
ATOM     11  H   UNL     1       8.550  -2.764  25.567  0.00  0.00    +0.150 HD
ENDROOT
BRANCH   1  12
ATOM     12  C   UNL     1       9.357  -1.904  22.496  0.00  0.00    +0.254 C 
ATOM     13  O   UNL     1      10.529  -2.282  22.663  0.00  0.00    -0.299 OA
ENDBRANCH   1  12
BRANCH   1  14
ATOM     14  C   UNL     1       7.297  -2.840  23.316  0.00  0.00    +0.154 C 
BRANCH  14  15
ATOM     15  C   UNL     1       7.556  -4.371  23.554  0.00  0.00    +0.043 C 
ATOM     16  C   UNL     1       7.283  -5.301  22.395  0.00  0.00    -0.025 C 
ATOM     17  C   UNL     1       6.269  -6.175  22.328  0.00  0.00    -0.031 C 
ATOM     18  C   UNL     1       5.242  -6.376  23.395  0.00  0.00    +0.027 C 
ATOM     19  C   UNL     1       5.426  -5.520  24.642  0.00  0.00    +0.005 C 
ATOM     20  C   UNL     1       6.823  -4.901  24.832  0.00  0.00    +0.010 C 
ENDBRANCH  14  15
BRANCH  14  21
ATOM     21  O   UNL     1       6.952  -2.727  21.900  0.00  0.00    -0.389 OA
ATOM     22  H   UNL     1       6.381  -3.470  21.642  0.00  0.00    +0.210 HD
ENDBRANCH  14  21
ENDBRANCH   1  14
TORSDOF 4
ENDMDL
MODEL 9
REMARK VINA RESULT:      -5.7      2.201      3.440
REMARK  Name = 
REMARK  5 active torsions:
REMARK  status: ('A' for Active; 'I' for Inactive)
REMARK    1  A    between atoms: C_2  and  O_3
REMARK    2  A    between atoms: C_2  and  C_4
REMARK    3  A    between atoms: C_2  and  C_11
REMARK    4  A    between atoms: C_11  and  C_22
REMARK    5  A    between atoms: C_20  and  C_21
REMARK                            x       y       z     vdW  Elec       q    Type
REMARK                         _______ _______ _______ _____ _____    ______ ____
ROOT
ATOM      1  C   UNL     1       8.755  -1.291  23.674  0.00  0.00    +0.146 C 
ATOM      2  C   UNL     1       8.368  -2.566  24.547  0.00  0.00    +0.108 C 
ATOM      3  C   UNL     1       7.599  -2.209  25.812  0.00  0.00    +0.045 C 
ATOM      4  C   UNL     1       7.791  -3.461  23.432  0.00  0.00    +0.111 C 
ATOM      5  C   UNL     1       7.516  -4.794  24.009  0.00  0.00    +0.044 C 
ATOM      6  C   UNL     1       8.666  -4.853  25.023  0.00  0.00    +0.161 C 
ATOM      7  C   UNL     1       6.940  -2.540  22.668  0.00  0.00    +0.220 C 
ATOM      8  O   UNL     1       5.840  -2.715  22.208  0.00  0.00    -0.275 OA
ATOM      9  O   UNL     1       9.350  -3.542  25.007  0.00  0.00    -0.370 OA
ATOM     10  N   UNL     1       7.740  -1.396  22.565  0.00  0.00    -0.298 N 
ATOM     11  H   UNL     1       7.306  -0.587  22.139  0.00  0.00    +0.150 HD
ENDROOT
BRANCH   1  12
ATOM     12  C   UNL     1      10.197  -1.617  23.326  0.00  0.00    +0.254 C 
ATOM     13  O   UNL     1      10.614  -1.813  22.172  0.00  0.00    -0.299 OA
ENDBRANCH   1  12
BRANCH   1  14
ATOM     14  C   UNL     1       8.830   0.226  24.053  0.00  0.00    +0.154 C 
BRANCH  14  15
ATOM     15  C   UNL     1       9.430   1.337  23.119  0.00  0.00    +0.043 C 
ATOM     16  C   UNL     1      10.136   2.491  23.791  0.00  0.00    -0.025 C 
ATOM     17  C   UNL     1       9.673   3.748  23.854  0.00  0.00    -0.031 C 
ATOM     18  C   UNL     1       8.383   4.214  23.264  0.00  0.00    +0.027 C 
ATOM     19  C   UNL     1       7.587   3.149  22.520  0.00  0.00    +0.005 C 
ATOM     20  C   UNL     1       8.371   1.890  22.107  0.00  0.00    +0.010 C 
ENDBRANCH  14  15
BRANCH  14  21
ATOM     21  O   UNL     1       9.601   0.312  25.292  0.00  0.00    -0.389 OA
ATOM     22  H   UNL     1       9.000   0.451  26.044  0.00  0.00    +0.210 HD
ENDBRANCH  14  21
ENDBRANCH   1  14
TORSDOF 4
ENDMDL
