MODEL 1
REMARK VINA RESULT:      -2.9      0.000      0.000
REMARK  Name = 
REMARK  4 active torsions:
REMARK  status: ('A' for Active; 'I' for Inactive)
REMARK    1  A    between atoms: C_1  and  C_2
REMARK    2  A    between atoms: C_2  and  O_4
REMARK    3  A    between atoms: C_2  and  C_5
REMARK    4  A    between atoms: C_5  and  O_6
REMARK                            x       y       z     vdW  Elec       q    Type
REMARK                         _______ _______ _______ _____ _____    ______ ____
ROOT
ATOM      1  C   UNL     1       8.666  -4.191  24.237  0.00  0.00    +0.040 C 
ATOM      2  C   UNL     1       8.861  -5.266  25.298  0.00  0.00    +0.137 C 
ENDROOT
BRANCH   2   3
ATOM      3  O   UNL     1      10.245  -5.630  25.329  0.00  0.00    -0.390 OA
ATOM      4  H   UNL     1      10.404  -6.086  26.174  0.00  0.00    +0.210 HD
ENDBRANCH   2   3
BRANCH   2   5
ATOM      5  C   UNL     1       8.468  -4.783  26.697  0.00  0.00    +0.186 C 
BRANCH   5   6
ATOM      6  O   UNL     1       7.947  -5.865  27.467  0.00  0.00    -0.392 OA
ATOM      7  H   UNL     1       8.681  -6.127  28.057  0.00  0.00    +0.210 HD
ENDBRANCH   5   6
ENDBRANCH   2   5
TORSDOF 3
ENDMDL
MODEL 2
REMARK VINA RESULT:      -2.8      1.204      2.380
REMARK  Name = 
REMARK  4 active torsions:
REMARK  status: ('A' for Active; 'I' for Inactive)
REMARK    1  A    between atoms: C_1  and  C_2
REMARK    2  A    between atoms: C_2  and  O_4
REMARK    3  A    between atoms: C_2  and  C_5
REMARK    4  A    between atoms: C_5  and  O_6
REMARK                            x       y       z     vdW  Elec       q    Type
REMARK                         _______ _______ _______ _____ _____    ______ ____
ROOT
ATOM      1  C   UNL     1       6.890  -5.217  25.562  0.00  0.00    +0.040 C 
ATOM      2  C   UNL     1       7.813  -4.902  26.731  0.00  0.00    +0.137 C 
ENDROOT
BRANCH   2   3
ATOM      3  O   UNL     1       7.770  -5.997  27.654  0.00  0.00    -0.390 OA
ATOM      4  H   UNL     1       6.853  -6.325  27.667  0.00  0.00    +0.210 HD
ENDBRANCH   2   3
BRANCH   2   5
ATOM      5  C   UNL     1       9.268  -4.713  26.291  0.00  0.00    +0.186 C 
BRANCH   5   6
ATOM      6  O   UNL     1       9.742  -5.884  25.627  0.00  0.00    -0.392 OA
ATOM      7  H   UNL     1      10.715  -5.802  25.642  0.00  0.00    +0.210 HD
ENDBRANCH   5   6
ENDBRANCH   2   5
TORSDOF 3
ENDMDL
MODEL 3
REMARK VINA RESULT:      -2.8      6.221      7.209
REMARK  Name = 
REMARK  4 active torsions:
REMARK  status: ('A' for Active; 'I' for Inactive)
REMARK    1  A    between atoms: C_1  and  C_2
REMARK    2  A    between atoms: C_2  and  O_4
REMARK    3  A    between atoms: C_2  and  C_5
REMARK    4  A    between atoms: C_5  and  O_6
REMARK                            x       y       z     vdW  Elec       q    Type
REMARK                         _______ _______ _______ _____ _____    ______ ____
ROOT
ATOM      1  C   UNL     1       7.881   1.085  22.275  0.00  0.00    +0.040 C 
ATOM      2  C   UNL     1       9.169   0.783  21.523  0.00  0.00    +0.137 C 
ENDROOT
BRANCH   2   3
ATOM      3  O   UNL     1       9.962   1.974  21.480  0.00  0.00    -0.390 OA
ATOM      4  H   UNL     1      10.481   2.004  22.304  0.00  0.00    +0.210 HD
ENDBRANCH   2   3
BRANCH   2   5
ATOM      5  C   UNL     1       9.997  -0.312  22.202  0.00  0.00    +0.186 C 
BRANCH   5   6
ATOM      6  O   UNL     1      10.094  -1.457  21.355  0.00  0.00    -0.392 OA
ATOM      7  H   UNL     1       9.221  -1.891  21.422  0.00  0.00    +0.210 HD
ENDBRANCH   5   6
ENDBRANCH   2   5
TORSDOF 3
ENDMDL
MODEL 4
REMARK VINA RESULT:      -2.8      5.906      6.969
REMARK  Name = 
REMARK  4 active torsions:
REMARK  status: ('A' for Active; 'I' for Inactive)
REMARK    1  A    between atoms: C_1  and  C_2
REMARK    2  A    between atoms: C_2  and  O_4
REMARK    3  A    between atoms: C_2  and  C_5
REMARK    4  A    between atoms: C_5  and  O_6
REMARK                            x       y       z     vdW  Elec       q    Type
REMARK                         _______ _______ _______ _____ _____    ______ ____
ROOT
ATOM      1  C   UNL     1       9.860  -0.628  23.577  0.00  0.00    +0.040 C 
ATOM      2  C   UNL     1      10.168  -0.307  22.122  0.00  0.00    +0.137 C 
ENDROOT
BRANCH   2   3
ATOM      3  O   UNL     1      10.056  -1.511  21.355  0.00  0.00    -0.390 OA
ATOM      4  H   UNL     1       9.287  -2.000  21.699  0.00  0.00    +0.210 HD
ENDBRANCH   2   3
BRANCH   2   5
ATOM      5  C   UNL     1       9.197   0.720  21.533  0.00  0.00    +0.186 C 
BRANCH   5   6
ATOM      6  O   UNL     1       9.822   2.000  21.444  0.00  0.00    -0.392 OA
ATOM      7  H   UNL     1      10.738   1.811  21.162  0.00  0.00    +0.210 HD
ENDBRANCH   5   6
ENDBRANCH   2   5
TORSDOF 3
ENDMDL
MODEL 5
REMARK VINA RESULT:      -2.6      7.665      8.416
REMARK  Name = 
REMARK  4 active torsions:
REMARK  status: ('A' for Active; 'I' for Inactive)
REMARK    1  A    between atoms: C_1  and  C_2
REMARK    2  A    between atoms: C_2  and  O_4
REMARK    3  A    between atoms: C_2  and  C_5
REMARK    4  A    between atoms: C_5  and  O_6
REMARK                            x       y       z     vdW  Elec       q    Type
REMARK                         _______ _______ _______ _____ _____    ______ ____
ROOT
ATOM      1  C   UNL     1       9.753   0.239  22.348  0.00  0.00    +0.040 C 
ATOM      2  C   UNL     1      10.091   1.694  22.058  0.00  0.00    +0.137 C 
ENDROOT
BRANCH   2   3
ATOM      3  O   UNL     1       8.946   2.318  21.465  0.00  0.00    -0.390 OA
ATOM      4  H   UNL     1       8.181   2.115  22.032  0.00  0.00    +0.210 HD
ENDBRANCH   2   3
BRANCH   2   5
ATOM      5  C   UNL     1      10.451   2.474  23.325  0.00  0.00    +0.186 C 
BRANCH   5   6
ATOM      6  O   UNL     1      11.084   3.708  22.986  0.00  0.00    -0.392 OA
ATOM      7  H   UNL     1      11.030   4.247  23.798  0.00  0.00    +0.210 HD
ENDBRANCH   5   6
ENDBRANCH   2   5
TORSDOF 3
ENDMDL
MODEL 6
REMARK VINA RESULT:      -2.5      6.794      7.577
REMARK  Name = 
REMARK  4 active torsions:
REMARK  status: ('A' for Active; 'I' for Inactive)
REMARK    1  A    between atoms: C_1  and  C_2
REMARK    2  A    between atoms: C_2  and  O_4
REMARK    3  A    between atoms: C_2  and  C_5
REMARK    4  A    between atoms: C_5  and  O_6
REMARK                            x       y       z     vdW  Elec       q    Type
REMARK                         _______ _______ _______ _____ _____    ______ ____
ROOT
ATOM      1  C   UNL     1       8.998   1.613  24.716  0.00  0.00    +0.040 C 
ATOM      2  C   UNL     1      10.287   1.608  23.907  0.00  0.00    +0.137 C 
ENDROOT
BRANCH   2   3
ATOM      3  O   UNL     1      11.222   0.729  24.544  0.00  0.00    -0.390 OA
ATOM      4  H   UNL     1      10.725  -0.056  24.836  0.00  0.00    +0.210 HD
ENDBRANCH   2   3
BRANCH   2   5
ATOM      5  C   UNL     1      10.074   1.112  22.474  0.00  0.00    +0.186 C 
BRANCH   5   6
ATOM      6  O   UNL     1      10.085   2.210  21.562  0.00  0.00    -0.392 OA
ATOM      7  H   UNL     1      10.274   2.992  22.116  0.00  0.00    +0.210 HD
ENDBRANCH   5   6
ENDBRANCH   2   5
TORSDOF 3
ENDMDL
MODEL 7
REMARK VINA RESULT:      -2.5      7.244      7.857
REMARK  Name = 
REMARK  4 active torsions:
REMARK  status: ('A' for Active; 'I' for Inactive)
REMARK    1  A    between atoms: C_1  and  C_2
REMARK    2  A    between atoms: C_2  and  O_4
REMARK    3  A    between atoms: C_2  and  C_5
REMARK    4  A    between atoms: C_5  and  O_6
REMARK                            x       y       z     vdW  Elec       q    Type
REMARK                         _______ _______ _______ _____ _____    ______ ____
ROOT
ATOM      1  C   UNL     1       9.762   3.690  23.658  0.00  0.00    +0.040 C 
ATOM      2  C   UNL     1       9.763   2.270  23.110  0.00  0.00    +0.137 C 
ENDROOT
BRANCH   2   3
ATOM      3  O   UNL     1      10.253   2.300  21.765  0.00  0.00    -0.390 OA
ATOM      4  H   UNL     1      11.200   2.525  21.809  0.00  0.00    +0.210 HD
ENDBRANCH   2   3
BRANCH   2   5
ATOM      5  C   UNL     1      10.662   1.333  23.920  0.00  0.00    +0.186 C 
BRANCH   5   6
ATOM      6  O   UNL     1      10.055   1.023  25.174  0.00  0.00    -0.392 OA
ATOM      7  H   UNL     1      10.124   1.847  25.694  0.00  0.00    +0.210 HD
ENDBRANCH   5   6
ENDBRANCH   2   5
TORSDOF 3
ENDMDL
MODEL 8
REMARK VINA RESULT:      -2.5      5.590      6.281
REMARK  Name = 
REMARK  4 active torsions:
REMARK  status: ('A' for Active; 'I' for Inactive)
REMARK    1  A    between atoms: C_1  and  C_2
REMARK    2  A    between atoms: C_2  and  O_4
REMARK    3  A    between atoms: C_2  and  C_5
REMARK    4  A    between atoms: C_5  and  O_6
REMARK                            x       y       z     vdW  Elec       q    Type
REMARK                         _______ _______ _______ _____ _____    ______ ____
ROOT
ATOM      1  C   UNL     1      10.585   0.318  24.568  0.00  0.00    +0.040 C 
ATOM      2  C   UNL     1       9.858  -0.075  23.290  0.00  0.00    +0.137 C 
ENDROOT
BRANCH   2   3
ATOM      3  O   UNL     1      10.206   0.859  22.261  0.00  0.00    -0.390 OA
ATOM      4  H   UNL     1       9.784   0.551  21.439  0.00  0.00    +0.210 HD
ENDBRANCH   2   3
BRANCH   2   5
ATOM      5  C   UNL     1      10.244  -1.476  22.807  0.00  0.00    +0.186 C 
BRANCH   5   6
ATOM      6  O   UNL     1      10.149  -1.555  21.385  0.00  0.00    -0.392 OA
ATOM      7  H   UNL     1      10.162  -2.511  21.187  0.00  0.00    +0.210 HD
ENDBRANCH   5   6
ENDBRANCH   2   5
TORSDOF 3
ENDMDL
MODEL 9
REMARK VINA RESULT:      -2.5      7.885      8.378
REMARK  Name = 
REMARK  4 active torsions:
REMARK  status: ('A' for Active; 'I' for Inactive)
REMARK    1  A    between atoms: C_1  and  C_2
REMARK    2  A    between atoms: C_2  and  O_4
REMARK    3  A    between atoms: C_2  and  C_5
REMARK    4  A    between atoms: C_5  and  O_6
REMARK                            x       y       z     vdW  Elec       q    Type
REMARK                         _______ _______ _______ _____ _____    ______ ____
ROOT
ATOM      1  C   UNL     1       9.580   2.004  24.390  0.00  0.00    +0.040 C 
ATOM      2  C   UNL     1       9.688   2.495  22.954  0.00  0.00    +0.137 C 
ENDROOT
BRANCH   2   3
ATOM      3  O   UNL     1      10.831   3.351  22.849  0.00  0.00    -0.390 OA
ATOM      4  H   UNL     1      11.277   3.134  22.011  0.00  0.00    +0.210 HD
ENDBRANCH   2   3
BRANCH   2   5
ATOM      5  C   UNL     1       9.865   1.346  21.957  0.00  0.00    +0.186 C 
BRANCH   5   6
ATOM      6  O   UNL     1       8.856   1.404  20.949  0.00  0.00    -0.392 OA
ATOM      7  H   UNL     1       8.067   1.753  21.406  0.00  0.00    +0.210 HD
ENDBRANCH   5   6
ENDBRANCH   2   5
TORSDOF 3
ENDMDL
