MODEL 1
REMARK VINA RESULT:      -7.3      0.000      0.000
REMARK  Name = 
REMARK  6 active torsions:
REMARK  status: ('A' for Active; 'I' for Inactive)
REMARK    1  A    between atoms: C_2  and  N_23
REMARK    2  A    between atoms: C_7  and  C_13
REMARK    3  A    between atoms: C_7  and  P_19
REMARK    4  A    between atoms: P_19  and  O_20
REMARK    5  A    between atoms: P_19  and  O_21
REMARK    6  A    between atoms: C_25  and  C_26
REMARK                            x       y       z     vdW  Elec       q    Type
REMARK                         _______ _______ _______ _____ _____    ______ ____
ROOT
ATOM      1  C   UNL     1       8.964  -2.813  23.040  0.00  0.00    +0.226 C 
ATOM      2  O   UNL     1       8.474  -1.929  22.013  0.00  0.00    -0.348 OA
ATOM      3  C   UNL     1       9.521  -0.975  21.759  0.00  0.00    +0.175 C 
ATOM      4  C   UNL     1      10.147  -0.723  23.107  0.00  0.00    +0.158 C 
ATOM      5  O   UNL     1       9.365   0.136  23.940  0.00  0.00    -0.330 OA
ATOM      6  C   UNL     1       8.920   1.381  23.324  0.00  0.00    +0.302 C 
ATOM      7  O   UNL     1       8.339   1.179  22.021  0.00  0.00    -0.333 OA
ATOM      8  C   UNL     1       8.978   0.286  21.124  0.00  0.00    +0.198 C 
ATOM      9  C   UNL     1      10.146  -2.114  23.717  0.00  0.00    +0.089 C 
ENDROOT
BRANCH   1  10
ATOM     10  N   UNL     1       7.902  -3.182  23.966  0.00  0.00    -0.274 N 
ATOM     11  C   UNL     1       7.897  -4.493  24.428  0.00  0.00    +0.331 A 
ATOM     12  O   UNL     1       8.722  -5.341  24.095  0.00  0.00    -0.246 OA
ATOM     13  N   UNL     1       6.898  -4.802  25.311  0.00  0.00    -0.275 N 
ATOM     14  H   UNL     1       6.882  -5.752  25.658  0.00  0.00    +0.173 HD
ATOM     15  C   UNL     1       5.972  -3.942  25.820  0.00  0.00    +0.257 A 
ATOM     16  O   UNL     1       5.159  -4.286  26.670  0.00  0.00    -0.267 OA
ATOM     17  C   UNL     1       6.032  -2.554  25.303  0.00  0.00    +0.030 A 
ATOM     18  C   UNL     1       5.008  -1.586  25.795  0.00  0.00    +0.051 C 
ATOM     19  C   UNL     1       6.989  -2.252  24.418  0.00  0.00    +0.101 A 
ENDBRANCH   1  10
BRANCH   6  20
ATOM     20  C   UNL     1       7.705   1.844  24.167  0.00  0.00    +0.024 A 
ATOM     21  C   UNL     1       7.867   2.210  25.521  0.00  0.00    +0.009 A 
ATOM     22  C   UNL     1       6.786   2.643  26.291  0.00  0.00    +0.000 A 
ATOM     23  C   UNL     1       5.515   2.701  25.732  0.00  0.00    +0.000 A 
ATOM     24  C   UNL     1       5.325   2.323  24.405  0.00  0.00    +0.000 A 
ATOM     25  C   UNL     1       6.407   1.895  23.630  0.00  0.00    +0.009 A 
ENDBRANCH   6  20
BRANCH   6  26
ATOM     26  P   UNL     1      10.212   2.678  23.346  0.00  0.00    +0.391 P 
ATOM     27  O   UNL     1      11.303   3.775  23.364  0.00  0.00    -0.253 OA
BRANCH  26  28
ATOM     28  O   UNL     1       9.074   3.856  23.126  0.00  0.00    -0.320 OA
ATOM     29  H   UNL     1       9.097   4.018  22.156  0.00  0.00    +0.220 HD
ENDBRANCH  26  28
BRANCH  26  30
ATOM     30  O   UNL     1      10.494   2.392  21.728  0.00  0.00    -0.320 OA
ATOM     31  H   UNL     1      10.474   1.445  21.472  0.00  0.00    +0.220 HD
ENDBRANCH  26  30
ENDBRANCH   6  26
TORSDOF 5
ENDMDL
MODEL 2
REMARK VINA RESULT:      -7.1      1.547      1.959
REMARK  Name = 
REMARK  6 active torsions:
REMARK  status: ('A' for Active; 'I' for Inactive)
REMARK    1  A    between atoms: C_2  and  N_23
REMARK    2  A    between atoms: C_7  and  C_13
REMARK    3  A    between atoms: C_7  and  P_19
REMARK    4  A    between atoms: P_19  and  O_20
REMARK    5  A    between atoms: P_19  and  O_21
REMARK    6  A    between atoms: C_25  and  C_26
REMARK                            x       y       z     vdW  Elec       q    Type
REMARK                         _______ _______ _______ _____ _____    ______ ____
ROOT
ATOM      1  C   UNL     1       8.620  -3.480  23.623  0.00  0.00    +0.226 C 
ATOM      2  O   UNL     1       7.748  -2.518  23.000  0.00  0.00    -0.348 OA
ATOM      3  C   UNL     1       8.595  -1.508  22.423  0.00  0.00    +0.175 C 
ATOM      4  C   UNL     1       9.740  -1.367  23.394  0.00  0.00    +0.158 C 
ATOM      5  O   UNL     1       9.399  -0.620  24.564  0.00  0.00    -0.330 OA
ATOM      6  C   UNL     1       8.746   0.662  24.328  0.00  0.00    +0.302 C 
ATOM      7  O   UNL     1       7.661   0.568  23.384  0.00  0.00    -0.333 OA
ATOM      8  C   UNL     1       7.845  -0.211  22.214  0.00  0.00    +0.198 C 
ATOM      9  C   UNL     1       9.986  -2.810  23.799  0.00  0.00    +0.089 C 
ENDROOT
BRANCH   1  10
ATOM     10  N   UNL     1       8.054  -3.974  24.871  0.00  0.00    -0.274 N 
ATOM     11  C   UNL     1       8.618  -5.126  25.406  0.00  0.00    +0.331 A 
ATOM     12  O   UNL     1       9.548  -5.740  24.887  0.00  0.00    -0.246 OA
ATOM     13  N   UNL     1       8.075  -5.553  26.588  0.00  0.00    -0.275 N 
ATOM     14  H   UNL     1       8.478  -6.389  26.992  0.00  0.00    +0.173 HD
ATOM     15  C   UNL     1       7.101  -4.926  27.305  0.00  0.00    +0.257 A 
ATOM     16  O   UNL     1       6.728  -5.338  28.397  0.00  0.00    -0.267 OA
ATOM     17  C   UNL     1       6.544  -3.696  26.694  0.00  0.00    +0.030 A 
ATOM     18  C   UNL     1       5.441  -3.000  27.419  0.00  0.00    +0.051 C 
ATOM     19  C   UNL     1       7.051  -3.288  25.524  0.00  0.00    +0.101 A 
ENDBRANCH   1  10
BRANCH   6  20
ATOM     20  C   UNL     1       8.013   0.998  25.651  0.00  0.00    +0.024 A 
ATOM     21  C   UNL     1       7.551   2.308  25.903  0.00  0.00    +0.009 A 
ATOM     22  C   UNL     1       6.875   2.627  27.083  0.00  0.00    +0.000 A 
ATOM     23  C   UNL     1       6.664   1.648  28.048  0.00  0.00    +0.000 A 
ATOM     24  C   UNL     1       7.131   0.353  27.832  0.00  0.00    +0.000 A 
ATOM     25  C   UNL     1       7.802   0.031  26.648  0.00  0.00    +0.009 A 
ENDBRANCH   6  20
BRANCH   6  26
ATOM     26  P   UNL     1       9.936   1.995  23.930  0.00  0.00    +0.391 P 
ATOM     27  O   UNL     1      10.941   3.122  23.593  0.00  0.00    -0.253 OA
BRANCH  26  28
ATOM     28  O   UNL     1      10.051   1.467  22.368  0.00  0.00    -0.320 OA
ATOM     29  H   UNL     1      11.015   1.516  22.181  0.00  0.00    +0.220 HD
ENDBRANCH  26  28
BRANCH  26  30
ATOM     30  O   UNL     1      11.166   1.047  24.535  0.00  0.00    -0.320 OA
ATOM     31  H   UNL     1      11.573   1.386  25.360  0.00  0.00    +0.220 HD
ENDBRANCH  26  30
ENDBRANCH   6  26
TORSDOF 5
ENDMDL
MODEL 3
REMARK VINA RESULT:      -6.9      3.055      7.510
REMARK  Name = 
REMARK  6 active torsions:
REMARK  status: ('A' for Active; 'I' for Inactive)
REMARK    1  A    between atoms: C_2  and  N_23
REMARK    2  A    between atoms: C_7  and  C_13
REMARK    3  A    between atoms: C_7  and  P_19
REMARK    4  A    between atoms: P_19  and  O_20
REMARK    5  A    between atoms: P_19  and  O_21
REMARK    6  A    between atoms: C_25  and  C_26
REMARK                            x       y       z     vdW  Elec       q    Type
REMARK                         _______ _______ _______ _____ _____    ______ ____
ROOT
ATOM      1  C   UNL     1       6.159  -0.287  25.690  0.00  0.00    +0.226 C 
ATOM      2  O   UNL     1       4.884  -0.888  25.393  0.00  0.00    -0.348 OA
ATOM      3  C   UNL     1       4.617  -1.829  26.449  0.00  0.00    +0.175 C 
ATOM      4  C   UNL     1       5.964  -2.413  26.794  0.00  0.00    +0.158 C 
ATOM      5  O   UNL     1       6.417  -3.382  25.846  0.00  0.00    -0.330 OA
ATOM      6  C   UNL     1       5.461  -4.428  25.504  0.00  0.00    +0.302 C 
ATOM      7  O   UNL     1       4.154  -3.905  25.194  0.00  0.00    -0.333 OA
ATOM      8  C   UNL     1       3.620  -2.880  26.014  0.00  0.00    +0.198 C 
ATOM      9  C   UNL     1       6.866  -1.194  26.703  0.00  0.00    +0.089 C 
ENDROOT
BRANCH   1  10
ATOM     10  N   UNL     1       6.932  -0.063  24.476  0.00  0.00    -0.274 N 
ATOM     11  C   UNL     1       6.626   1.073  23.736  0.00  0.00    +0.331 A 
ATOM     12  O   UNL     1       5.751   1.878  24.044  0.00  0.00    -0.246 OA
ATOM     13  N   UNL     1       7.383   1.263  22.611  0.00  0.00    -0.275 N 
ATOM     14  H   UNL     1       7.176   2.087  22.063  0.00  0.00    +0.173 HD
ATOM     15  C   UNL     1       8.431   0.494  22.200  0.00  0.00    +0.257 A 
ATOM     16  O   UNL     1       9.107   0.783  21.219  0.00  0.00    -0.267 OA
ATOM     17  C   UNL     1       8.720  -0.697  23.034  0.00  0.00    +0.030 A 
ATOM     18  C   UNL     1       9.827  -1.596  22.597  0.00  0.00    +0.051 C 
ATOM     19  C   UNL     1       7.966  -0.904  24.119  0.00  0.00    +0.101 A 
ENDBRANCH   1  10
BRANCH   6  20
ATOM     20  C   UNL     1       5.934  -4.985  24.138  0.00  0.00    +0.024 A 
ATOM     21  C   UNL     1       7.310  -5.065  23.832  0.00  0.00    +0.009 A 
ATOM     22  C   UNL     1       7.755  -5.578  22.612  0.00  0.00    +0.000 A 
ATOM     23  C   UNL     1       6.835  -6.004  21.662  0.00  0.00    +0.000 A 
ATOM     24  C   UNL     1       5.471  -5.914  21.930  0.00  0.00    +0.000 A 
ATOM     25  C   UNL     1       5.023  -5.407  23.154  0.00  0.00    +0.009 A 
ENDBRANCH   6  20
BRANCH   6  26
ATOM     26  P   UNL     1       5.423  -5.778  26.739  0.00  0.00    +0.391 P 
ATOM     27  O   UNL     1       5.392  -6.921  27.783  0.00  0.00    -0.253 OA
BRANCH  26  28
ATOM     28  O   UNL     1       7.060  -5.973  26.621  0.00  0.00    -0.320 OA
ATOM     29  H   UNL     1       7.334  -5.243  26.021  0.00  0.00    +0.220 HD
ENDBRANCH  26  28
BRANCH  26  30
ATOM     30  O   UNL     1       5.023  -6.847  25.524  0.00  0.00    -0.320 OA
ATOM     31  H   UNL     1       5.588  -7.648  25.484  0.00  0.00    +0.220 HD
ENDBRANCH  26  30
ENDBRANCH   6  26
TORSDOF 5
ENDMDL
MODEL 4
REMARK VINA RESULT:      -6.9      2.721      6.012
REMARK  Name = 
REMARK  6 active torsions:
REMARK  status: ('A' for Active; 'I' for Inactive)
REMARK    1  A    between atoms: C_2  and  N_23
REMARK    2  A    between atoms: C_7  and  C_13
REMARK    3  A    between atoms: C_7  and  P_19
REMARK    4  A    between atoms: P_19  and  O_20
REMARK    5  A    between atoms: P_19  and  O_21
REMARK    6  A    between atoms: C_25  and  C_26
REMARK                            x       y       z     vdW  Elec       q    Type
REMARK                         _______ _______ _______ _____ _____    ______ ____
ROOT
ATOM      1  C   UNL     1      10.024   1.228  22.463  0.00  0.00    +0.226 C 
ATOM      2  O   UNL     1      10.545   0.152  23.265  0.00  0.00    -0.348 OA
ATOM      3  C   UNL     1      10.334  -1.059  22.517  0.00  0.00    +0.175 C 
ATOM      4  C   UNL     1       9.012  -0.855  21.821  0.00  0.00    +0.158 C 
ATOM      5  O   UNL     1       7.888  -1.020  22.687  0.00  0.00    -0.330 OA
ATOM      6  C   UNL     1       7.880  -2.239  23.487  0.00  0.00    +0.302 C 
ATOM      7  O   UNL     1       9.138  -2.478  24.147  0.00  0.00    -0.333 OA
ATOM      8  C   UNL     1      10.337  -2.273  23.418  0.00  0.00    +0.198 C 
ATOM      9  C   UNL     1       9.095   0.607  21.415  0.00  0.00    +0.089 C 
ENDROOT
BRANCH   1  10
ATOM     10  N   UNL     1       9.372   2.234  23.291  0.00  0.00    -0.274 N 
ATOM     11  C   UNL     1      10.119   3.358  23.622  0.00  0.00    +0.331 A 
ATOM     12  O   UNL     1      11.280   3.540  23.264  0.00  0.00    -0.246 OA
ATOM     13  N   UNL     1       9.470   4.292  24.384  0.00  0.00    -0.275 N 
ATOM     14  H   UNL     1      10.000   5.118  24.631  0.00  0.00    +0.173 HD
ATOM     15  C   UNL     1       8.167   4.251  24.780  0.00  0.00    +0.257 A 
ATOM     16  O   UNL     1       7.643   5.171  25.397  0.00  0.00    -0.267 OA
ATOM     17  C   UNL     1       7.415   3.035  24.389  0.00  0.00    +0.030 A 
ATOM     18  C   UNL     1       5.997   2.923  24.841  0.00  0.00    +0.051 C 
ATOM     19  C   UNL     1       8.050   2.105  23.667  0.00  0.00    +0.101 A 
ENDBRANCH   1  10
BRANCH   6  20
ATOM     20  C   UNL     1       6.928  -1.944  24.675  0.00  0.00    +0.024 A 
ATOM     21  C   UNL     1       5.989  -0.892  24.598  0.00  0.00    +0.009 A 
ATOM     22  C   UNL     1       5.114  -0.621  25.652  0.00  0.00    +0.000 A 
ATOM     23  C   UNL     1       5.172  -1.381  26.815  0.00  0.00    +0.000 A 
ATOM     24  C   UNL     1       6.105  -2.409  26.923  0.00  0.00    +0.000 A 
ATOM     25  C   UNL     1       6.978  -2.687  25.867  0.00  0.00    +0.009 A 
ENDBRANCH   6  20
BRANCH   6  26
ATOM     26  P   UNL     1       7.266  -3.689  22.555  0.00  0.00    +0.391 P 
ATOM     27  O   UNL     1       6.747  -4.916  21.766  0.00  0.00    -0.253 OA
BRANCH  26  28
ATOM     28  O   UNL     1       5.784  -3.564  23.276  0.00  0.00    -0.320 OA
ATOM     29  H   UNL     1       5.510  -4.501  23.399  0.00  0.00    +0.220 HD
ENDBRANCH  26  28
BRANCH  26  30
ATOM     30  O   UNL     1       7.945  -4.687  23.705  0.00  0.00    -0.320 OA
ATOM     31  H   UNL     1       8.656  -4.271  24.236  0.00  0.00    +0.220 HD
ENDBRANCH  26  30
ENDBRANCH   6  26
TORSDOF 5
ENDMDL
MODEL 5
REMARK VINA RESULT:      -6.7      2.313      4.440
REMARK  Name = 
REMARK  6 active torsions:
REMARK  status: ('A' for Active; 'I' for Inactive)
REMARK    1  A    between atoms: C_2  and  N_23
REMARK    2  A    between atoms: C_7  and  C_13
REMARK    3  A    between atoms: C_7  and  P_19
REMARK    4  A    between atoms: P_19  and  O_20
REMARK    5  A    between atoms: P_19  and  O_21
REMARK    6  A    between atoms: C_25  and  C_26
REMARK                            x       y       z     vdW  Elec       q    Type
REMARK                         _______ _______ _______ _____ _____    ______ ____
ROOT
ATOM      1  C   UNL     1       6.340  -1.474  26.907  0.00  0.00    +0.226 C 
ATOM      2  O   UNL     1       6.940  -0.250  27.371  0.00  0.00    -0.348 OA
ATOM      3  C   UNL     1       5.989   0.799  27.113  0.00  0.00    +0.175 C 
ATOM      4  C   UNL     1       5.338   0.414  25.808  0.00  0.00    +0.158 C 
ATOM      5  O   UNL     1       6.159   0.677  24.669  0.00  0.00    -0.330 OA
ATOM      6  C   UNL     1       6.732   2.016  24.597  0.00  0.00    +0.302 C 
ATOM      7  O   UNL     1       7.341   2.427  25.838  0.00  0.00    -0.333 OA
ATOM      8  C   UNL     1       6.662   2.152  27.051  0.00  0.00    +0.198 C 
ATOM      9  C   UNL     1       5.197  -1.091  25.961  0.00  0.00    +0.089 C 
ENDROOT
BRANCH   1  10
ATOM     10  N   UNL     1       7.331  -2.347  26.293  0.00  0.00    -0.274 N 
ATOM     11  C   UNL     1       7.330  -3.679  26.690  0.00  0.00    +0.331 A 
ATOM     12  O   UNL     1       6.555  -4.146  27.522  0.00  0.00    -0.246 OA
ATOM     13  N   UNL     1       8.261  -4.476  26.081  0.00  0.00    -0.275 N 
ATOM     14  H   UNL     1       8.271  -5.449  26.357  0.00  0.00    +0.173 HD
ATOM     15  C   UNL     1       9.122  -4.104  25.091  0.00  0.00    +0.257 A 
ATOM     16  O   UNL     1       9.871  -4.905  24.544  0.00  0.00    -0.267 OA
ATOM     17  C   UNL     1       9.071  -2.676  24.698  0.00  0.00    +0.030 A 
ATOM     18  C   UNL     1      10.029  -2.211  23.652  0.00  0.00    +0.051 C 
ATOM     19  C   UNL     1       8.182  -1.885  25.310  0.00  0.00    +0.101 A 
ENDBRANCH   1  10
BRANCH   6  20
ATOM     20  C   UNL     1       7.951   1.891  23.649  0.00  0.00    +0.024 A 
ATOM     21  C   UNL     1       9.136   2.614  23.904  0.00  0.00    +0.009 A 
ATOM     22  C   UNL     1      10.250   2.503  23.068  0.00  0.00    +0.000 A 
ATOM     23  C   UNL     1      10.196   1.683  21.947  0.00  0.00    +0.000 A 
ATOM     24  C   UNL     1       9.030   0.978  21.661  0.00  0.00    +0.000 A 
ATOM     25  C   UNL     1       7.916   1.082  22.500  0.00  0.00    +0.009 A 
ENDBRANCH   6  20
BRANCH   6  26
ATOM     26  P   UNL     1       5.556   3.249  23.928  0.00  0.00    +0.391 P 
ATOM     27  O   UNL     1       4.563   4.292  23.362  0.00  0.00    -0.253 OA
BRANCH  26  28
ATOM     28  O   UNL     1       5.127   2.222  22.707  0.00  0.00    -0.320 OA
ATOM     29  H   UNL     1       4.587   1.538  23.163  0.00  0.00    +0.220 HD
ENDBRANCH  26  28
BRANCH  26  30
ATOM     30  O   UNL     1       6.818   3.978  23.118  0.00  0.00    -0.320 OA
ATOM     31  H   UNL     1       6.613   4.870  22.763  0.00  0.00    +0.220 HD
ENDBRANCH  26  30
ENDBRANCH   6  26
TORSDOF 5
ENDMDL
MODEL 6
REMARK VINA RESULT:      -6.6      1.785      2.290
REMARK  Name = 
REMARK  6 active torsions:
REMARK  status: ('A' for Active; 'I' for Inactive)
REMARK    1  A    between atoms: C_2  and  N_23
REMARK    2  A    between atoms: C_7  and  C_13
REMARK    3  A    between atoms: C_7  and  P_19
REMARK    4  A    between atoms: P_19  and  O_20
REMARK    5  A    between atoms: P_19  and  O_21
REMARK    6  A    between atoms: C_25  and  C_26
REMARK                            x       y       z     vdW  Elec       q    Type
REMARK                         _______ _______ _______ _____ _____    ______ ____
ROOT
ATOM      1  C   UNL     1      10.091  -0.797  24.076  0.00  0.00    +0.226 C 
ATOM      2  O   UNL     1       9.528  -0.317  22.839  0.00  0.00    -0.348 OA
ATOM      3  C   UNL     1      10.094   0.985  22.607  0.00  0.00    +0.175 C 
ATOM      4  C   UNL     1      10.215   1.601  23.977  0.00  0.00    +0.158 C 
ATOM      5  O   UNL     1       8.970   2.074  24.496  0.00  0.00    -0.330 OA
ATOM      6  C   UNL     1       8.195   2.925  23.601  0.00  0.00    +0.302 C 
ATOM      7  O   UNL     1       8.080   2.377  22.273  0.00  0.00    -0.333 OA
ATOM      8  C   UNL     1       9.230   1.804  21.674  0.00  0.00    +0.198 C 
ATOM      9  C   UNL     1      10.665   0.416  24.814  0.00  0.00    +0.089 C 
ENDROOT
BRANCH   1  10
ATOM     10  N   UNL     1       9.104  -1.533  24.853  0.00  0.00    -0.274 N 
ATOM     11  C   UNL     1       9.193  -2.920  24.833  0.00  0.00    +0.331 A 
ATOM     12  O   UNL     1      10.042  -3.543  24.200  0.00  0.00    -0.246 OA
ATOM     13  N   UNL     1       8.263  -3.581  25.589  0.00  0.00    -0.275 N 
ATOM     14  H   UNL     1       8.317  -4.591  25.587  0.00  0.00    +0.173 HD
ATOM     15  C   UNL     1       7.323  -3.013  26.395  0.00  0.00    +0.257 A 
ATOM     16  O   UNL     1       6.578  -3.683  27.101  0.00  0.00    -0.267 OA
ATOM     17  C   UNL     1       7.280  -1.531  26.388  0.00  0.00    +0.030 A 
ATOM     18  C   UNL     1       6.235  -0.864  27.218  0.00  0.00    +0.051 C 
ATOM     19  C   UNL     1       8.169  -0.879  25.629  0.00  0.00    +0.101 A 
ENDBRANCH   1  10
BRANCH   6  20
ATOM     20  C   UNL     1       6.738   2.850  24.123  0.00  0.00    +0.024 A 
ATOM     21  C   UNL     1       5.650   3.072  23.251  0.00  0.00    +0.009 A 
ATOM     22  C   UNL     1       4.330   2.994  23.700  0.00  0.00    +0.000 A 
ATOM     23  C   UNL     1       4.068   2.712  25.036  0.00  0.00    +0.000 A 
ATOM     24  C   UNL     1       5.124   2.513  25.921  0.00  0.00    +0.000 A 
ATOM     25  C   UNL     1       6.447   2.584  25.472  0.00  0.00    +0.009 A 
ENDBRANCH   6  20
BRANCH   6  26
ATOM     26  P   UNL     1       8.764   4.665  23.618  0.00  0.00    +0.391 P 
ATOM     27  O   UNL     1       9.244   6.136  23.631  0.00  0.00    -0.253 OA
BRANCH  26  28
ATOM     28  O   UNL     1       7.530   5.091  24.632  0.00  0.00    -0.320 OA
ATOM     29  H   UNL     1       7.382   4.278  25.165  0.00  0.00    +0.220 HD
ENDBRANCH  26  28
BRANCH  26  30
ATOM     30  O   UNL     1       7.931   4.927  22.197  0.00  0.00    -0.320 OA
ATOM     31  H   UNL     1       7.214   5.593  22.262  0.00  0.00    +0.220 HD
ENDBRANCH  26  30
ENDBRANCH   6  26
TORSDOF 5
ENDMDL
MODEL 7
REMARK VINA RESULT:      -6.6      2.681      5.926
REMARK  Name = 
REMARK  6 active torsions:
REMARK  status: ('A' for Active; 'I' for Inactive)
REMARK    1  A    between atoms: C_2  and  N_23
REMARK    2  A    between atoms: C_7  and  C_13
REMARK    3  A    between atoms: C_7  and  P_19
REMARK    4  A    between atoms: P_19  and  O_20
REMARK    5  A    between atoms: P_19  and  O_21
REMARK    6  A    between atoms: C_25  and  C_26
REMARK                            x       y       z     vdW  Elec       q    Type
REMARK                         _______ _______ _______ _____ _____    ______ ____
ROOT
ATOM      1  C   UNL     1      10.055  -0.303  23.048  0.00  0.00    +0.226 C 
ATOM      2  O   UNL     1      10.165  -1.313  24.069  0.00  0.00    -0.348 OA
ATOM      3  C   UNL     1       9.757  -2.554  23.467  0.00  0.00    +0.175 C 
ATOM      4  C   UNL     1       8.642  -2.175  22.525  0.00  0.00    +0.158 C 
ATOM      5  O   UNL     1       7.403  -1.921  23.191  0.00  0.00    -0.330 OA
ATOM      6  C   UNL     1       6.971  -2.944  24.135  0.00  0.00    +0.302 C 
ATOM      7  O   UNL     1       8.021  -3.349  25.035  0.00  0.00    -0.333 OA
ATOM      8  C   UNL     1       9.321  -3.558  24.510  0.00  0.00    +0.198 C 
ATOM      9  C   UNL     1       9.153  -0.867  21.946  0.00  0.00    +0.089 C 
ENDROOT
BRANCH   1  10
ATOM     10  N   UNL     1       9.574   0.955  23.602  0.00  0.00    -0.274 N 
ATOM     11  C   UNL     1       9.903   2.115  22.909  0.00  0.00    +0.331 A 
ATOM     12  O   UNL     1      10.571   2.132  21.878  0.00  0.00    -0.246 OA
ATOM     13  N   UNL     1       9.420   3.278  23.445  0.00  0.00    -0.275 N 
ATOM     14  H   UNL     1       9.648   4.130  22.950  0.00  0.00    +0.173 HD
ATOM     15  C   UNL     1       8.607   3.392  24.532  0.00  0.00    +0.257 A 
ATOM     16  O   UNL     1       8.155   4.471  24.898  0.00  0.00    -0.267 OA
ATOM     17  C   UNL     1       8.278   2.123  25.225  0.00  0.00    +0.030 A 
ATOM     18  C   UNL     1       7.429   2.203  26.450  0.00  0.00    +0.051 C 
ATOM     19  C   UNL     1       8.770   0.985  24.722  0.00  0.00    +0.101 A 
ENDBRANCH   1  10
BRANCH   6  20
ATOM     20  C   UNL     1       5.971  -2.233  25.082  0.00  0.00    +0.024 A 
ATOM     21  C   UNL     1       5.210  -2.975  26.012  0.00  0.00    +0.009 A 
ATOM     22  C   UNL     1       4.316  -2.350  26.883  0.00  0.00    +0.000 A 
ATOM     23  C   UNL     1       4.146  -0.971  26.831  0.00  0.00    +0.000 A 
ATOM     24  C   UNL     1       4.868  -0.220  25.907  0.00  0.00    +0.000 A 
ATOM     25  C   UNL     1       5.769  -0.843  25.038  0.00  0.00    +0.009 A 
ENDBRANCH   6  20
BRANCH   6  26
ATOM     26  P   UNL     1       6.141  -4.354  23.314  0.00  0.00    +0.391 P 
ATOM     27  O   UNL     1       5.439  -5.546  22.620  0.00  0.00    -0.253 OA
BRANCH  26  28
ATOM     28  O   UNL     1       7.370  -4.477  22.216  0.00  0.00    -0.320 OA
ATOM     29  H   UNL     1       7.096  -3.863  21.497  0.00  0.00    +0.220 HD
ENDBRANCH  26  28
BRANCH  26  30
ATOM     30  O   UNL     1       5.221  -3.273  22.439  0.00  0.00    -0.320 OA
ATOM     31  H   UNL     1       4.464  -2.890  22.933  0.00  0.00    +0.220 HD
ENDBRANCH  26  30
ENDBRANCH   6  26
TORSDOF 5
ENDMDL
MODEL 8
REMARK VINA RESULT:      -6.5      3.677      7.305
REMARK  Name = 
REMARK  6 active torsions:
REMARK  status: ('A' for Active; 'I' for Inactive)
REMARK    1  A    between atoms: C_2  and  N_23
REMARK    2  A    between atoms: C_7  and  C_13
REMARK    3  A    between atoms: C_7  and  P_19
REMARK    4  A    between atoms: P_19  and  O_20
REMARK    5  A    between atoms: P_19  and  O_21
REMARK    6  A    between atoms: C_25  and  C_26
REMARK                            x       y       z     vdW  Elec       q    Type
REMARK                         _______ _______ _______ _____ _____    ______ ____
ROOT
ATOM      1  C   UNL     1       7.188  -2.911  22.153  0.00  0.00    +0.226 C 
ATOM      2  O   UNL     1       7.486  -4.320  22.154  0.00  0.00    -0.348 OA
ATOM      3  C   UNL     1       6.277  -4.997  21.765  0.00  0.00    +0.175 C 
ATOM      4  C   UNL     1       5.167  -4.190  22.390  0.00  0.00    +0.158 C 
ATOM      5  O   UNL     1       5.020  -4.424  23.792  0.00  0.00    -0.330 OA
ATOM      6  C   UNL     1       4.947  -5.823  24.195  0.00  0.00    +0.302 C 
ATOM      7  O   UNL     1       5.980  -6.629  23.595  0.00  0.00    -0.333 OA
ATOM      8  C   UNL     1       6.278  -6.438  22.222  0.00  0.00    +0.198 C 
ATOM      9  C   UNL     1       5.663  -2.768  22.189  0.00  0.00    +0.089 C 
ENDROOT
BRANCH   1  10
ATOM     10  N   UNL     1       7.858  -2.231  23.253  0.00  0.00    -0.274 N 
ATOM     11  C   UNL     1       9.150  -1.776  23.018  0.00  0.00    +0.331 A 
ATOM     12  O   UNL     1       9.746  -1.921  21.953  0.00  0.00    -0.246 OA
ATOM     13  N   UNL     1       9.745  -1.125  24.065  0.00  0.00    -0.275 N 
ATOM     14  H   UNL     1      10.684  -0.784  23.908  0.00  0.00    +0.173 HD
ATOM     15  C   UNL     1       9.171  -0.828  25.265  0.00  0.00    +0.257 A 
ATOM     16  O   UNL     1       9.752  -0.170  26.120  0.00  0.00    -0.267 OA
ATOM     17  C   UNL     1       7.789  -1.326  25.457  0.00  0.00    +0.030 A 
ATOM     18  C   UNL     1       7.136  -1.068  26.774  0.00  0.00    +0.051 C 
ATOM     19  C   UNL     1       7.211  -1.988  24.447  0.00  0.00    +0.101 A 
ENDBRANCH   1  10
BRANCH   6  20
ATOM     20  C   UNL     1       5.336  -5.839  25.695  0.00  0.00    +0.024 A 
ATOM     21  C   UNL     1       6.297  -4.933  26.197  0.00  0.00    +0.009 A 
ATOM     22  C   UNL     1       6.650  -4.923  27.548  0.00  0.00    +0.000 A 
ATOM     23  C   UNL     1       6.067  -5.831  28.424  0.00  0.00    +0.000 A 
ATOM     24  C   UNL     1       5.134  -6.749  27.949  0.00  0.00    +0.000 A 
ATOM     25  C   UNL     1       4.774  -6.757  26.598  0.00  0.00    +0.009 A 
ENDBRANCH   6  20
BRANCH   6  26
ATOM     26  P   UNL     1       3.270  -6.528  23.990  0.00  0.00    +0.391 P 
ATOM     27  O   UNL     1       1.852  -7.124  23.816  0.00  0.00    -0.253 OA
BRANCH  26  28
ATOM     28  O   UNL     1       3.366  -6.357  22.349  0.00  0.00    -0.320 OA
ATOM     29  H   UNL     1       2.802  -7.088  22.010  0.00  0.00    +0.220 HD
ENDBRANCH  26  28
BRANCH  26  30
ATOM     30  O   UNL     1       2.624  -5.021  24.293  0.00  0.00    -0.320 OA
ATOM     31  H   UNL     1       2.463  -4.478  23.492  0.00  0.00    +0.220 HD
ENDBRANCH  26  30
ENDBRANCH   6  26
TORSDOF 5
ENDMDL
MODEL 9
REMARK VINA RESULT:      -6.5      2.905      6.644
REMARK  Name = 
REMARK  6 active torsions:
REMARK  status: ('A' for Active; 'I' for Inactive)
REMARK    1  A    between atoms: C_2  and  N_23
REMARK    2  A    between atoms: C_7  and  C_13
REMARK    3  A    between atoms: C_7  and  P_19
REMARK    4  A    between atoms: P_19  and  O_20
REMARK    5  A    between atoms: P_19  and  O_21
REMARK    6  A    between atoms: C_25  and  C_26
REMARK                            x       y       z     vdW  Elec       q    Type
REMARK                         _______ _______ _______ _____ _____    ______ ____
ROOT
ATOM      1  C   UNL     1       9.323  -2.529  23.789  0.00  0.00    +0.226 C 
ATOM      2  O   UNL     1       9.460  -3.401  24.928  0.00  0.00    -0.348 OA
ATOM      3  C   UNL     1       8.891  -4.667  24.548  0.00  0.00    +0.175 C 
ATOM      4  C   UNL     1       7.716  -4.312  23.672  0.00  0.00    +0.158 C 
ATOM      5  O   UNL     1       6.580  -3.857  24.409  0.00  0.00    -0.330 OA
ATOM      6  C   UNL     1       6.170  -4.701  25.525  0.00  0.00    +0.302 C 
ATOM      7  O   UNL     1       7.274  -5.080  26.370  0.00  0.00    -0.333 OA
ATOM      8  C   UNL     1       8.490  -5.478  25.759  0.00  0.00    +0.198 C 
ATOM      9  C   UNL     1       8.266  -3.146  22.868  0.00  0.00    +0.089 C 
ENDROOT
BRANCH   1  10
ATOM     10  N   UNL     1       9.006  -1.169  24.203  0.00  0.00    -0.274 N 
ATOM     11  C   UNL     1       9.505  -0.139  23.413  0.00  0.00    +0.331 A 
ATOM     12  O   UNL     1      10.190  -0.314  22.409  0.00  0.00    -0.246 OA
ATOM     13  N   UNL     1       9.173   1.126  23.819  0.00  0.00    -0.275 N 
ATOM     14  H   UNL     1       9.526   1.887  23.253  0.00  0.00    +0.173 HD
ATOM     15  C   UNL     1       8.360   1.455  24.861  0.00  0.00    +0.257 A 
ATOM     16  O   UNL     1       8.052   2.616  25.106  0.00  0.00    -0.267 OA
ATOM     17  C   UNL     1       7.847   0.318  25.661  0.00  0.00    +0.030 A 
ATOM     18  C   UNL     1       6.991   0.631  26.842  0.00  0.00    +0.051 C 
ATOM     19  C   UNL     1       8.190  -0.921  25.287  0.00  0.00    +0.101 A 
ENDBRANCH   1  10
BRANCH   6  20
ATOM     20  C   UNL     1       5.338  -3.780  26.452  0.00  0.00    +0.024 A 
ATOM     21  C   UNL     1       4.772  -2.585  25.957  0.00  0.00    +0.009 A 
ATOM     22  C   UNL     1       4.007  -1.749  26.774  0.00  0.00    +0.000 A 
ATOM     23  C   UNL     1       3.807  -2.080  28.110  0.00  0.00    +0.000 A 
ATOM     24  C   UNL     1       4.374  -3.242  28.627  0.00  0.00    +0.000 A 
ATOM     25  C   UNL     1       5.135  -4.083  27.810  0.00  0.00    +0.009 A 
ENDBRANCH   6  20
BRANCH   6  26
ATOM     26  P   UNL     1       5.147  -6.123  24.993  0.00  0.00    +0.391 P 
ATOM     27  O   UNL     1       4.282  -7.325  24.543  0.00  0.00    -0.253 OA
BRANCH  26  28
ATOM     28  O   UNL     1       3.762  -5.313  25.388  0.00  0.00    -0.320 OA
ATOM     29  H   UNL     1       3.052  -5.967  25.198  0.00  0.00    +0.220 HD
ENDBRANCH  26  28
BRANCH  26  30
ATOM     30  O   UNL     1       5.382  -6.822  26.488  0.00  0.00    -0.320 OA
ATOM     31  H   UNL     1       6.115  -6.430  27.010  0.00  0.00    +0.220 HD
ENDBRANCH  26  30
ENDBRANCH   6  26
TORSDOF 5
ENDMDL
