MODEL 1
REMARK VINA RESULT:      -6.7      0.000      0.000
REMARK  Name = 
REMARK  16 active torsions:
REMARK  status: ('A' for Active; 'I' for Inactive)
REMARK    1  A    between atoms: C_1  and  C_2
REMARK    2  A    between atoms: C_2  and  C_3
REMARK    3  A    between atoms: C_2  and  C_4
REMARK    4  A    between atoms: C_4  and  N_5
REMARK    5  A    between atoms: N_5  and  C_6
REMARK    6  A    between atoms: N_5  and  S_29
REMARK    7  A    between atoms: C_6  and  C_7
REMARK    8  A    between atoms: C_7  and  O_9
REMARK    9  A    between atoms: C_7  and  C_10
REMARK   10  A    between atoms: C_10  and  C_12
REMARK   11  A    between atoms: C_10  and  N_19
REMARK   12  A    between atoms: C_12  and  C_13
REMARK   13  A    between atoms: C_20  and  O_22
REMARK   14  A    between atoms: O_22  and  C_23
REMARK   15  A    between atoms: S_29  and  C_32
REMARK   16  A    between atoms: C_35  and  N_36
REMARK                            x       y       z     vdW  Elec       q    Type
REMARK                         _______ _______ _______ _____ _____    ______ ____
ROOT
ATOM      1  C   UNL     1       9.844   0.955  24.794  0.00  0.00    +0.151 C 
ENDROOT
BRANCH   1   2
ATOM      2  O   UNL     1      10.181  -0.297  25.400  0.00  0.00    -0.389 OA
ATOM      3  H   UNL     1      10.082  -0.182  26.361  0.00  0.00    +0.210 HD
ENDBRANCH   1   2
BRANCH   1   4
ATOM      4  C   UNL     1       8.407   1.363  25.213  0.00  0.00    +0.142 C 
BRANCH   4   5
ATOM      5  N   UNL     1       7.312   0.309  24.979  0.00  0.00    -0.174 NA
BRANCH   5   6
ATOM      6  S   UNL     1       6.562  -0.197  26.485  0.00  0.00    +0.061 S 
ATOM      7  O   UNL     1       5.133  -0.071  26.282  0.00  0.00    -0.153 OA
ATOM      8  O   UNL     1       7.225   0.445  27.592  0.00  0.00    -0.153 OA
BRANCH   6   9
ATOM      9  C   UNL     1       6.940  -1.930  26.623  0.00  0.00    +0.106 A 
ATOM     10  C   UNL     1       5.938  -2.839  26.967  0.00  0.00    +0.030 A 
ATOM     11  C   UNL     1       6.245  -4.199  27.055  0.00  0.00    +0.024 A 
ATOM     12  C   UNL     1       7.534  -4.662  26.766  0.00  0.00    +0.025 A 
ATOM     13  C   UNL     1       8.541  -3.729  26.500  0.00  0.00    +0.024 A 
ATOM     14  C   UNL     1       8.249  -2.363  26.407  0.00  0.00    +0.030 A 
BRANCH  12  15
ATOM     15  N   UNL     1       7.855  -6.009  26.971  0.00  0.00    -0.358 N 
ATOM     16  H   UNL     1       7.383  -6.647  26.339  0.00  0.00    +0.142 HD
ATOM     17  H   UNL     1       8.852  -6.189  27.027  0.00  0.00    +0.142 HD
ENDBRANCH  12  15
ENDBRANCH   6   9
ENDBRANCH   5   6
BRANCH   5  18
ATOM     18  C   UNL     1       6.268   0.808  24.001  0.00  0.00    +0.112 C 
BRANCH  18  20
ATOM     19  C   UNL     1       6.474   2.657  22.235  0.00  0.00    +0.008 C 
ATOM     20  C   UNL     1       6.288   2.320  23.716  0.00  0.00    -0.001 C 
ATOM     21  C   UNL     1       4.965   2.929  24.201  0.00  0.00    +0.008 C 
ENDBRANCH  18  20
ENDBRANCH   5  18
ENDBRANCH   4   5
ENDBRANCH   1   4
BRANCH   1  22
ATOM     22  C   UNL     1      10.045   0.905  23.240  0.00  0.00    +0.110 C 
BRANCH  22  23
ATOM     23  N   UNL     1       9.095  -0.021  22.613  0.00  0.00    -0.275 N 
ATOM     24  H   UNL     1       8.153   0.256  22.372  0.00  0.00    +0.152 HD
ATOM     25  C   UNL     1       9.460  -1.318  22.378  0.00  0.00    +0.401 C 
ATOM     26  O   UNL     1      10.586  -1.760  22.580  0.00  0.00    -0.226 OA
BRANCH  25  27
ATOM     27  O   UNL     1       8.430  -2.037  21.872  0.00  0.00    -0.445 OA
BRANCH  27  28
ATOM     28  C   UNL     1       7.588  -2.630  22.868  0.00  0.00    +0.206 C 
ATOM     29  C   UNL     1       7.782  -4.138  22.914  0.00  0.00    +0.204 C 
ATOM     30  O   UNL     1       6.532  -4.732  23.299  0.00  0.00    -0.376 OA
ATOM     31  C   UNL     1       5.541  -3.698  23.343  0.00  0.00    +0.163 C 
ATOM     32  C   UNL     1       6.103  -2.521  22.579  0.00  0.00    +0.075 C 
ENDBRANCH  27  28
ENDBRANCH  25  27
ENDBRANCH  22  23
BRANCH  22  33
ATOM     33  C   UNL     1      10.157   2.235  22.461  0.00  0.00    +0.060 C 
BRANCH  33  34
ATOM     34  C   UNL     1      10.485   3.537  23.157  0.00  0.00    -0.046 A 
ATOM     35  C   UNL     1       9.460   4.375  23.628  0.00  0.00    +0.004 A 
ATOM     36  C   UNL     1       9.743   5.663  24.097  0.00  0.00    +0.000 A 
ATOM     37  C   UNL     1      11.055   6.126  24.114  0.00  0.00    +0.000 A 
ATOM     38  C   UNL     1      12.085   5.297  23.680  0.00  0.00    +0.000 A 
ATOM     39  C   UNL     1      11.800   4.015  23.200  0.00  0.00    +0.004 A 
ENDBRANCH  33  34
ENDBRANCH  22  33
ENDBRANCH   1  22
TORSDOF 14
ENDMDL
MODEL 2
REMARK VINA RESULT:      -6.6      2.337      5.127
REMARK  Name = 
REMARK  16 active torsions:
REMARK  status: ('A' for Active; 'I' for Inactive)
REMARK    1  A    between atoms: C_1  and  C_2
REMARK    2  A    between atoms: C_2  and  C_3
REMARK    3  A    between atoms: C_2  and  C_4
REMARK    4  A    between atoms: C_4  and  N_5
REMARK    5  A    between atoms: N_5  and  C_6
REMARK    6  A    between atoms: N_5  and  S_29
REMARK    7  A    between atoms: C_6  and  C_7
REMARK    8  A    between atoms: C_7  and  O_9
REMARK    9  A    between atoms: C_7  and  C_10
REMARK   10  A    between atoms: C_10  and  C_12
REMARK   11  A    between atoms: C_10  and  N_19
REMARK   12  A    between atoms: C_12  and  C_13
REMARK   13  A    between atoms: C_20  and  O_22
REMARK   14  A    between atoms: O_22  and  C_23
REMARK   15  A    between atoms: S_29  and  C_32
REMARK   16  A    between atoms: C_35  and  N_36
REMARK                            x       y       z     vdW  Elec       q    Type
REMARK                         _______ _______ _______ _____ _____    ______ ____
ROOT
ATOM      1  C   UNL     1       8.450  -0.347  26.480  0.00  0.00    +0.151 C 
ENDROOT
BRANCH   1   2
ATOM      2  O   UNL     1       9.048  -0.459  27.775  0.00  0.00    -0.389 OA
ATOM      3  H   UNL     1       9.144  -1.409  27.961  0.00  0.00    +0.210 HD
ENDBRANCH   1   2
BRANCH   1   4
ATOM      4  C   UNL     1       6.910  -0.236  26.627  0.00  0.00    +0.142 C 
BRANCH   4   5
ATOM      5  N   UNL     1       6.306   1.153  26.357  0.00  0.00    -0.174 NA
BRANCH   5   6
ATOM      6  S   UNL     1       5.782   1.322  24.689  0.00  0.00    +0.061 S 
ATOM      7  O   UNL     1       4.373   1.659  24.745  0.00  0.00    -0.153 OA
ATOM      8  O   UNL     1       6.258   0.201  23.919  0.00  0.00    -0.153 OA
BRANCH   6   9
ATOM      9  C   UNL     1       6.656   2.746  24.079  0.00  0.00    +0.106 A 
ATOM     10  C   UNL     1       6.473   3.169  22.761  0.00  0.00    +0.030 A 
ATOM     11  C   UNL     1       7.153   4.299  22.301  0.00  0.00    +0.024 A 
ATOM     12  C   UNL     1       7.986   5.030  23.155  0.00  0.00    +0.025 A 
ATOM     13  C   UNL     1       8.218   4.547  24.447  0.00  0.00    +0.024 A 
ATOM     14  C   UNL     1       7.543   3.417  24.924  0.00  0.00    +0.030 A 
BRANCH  12  15
ATOM     15  N   UNL     1       8.749   6.089  22.650  0.00  0.00    -0.358 N 
ATOM     16  H   UNL     1       9.383   6.502  23.326  0.00  0.00    +0.142 HD
ATOM     17  H   UNL     1       9.208   5.881  21.769  0.00  0.00    +0.142 HD
ENDBRANCH  12  15
ENDBRANCH   6   9
ENDBRANCH   5   6
BRANCH   5  18
ATOM     18  C   UNL     1       5.167   1.452  27.311  0.00  0.00    +0.112 C 
BRANCH  18  20
ATOM     19  C   UNL     1       6.802   2.963  28.584  0.00  0.00    +0.008 C 
ATOM     20  C   UNL     1       5.347   2.698  28.196  0.00  0.00    -0.001 C 
ATOM     21  C   UNL     1       4.804   3.920  27.440  0.00  0.00    +0.008 C 
ENDBRANCH  18  20
ENDBRANCH   5  18
ENDBRANCH   4   5
ENDBRANCH   1   4
BRANCH   1  22
ATOM     22  C   UNL     1       8.899  -1.523  25.545  0.00  0.00    +0.110 C 
BRANCH  22  23
ATOM     23  N   UNL     1       7.742  -2.281  25.054  0.00  0.00    -0.275 N 
ATOM     24  H   UNL     1       6.977  -1.837  24.564  0.00  0.00    +0.152 HD
ATOM     25  C   UNL     1       7.654  -3.624  25.296  0.00  0.00    +0.401 C 
ATOM     26  O   UNL     1       8.536  -4.282  25.835  0.00  0.00    -0.226 OA
BRANCH  25  27
ATOM     27  O   UNL     1       6.483  -4.131  24.841  0.00  0.00    -0.445 OA
BRANCH  27  28
ATOM     28  C   UNL     1       6.422  -4.268  23.416  0.00  0.00    +0.206 C 
ATOM     29  C   UNL     1       5.032  -4.695  22.971  0.00  0.00    +0.204 C 
ATOM     30  O   UNL     1       5.174  -5.496  21.787  0.00  0.00    -0.376 OA
ATOM     31  C   UNL     1       6.572  -5.717  21.563  0.00  0.00    +0.163 C 
ATOM     32  C   UNL     1       7.280  -5.387  22.856  0.00  0.00    +0.075 C 
ENDBRANCH  27  28
ENDBRANCH  25  27
ENDBRANCH  22  23
BRANCH  22  33
ATOM     33  C   UNL     1       9.920  -1.232  24.421  0.00  0.00    +0.060 C 
BRANCH  33  34
ATOM     34  C   UNL     1       9.964   0.106  23.717  0.00  0.00    -0.046 A 
ATOM     35  C   UNL     1       9.409   0.258  22.434  0.00  0.00    +0.004 A 
ATOM     36  C   UNL     1       9.613   1.431  21.698  0.00  0.00    +0.000 A 
ATOM     37  C   UNL     1      10.363   2.471  22.237  0.00  0.00    +0.000 A 
ATOM     38  C   UNL     1      10.894   2.347  23.518  0.00  0.00    +0.000 A 
ATOM     39  C   UNL     1      10.700   1.171  24.248  0.00  0.00    +0.004 A 
ENDBRANCH  33  34
ENDBRANCH  22  33
ENDBRANCH   1  22
TORSDOF 14
ENDMDL
MODEL 3
REMARK VINA RESULT:      -6.6      2.261      3.454
REMARK  Name = 
REMARK  16 active torsions:
REMARK  status: ('A' for Active; 'I' for Inactive)
REMARK    1  A    between atoms: C_1  and  C_2
REMARK    2  A    between atoms: C_2  and  C_3
REMARK    3  A    between atoms: C_2  and  C_4
REMARK    4  A    between atoms: C_4  and  N_5
REMARK    5  A    between atoms: N_5  and  C_6
REMARK    6  A    between atoms: N_5  and  S_29
REMARK    7  A    between atoms: C_6  and  C_7
REMARK    8  A    between atoms: C_7  and  O_9
REMARK    9  A    between atoms: C_7  and  C_10
REMARK   10  A    between atoms: C_10  and  C_12
REMARK   11  A    between atoms: C_10  and  N_19
REMARK   12  A    between atoms: C_12  and  C_13
REMARK   13  A    between atoms: C_20  and  O_22
REMARK   14  A    between atoms: O_22  and  C_23
REMARK   15  A    between atoms: S_29  and  C_32
REMARK   16  A    between atoms: C_35  and  N_36
REMARK                            x       y       z     vdW  Elec       q    Type
REMARK                         _______ _______ _______ _____ _____    ______ ____
ROOT
ATOM      1  C   UNL     1       8.436  -0.864  26.405  0.00  0.00    +0.151 C 
ENDROOT
BRANCH   1   2
ATOM      2  O   UNL     1       9.314  -0.515  27.480  0.00  0.00    -0.389 OA
ATOM      3  H   UNL     1       9.870  -1.294  27.654  0.00  0.00    +0.210 HD
ENDBRANCH   1   2
BRANCH   1   4
ATOM      4  C   UNL     1       7.076  -1.342  26.981  0.00  0.00    +0.142 C 
BRANCH   4   5
ATOM      5  N   UNL     1       5.842  -1.073  26.103  0.00  0.00    -0.174 NA
BRANCH   5   6
ATOM      6  S   UNL     1       4.398  -1.825  26.762  0.00  0.00    +0.061 S 
ATOM      7  O   UNL     1       3.281  -1.038  26.280  0.00  0.00    -0.153 OA
ATOM      8  O   UNL     1       4.587  -2.081  28.168  0.00  0.00    -0.153 OA
BRANCH   6   9
ATOM      9  C   UNL     1       4.316  -3.420  25.978  0.00  0.00    +0.106 A 
ATOM     10  C   UNL     1       4.889  -4.534  26.594  0.00  0.00    +0.030 A 
ATOM     11  C   UNL     1       4.802  -5.783  25.974  0.00  0.00    +0.024 A 
ATOM     12  C   UNL     1       4.116  -5.935  24.764  0.00  0.00    +0.025 A 
ATOM     13  C   UNL     1       3.617  -4.796  24.125  0.00  0.00    +0.024 A 
ATOM     14  C   UNL     1       3.695  -3.538  24.733  0.00  0.00    +0.030 A 
BRANCH  12  15
ATOM     15  N   UNL     1       4.136  -7.166  24.099  0.00  0.00    -0.358 N 
ATOM     16  H   UNL     1       4.188  -7.090  23.088  0.00  0.00    +0.142 HD
ATOM     17  H   UNL     1       4.815  -7.823  24.471  0.00  0.00    +0.142 HD
ENDBRANCH  12  15
ENDBRANCH   6   9
ENDBRANCH   5   6
BRANCH   5  18
ATOM     18  C   UNL     1       5.627   0.412  25.896  0.00  0.00    +0.112 C 
BRANCH  18  20
ATOM     19  C   UNL     1       6.892   2.025  24.355  0.00  0.00    +0.008 C 
ATOM     20  C   UNL     1       5.836   0.924  24.461  0.00  0.00    -0.001 C 
ATOM     21  C   UNL     1       6.259  -0.257  23.574  0.00  0.00    +0.008 C 
ENDBRANCH  18  20
ENDBRANCH   5  18
ENDBRANCH   4   5
ENDBRANCH   1   4
BRANCH   1  22
ATOM     22  C   UNL     1       9.103  -1.907  25.444  0.00  0.00    +0.110 C 
BRANCH  22  23
ATOM     23  N   UNL     1       8.096  -2.786  24.836  0.00  0.00    -0.275 N 
ATOM     24  H   UNL     1       7.139  -2.491  24.697  0.00  0.00    +0.152 HD
ATOM     25  C   UNL     1       8.431  -4.063  24.481  0.00  0.00    +0.401 C 
ATOM     26  O   UNL     1       9.566  -4.520  24.554  0.00  0.00    -0.226 OA
BRANCH  25  27
ATOM     27  O   UNL     1       7.356  -4.743  24.015  0.00  0.00    -0.445 OA
BRANCH  27  28
ATOM     28  C   UNL     1       7.306  -4.847  22.586  0.00  0.00    +0.206 C 
ATOM     29  C   UNL     1       6.321  -3.844  22.005  0.00  0.00    +0.204 C 
ATOM     30  O   UNL     1       5.759  -4.418  20.814  0.00  0.00    -0.376 OA
ATOM     31  C   UNL     1       6.219  -5.771  20.710  0.00  0.00    +0.163 C 
ATOM     32  C   UNL     1       6.746  -6.159  22.073  0.00  0.00    +0.075 C 
ENDBRANCH  27  28
ENDBRANCH  25  27
ENDBRANCH  22  23
BRANCH  22  33
ATOM     33  C   UNL     1      10.138  -1.411  24.409  0.00  0.00    +0.060 C 
BRANCH  33  34
ATOM     34  C   UNL     1      10.024  -0.048  23.764  0.00  0.00    -0.046 A 
ATOM     35  C   UNL     1       9.558   0.083  22.444  0.00  0.00    +0.004 A 
ATOM     36  C   UNL     1       9.630   1.310  21.775  0.00  0.00    +0.000 A 
ATOM     37  C   UNL     1      10.157   2.426  22.419  0.00  0.00    +0.000 A 
ATOM     38  C   UNL     1      10.594   2.319  23.736  0.00  0.00    +0.000 A 
ATOM     39  C   UNL     1      10.533   1.091  24.399  0.00  0.00    +0.004 A 
ENDBRANCH  33  34
ENDBRANCH  22  33
ENDBRANCH   1  22
TORSDOF 14
ENDMDL
MODEL 4
REMARK VINA RESULT:      -6.5      2.461      5.520
REMARK  Name = 
REMARK  16 active torsions:
REMARK  status: ('A' for Active; 'I' for Inactive)
REMARK    1  A    between atoms: C_1  and  C_2
REMARK    2  A    between atoms: C_2  and  C_3
REMARK    3  A    between atoms: C_2  and  C_4
REMARK    4  A    between atoms: C_4  and  N_5
REMARK    5  A    between atoms: N_5  and  C_6
REMARK    6  A    between atoms: N_5  and  S_29
REMARK    7  A    between atoms: C_6  and  C_7
REMARK    8  A    between atoms: C_7  and  O_9
REMARK    9  A    between atoms: C_7  and  C_10
REMARK   10  A    between atoms: C_10  and  C_12
REMARK   11  A    between atoms: C_10  and  N_19
REMARK   12  A    between atoms: C_12  and  C_13
REMARK   13  A    between atoms: C_20  and  O_22
REMARK   14  A    between atoms: O_22  and  C_23
REMARK   15  A    between atoms: S_29  and  C_32
REMARK   16  A    between atoms: C_35  and  N_36
REMARK                            x       y       z     vdW  Elec       q    Type
REMARK                         _______ _______ _______ _____ _____    ______ ____
ROOT
ATOM      1  C   UNL     1       9.221  -1.711  22.885  0.00  0.00    +0.151 C 
ENDROOT
BRANCH   1   2
ATOM      2  O   UNL     1       8.331  -2.420  22.018  0.00  0.00    -0.389 OA
ATOM      3  H   UNL     1       8.712  -3.305  21.884  0.00  0.00    +0.210 HD
ENDBRANCH   1   2
BRANCH   1   4
ATOM      4  C   UNL     1       9.575  -2.601  24.106  0.00  0.00    +0.142 C 
BRANCH   4   5
ATOM      5  N   UNL     1       8.392  -3.031  24.990  0.00  0.00    -0.174 NA
BRANCH   5   6
ATOM      6  S   UNL     1       8.364  -4.769  25.240  0.00  0.00    +0.061 S 
ATOM      7  O   UNL     1       8.289  -4.967  26.674  0.00  0.00    -0.153 OA
ATOM      8  O   UNL     1       9.398  -5.386  24.448  0.00  0.00    -0.153 OA
BRANCH   6   9
ATOM      9  C   UNL     1       6.820  -5.306  24.537  0.00  0.00    +0.106 A 
ATOM     10  C   UNL     1       5.764  -5.680  25.370  0.00  0.00    +0.030 A 
ATOM     11  C   UNL     1       4.552  -6.083  24.805  0.00  0.00    +0.024 A 
ATOM     12  C   UNL     1       4.374  -6.080  23.417  0.00  0.00    +0.025 A 
ATOM     13  C   UNL     1       5.466  -5.777  22.598  0.00  0.00    +0.024 A 
ATOM     14  C   UNL     1       6.687  -5.370  23.149  0.00  0.00    +0.030 A 
BRANCH  12  15
ATOM     15  N   UNL     1       3.197  -6.594  22.862  0.00  0.00    -0.358 N 
ATOM     16  H   UNL     1       2.650  -7.162  23.502  0.00  0.00    +0.142 HD
ATOM     17  H   UNL     1       2.631  -5.901  22.383  0.00  0.00    +0.142 HD
ENDBRANCH  12  15
ENDBRANCH   6   9
ENDBRANCH   5   6
BRANCH   5  18
ATOM     18  C   UNL     1       8.403  -2.298  26.317  0.00  0.00    +0.112 C 
BRANCH  18  20
ATOM     19  C   UNL     1       7.257  -0.088  26.929  0.00  0.00    +0.008 C 
ATOM     20  C   UNL     1       7.092  -1.591  26.699  0.00  0.00    -0.001 C 
ATOM     21  C   UNL     1       6.067  -1.812  25.577  0.00  0.00    +0.008 C 
ENDBRANCH  18  20
ENDBRANCH   5  18
ENDBRANCH   4   5
ENDBRANCH   1   4
BRANCH   1  22
ATOM     22  C   UNL     1       8.630  -0.315  23.286  0.00  0.00    +0.110 C 
BRANCH  22  23
ATOM     23  N   UNL     1       9.640   0.743  23.160  0.00  0.00    -0.275 N 
ATOM     24  H   UNL     1       9.816   1.216  22.284  0.00  0.00    +0.152 HD
ATOM     25  C   UNL     1      10.408   1.085  24.238  0.00  0.00    +0.401 C 
ATOM     26  O   UNL     1      10.258   0.620  25.362  0.00  0.00    -0.226 OA
BRANCH  25  27
ATOM     27  O   UNL     1      11.334   2.017  23.908  0.00  0.00    -0.445 OA
BRANCH  27  28
ATOM     28  C   UNL     1      10.779   3.224  23.369  0.00  0.00    +0.206 C 
ATOM     29  C   UNL     1      11.834   4.317  23.290  0.00  0.00    +0.204 C 
ATOM     30  O   UNL     1      11.175   5.580  23.476  0.00  0.00    -0.376 OA
ATOM     31  C   UNL     1       9.807   5.324  23.819  0.00  0.00    +0.163 C 
ATOM     32  C   UNL     1       9.727   3.876  24.246  0.00  0.00    +0.075 C 
ENDBRANCH  27  28
ENDBRANCH  25  27
ENDBRANCH  22  23
BRANCH  22  33
ATOM     33  C   UNL     1       7.266   0.113  22.698  0.00  0.00    +0.060 C 
BRANCH  33  34
ATOM     34  C   UNL     1       6.734   1.518  22.871  0.00  0.00    -0.046 A 
ATOM     35  C   UNL     1       7.025   2.515  21.925  0.00  0.00    +0.004 A 
ATOM     36  C   UNL     1       6.704   3.855  22.171  0.00  0.00    +0.000 A 
ATOM     37  C   UNL     1       6.076   4.215  23.360  0.00  0.00    +0.000 A 
ATOM     38  C   UNL     1       5.754   3.234  24.293  0.00  0.00    +0.000 A 
ATOM     39  C   UNL     1       6.086   1.899  24.052  0.00  0.00    +0.004 A 
ENDBRANCH  33  34
ENDBRANCH  22  33
ENDBRANCH   1  22
TORSDOF 14
ENDMDL
MODEL 5
REMARK VINA RESULT:      -6.5      2.338      6.840
REMARK  Name = 
REMARK  16 active torsions:
REMARK  status: ('A' for Active; 'I' for Inactive)
REMARK    1  A    between atoms: C_1  and  C_2
REMARK    2  A    between atoms: C_2  and  C_3
REMARK    3  A    between atoms: C_2  and  C_4
REMARK    4  A    between atoms: C_4  and  N_5
REMARK    5  A    between atoms: N_5  and  C_6
REMARK    6  A    between atoms: N_5  and  S_29
REMARK    7  A    between atoms: C_6  and  C_7
REMARK    8  A    between atoms: C_7  and  O_9
REMARK    9  A    between atoms: C_7  and  C_10
REMARK   10  A    between atoms: C_10  and  C_12
REMARK   11  A    between atoms: C_10  and  N_19
REMARK   12  A    between atoms: C_12  and  C_13
REMARK   13  A    between atoms: C_20  and  O_22
REMARK   14  A    between atoms: O_22  and  C_23
REMARK   15  A    between atoms: S_29  and  C_32
REMARK   16  A    between atoms: C_35  and  N_36
REMARK                            x       y       z     vdW  Elec       q    Type
REMARK                         _______ _______ _______ _____ _____    ______ ____
ROOT
ATOM      1  C   UNL     1       9.140  -0.995  26.184  0.00  0.00    +0.151 C 
ENDROOT
BRANCH   1   2
ATOM      2  O   UNL     1       8.586  -0.550  27.427  0.00  0.00    -0.389 OA
ATOM      3  H   UNL     1       9.072  -1.011  28.133  0.00  0.00    +0.210 HD
ENDBRANCH   1   2
BRANCH   1   4
ATOM      4  C   UNL     1       8.986   0.122  25.118  0.00  0.00    +0.142 C 
BRANCH   4   5
ATOM      5  N   UNL     1       7.648   0.150  24.361  0.00  0.00    -0.174 NA
BRANCH   5   6
ATOM      6  S   UNL     1       6.571   1.389  24.986  0.00  0.00    +0.061 S 
ATOM      7  O   UNL     1       7.017   1.662  26.338  0.00  0.00    -0.153 OA
ATOM      8  O   UNL     1       5.205   1.028  24.703  0.00  0.00    -0.153 OA
BRANCH   6   9
ATOM      9  C   UNL     1       6.914   2.831  24.001  0.00  0.00    +0.106 A 
ATOM     10  C   UNL     1       7.995   3.655  24.319  0.00  0.00    +0.030 A 
ATOM     11  C   UNL     1       8.262   4.774  23.526  0.00  0.00    +0.024 A 
ATOM     12  C   UNL     1       7.482   5.055  22.399  0.00  0.00    +0.025 A 
ATOM     13  C   UNL     1       6.359   4.263  22.142  0.00  0.00    +0.024 A 
ATOM     14  C   UNL     1       6.078   3.138  22.926  0.00  0.00    +0.030 A 
BRANCH  12  15
ATOM     15  N   UNL     1       7.690   6.240  21.684  0.00  0.00    -0.358 N 
ATOM     16  H   UNL     1       8.439   6.819  22.049  0.00  0.00    +0.142 HD
ATOM     17  H   UNL     1       7.760   6.107  20.680  0.00  0.00    +0.142 HD
ENDBRANCH  12  15
ENDBRANCH   6   9
ENDBRANCH   5   6
BRANCH   5  18
ATOM     18  C   UNL     1       7.862   0.327  22.871  0.00  0.00    +0.112 C 
BRANCH  18  20
ATOM     19  C   UNL     1       9.617  -0.822  21.397  0.00  0.00    +0.008 C 
ATOM     20  C   UNL     1       9.326   0.296  22.399  0.00  0.00    -0.001 C 
ATOM     21  C   UNL     1       9.662   1.646  21.748  0.00  0.00    +0.008 C 
ENDBRANCH  18  20
ENDBRANCH   5  18
ENDBRANCH   4   5
ENDBRANCH   1   4
BRANCH   1  22
ATOM     22  C   UNL     1       8.516  -2.363  25.742  0.00  0.00    +0.110 C 
BRANCH  22  23
ATOM     23  N   UNL     1       7.068  -2.386  25.981  0.00  0.00    -0.275 N 
ATOM     24  H   UNL     1       6.444  -1.708  25.566  0.00  0.00    +0.152 HD
ATOM     25  C   UNL     1       6.531  -3.319  26.825  0.00  0.00    +0.401 C 
ATOM     26  O   UNL     1       7.175  -4.221  27.348  0.00  0.00    -0.226 OA
BRANCH  25  27
ATOM     27  O   UNL     1       5.199  -3.132  26.983  0.00  0.00    -0.445 OA
BRANCH  27  28
ATOM     28  C   UNL     1       4.456  -3.163  25.758  0.00  0.00    +0.206 C 
ATOM     29  C   UNL     1       2.971  -2.969  26.019  0.00  0.00    +0.204 C 
ATOM     30  O   UNL     1       2.247  -3.699  25.017  0.00  0.00    -0.376 OA
ATOM     31  C   UNL     1       3.190  -4.456  24.248  0.00  0.00    +0.163 C 
ATOM     32  C   UNL     1       4.470  -4.505  25.051  0.00  0.00    +0.075 C 
ENDBRANCH  27  28
ENDBRANCH  25  27
ENDBRANCH  22  23
BRANCH  22  33
ATOM     33  C   UNL     1       8.883  -2.935  24.353  0.00  0.00    +0.060 C 
BRANCH  33  34
ATOM     34  C   UNL     1       7.883  -3.712  23.527  0.00  0.00    -0.046 A 
ATOM     35  C   UNL     1       7.905  -5.118  23.512  0.00  0.00    +0.004 A 
ATOM     36  C   UNL     1       7.117  -5.839  22.608  0.00  0.00    +0.000 A 
ATOM     37  C   UNL     1       6.287  -5.167  21.716  0.00  0.00    +0.000 A 
ATOM     38  C   UNL     1       6.231  -3.777  21.740  0.00  0.00    +0.000 A 
ATOM     39  C   UNL     1       7.027  -3.057  22.634  0.00  0.00    +0.004 A 
ENDBRANCH  33  34
ENDBRANCH  22  33
ENDBRANCH   1  22
TORSDOF 14
ENDMDL
MODEL 6
REMARK VINA RESULT:      -6.5      2.265      4.513
REMARK  Name = 
REMARK  16 active torsions:
REMARK  status: ('A' for Active; 'I' for Inactive)
REMARK    1  A    between atoms: C_1  and  C_2
REMARK    2  A    between atoms: C_2  and  C_3
REMARK    3  A    between atoms: C_2  and  C_4
REMARK    4  A    between atoms: C_4  and  N_5
REMARK    5  A    between atoms: N_5  and  C_6
REMARK    6  A    between atoms: N_5  and  S_29
REMARK    7  A    between atoms: C_6  and  C_7
REMARK    8  A    between atoms: C_7  and  O_9
REMARK    9  A    between atoms: C_7  and  C_10
REMARK   10  A    between atoms: C_10  and  C_12
REMARK   11  A    between atoms: C_10  and  N_19
REMARK   12  A    between atoms: C_12  and  C_13
REMARK   13  A    between atoms: C_20  and  O_22
REMARK   14  A    between atoms: O_22  and  C_23
REMARK   15  A    between atoms: S_29  and  C_32
REMARK   16  A    between atoms: C_35  and  N_36
REMARK                            x       y       z     vdW  Elec       q    Type
REMARK                         _______ _______ _______ _____ _____    ______ ____
ROOT
ATOM      1  C   UNL     1       9.815   1.513  21.978  0.00  0.00    +0.151 C 
ENDROOT
BRANCH   1   2
ATOM      2  O   UNL     1       9.134   0.791  20.946  0.00  0.00    -0.389 OA
ATOM      3  H   UNL     1       9.314  -0.154  21.097  0.00  0.00    +0.210 HD
ENDBRANCH   1   2
BRANCH   1   4
ATOM      4  C   UNL     1      10.283   0.525  23.079  0.00  0.00    +0.142 C 
BRANCH   4   5
ATOM      5  N   UNL     1       9.203  -0.411  23.648  0.00  0.00    -0.174 NA
BRANCH   5   6
ATOM      6  S   UNL     1       9.243  -1.992  22.884  0.00  0.00    +0.061 S 
ATOM      7  O   UNL     1      10.633  -2.245  22.560  0.00  0.00    -0.153 OA
ATOM      8  O   UNL     1       8.211  -2.069  21.881  0.00  0.00    -0.153 OA
BRANCH   6   9
ATOM      9  C   UNL     1       8.770  -3.130  24.167  0.00  0.00    +0.106 A 
ATOM     10  C   UNL     1       7.437  -3.214  24.572  0.00  0.00    +0.030 A 
ATOM     11  C   UNL     1       7.077  -4.124  25.569  0.00  0.00    +0.024 A 
ATOM     12  C   UNL     1       8.030  -4.976  26.138  0.00  0.00    +0.025 A 
ATOM     13  C   UNL     1       9.372  -4.823  25.775  0.00  0.00    +0.024 A 
ATOM     14  C   UNL     1       9.749  -3.917  24.778  0.00  0.00    +0.030 A 
BRANCH  12  15
ATOM     15  N   UNL     1       7.679  -5.799  27.214  0.00  0.00    -0.358 N 
ATOM     16  H   UNL     1       8.398  -5.880  27.925  0.00  0.00    +0.142 HD
ATOM     17  H   UNL     1       6.767  -5.591  27.609  0.00  0.00    +0.142 HD
ENDBRANCH  12  15
ENDBRANCH   6   9
ENDBRANCH   5   6
BRANCH   5  18
ATOM     18  C   UNL     1       9.323  -0.538  25.153  0.00  0.00    +0.112 C 
BRANCH  18  20
ATOM     19  C   UNL     1       6.908   0.314  25.276  0.00  0.00    +0.008 C 
ATOM     20  C   UNL     1       8.265   0.219  25.974  0.00  0.00    -0.001 C 
ATOM     21  C   UNL     1       8.082  -0.497  27.320  0.00  0.00    +0.008 C 
ENDBRANCH  18  20
ENDBRANCH   5  18
ENDBRANCH   4   5
ENDBRANCH   1   4
BRANCH   1  22
ATOM     22  C   UNL     1       8.929   2.682  22.531  0.00  0.00    +0.110 C 
BRANCH  22  23
ATOM     23  N   UNL     1       7.502   2.348  22.453  0.00  0.00    -0.275 N 
ATOM     24  H   UNL     1       7.167   1.397  22.536  0.00  0.00    +0.152 HD
ATOM     25  C   UNL     1       6.583   3.332  22.217  0.00  0.00    +0.401 C 
ATOM     26  O   UNL     1       6.858   4.525  22.147  0.00  0.00    -0.226 OA
BRANCH  25  27
ATOM     27  O   UNL     1       5.334   2.822  22.098  0.00  0.00    -0.445 OA
BRANCH  27  28
ATOM     28  C   UNL     1       4.367   3.441  22.956  0.00  0.00    +0.206 C 
ATOM     29  C   UNL     1       4.251   2.689  24.272  0.00  0.00    +0.204 C 
ATOM     30  O   UNL     1       2.898   2.821  24.738  0.00  0.00    -0.376 OA
ATOM     31  C   UNL     1       2.136   3.476  23.716  0.00  0.00    +0.163 C 
ATOM     32  C   UNL     1       2.942   3.380  22.441  0.00  0.00    +0.075 C 
ENDBRANCH  27  28
ENDBRANCH  25  27
ENDBRANCH  22  23
BRANCH  22  33
ATOM     33  C   UNL     1       9.301   3.320  23.889  0.00  0.00    +0.060 C 
BRANCH  33  34
ATOM     34  C   UNL     1      10.238   4.504  23.979  0.00  0.00    -0.046 A 
ATOM     35  C   UNL     1      11.545   4.423  23.470  0.00  0.00    +0.004 A 
ATOM     36  C   UNL     1      12.477   5.436  23.718  0.00  0.00    +0.000 A 
ATOM     37  C   UNL     1      12.112   6.551  24.468  0.00  0.00    +0.000 A 
ATOM     38  C   UNL     1      10.812   6.661  24.952  0.00  0.00    +0.000 A 
ATOM     39  C   UNL     1       9.886   5.642  24.714  0.00  0.00    +0.004 A 
ENDBRANCH  33  34
ENDBRANCH  22  33
ENDBRANCH   1  22
TORSDOF 14
ENDMDL
MODEL 7
REMARK VINA RESULT:      -6.4      2.701      6.767
REMARK  Name = 
REMARK  16 active torsions:
REMARK  status: ('A' for Active; 'I' for Inactive)
REMARK    1  A    between atoms: C_1  and  C_2
REMARK    2  A    between atoms: C_2  and  C_3
REMARK    3  A    between atoms: C_2  and  C_4
REMARK    4  A    between atoms: C_4  and  N_5
REMARK    5  A    between atoms: N_5  and  C_6
REMARK    6  A    between atoms: N_5  and  S_29
REMARK    7  A    between atoms: C_6  and  C_7
REMARK    8  A    between atoms: C_7  and  O_9
REMARK    9  A    between atoms: C_7  and  C_10
REMARK   10  A    between atoms: C_10  and  C_12
REMARK   11  A    between atoms: C_10  and  N_19
REMARK   12  A    between atoms: C_12  and  C_13
REMARK   13  A    between atoms: C_20  and  O_22
REMARK   14  A    between atoms: O_22  and  C_23
REMARK   15  A    between atoms: S_29  and  C_32
REMARK   16  A    between atoms: C_35  and  N_36
REMARK                            x       y       z     vdW  Elec       q    Type
REMARK                         _______ _______ _______ _____ _____    ______ ____
ROOT
ATOM      1  C   UNL     1       9.068  -1.806  22.586  0.00  0.00    +0.151 C 
ENDROOT
BRANCH   1   2
ATOM      2  O   UNL     1      10.002  -1.511  21.542  0.00  0.00    -0.389 OA
ATOM      3  H   UNL     1      10.419  -0.661  21.768  0.00  0.00    +0.210 HD
ENDBRANCH   1   2
BRANCH   1   4
ATOM      4  C   UNL     1       7.904  -2.658  22.014  0.00  0.00    +0.142 C 
BRANCH   4   5
ATOM      5  N   UNL     1       7.214  -3.608  23.007  0.00  0.00    -0.174 NA
BRANCH   5   6
ATOM      6  S   UNL     1       6.423  -4.945  22.188  0.00  0.00    +0.061 S 
ATOM      7  O   UNL     1       7.368  -6.043  22.209  0.00  0.00    -0.153 OA
ATOM      8  O   UNL     1       5.840  -4.477  20.955  0.00  0.00    -0.153 OA
BRANCH   6   9
ATOM      9  C   UNL     1       5.059  -5.383  23.243  0.00  0.00    +0.106 A 
ATOM     10  C   UNL     1       4.016  -4.479  23.451  0.00  0.00    +0.030 A 
ATOM     11  C   UNL     1       2.943  -4.843  24.268  0.00  0.00    +0.024 A 
ATOM     12  C   UNL     1       2.886  -6.115  24.849  0.00  0.00    +0.025 A 
ATOM     13  C   UNL     1       3.976  -6.977  24.692  0.00  0.00    +0.024 A 
ATOM     14  C   UNL     1       5.057  -6.628  23.876  0.00  0.00    +0.030 A 
BRANCH  12  15
ATOM     15  N   UNL     1       1.866  -6.424  25.756  0.00  0.00    -0.358 N 
ATOM     16  H   UNL     1       2.037  -7.263  26.301  0.00  0.00    +0.142 HD
ATOM     17  H   UNL     1       1.579  -5.640  26.334  0.00  0.00    +0.142 HD
ENDBRANCH  12  15
ENDBRANCH   6   9
ENDBRANCH   5   6
BRANCH   5  18
ATOM     18  C   UNL     1       8.190  -4.118  24.048  0.00  0.00    +0.112 C 
BRANCH  18  20
ATOM     19  C   UNL     1       7.724  -5.408  26.215  0.00  0.00    +0.008 C 
ATOM     20  C   UNL     1       7.705  -4.052  25.507  0.00  0.00    -0.001 C 
ATOM     21  C   UNL     1       8.603  -3.075  26.280  0.00  0.00    +0.008 C 
ENDBRANCH  18  20
ENDBRANCH   5  18
ENDBRANCH   4   5
ENDBRANCH   1   4
BRANCH   1  22
ATOM     22  C   UNL     1       8.585  -0.498  23.301  0.00  0.00    +0.110 C 
BRANCH  22  23
ATOM     23  N   UNL     1       9.264   0.685  22.756  0.00  0.00    -0.275 N 
ATOM     24  H   UNL     1       9.286   0.882  21.765  0.00  0.00    +0.152 HD
ATOM     25  C   UNL     1       9.930   1.535  23.594  0.00  0.00    +0.401 C 
ATOM     26  O   UNL     1       9.934   1.431  24.815  0.00  0.00    -0.226 OA
BRANCH  25  27
ATOM     27  O   UNL     1      10.558   2.517  22.903  0.00  0.00    -0.445 OA
BRANCH  27  28
ATOM     28  C   UNL     1      10.931   3.646  23.703  0.00  0.00    +0.206 C 
ATOM     29  C   UNL     1       9.833   4.698  23.701  0.00  0.00    +0.204 C 
ATOM     30  O   UNL     1      10.456   5.986  23.829  0.00  0.00    -0.376 OA
ATOM     31  C   UNL     1      11.876   5.805  23.753  0.00  0.00    +0.163 C 
ATOM     32  C   UNL     1      12.110   4.433  23.164  0.00  0.00    +0.075 C 
ENDBRANCH  27  28
ENDBRANCH  25  27
ENDBRANCH  22  23
BRANCH  22  33
ATOM     33  C   UNL     1       7.068  -0.263  23.480  0.00  0.00    +0.060 C 
BRANCH  33  34
ATOM     34  C   UNL     1       6.388  -0.456  24.818  0.00  0.00    -0.046 A 
ATOM     35  C   UNL     1       6.875   0.190  25.967  0.00  0.00    +0.004 A 
ATOM     36  C   UNL     1       6.377  -0.128  27.236  0.00  0.00    +0.000 A 
ATOM     37  C   UNL     1       5.379  -1.089  27.372  0.00  0.00    +0.000 A 
ATOM     38  C   UNL     1       4.866  -1.715  26.240  0.00  0.00    +0.000 A 
ATOM     39  C   UNL     1       5.372  -1.405  24.975  0.00  0.00    +0.004 A 
ENDBRANCH  33  34
ENDBRANCH  22  33
ENDBRANCH   1  22
TORSDOF 14
ENDMDL
MODEL 8
REMARK VINA RESULT:      -6.4      2.200      6.152
REMARK  Name = 
REMARK  16 active torsions:
REMARK  status: ('A' for Active; 'I' for Inactive)
REMARK    1  A    between atoms: C_1  and  C_2
REMARK    2  A    between atoms: C_2  and  C_3
REMARK    3  A    between atoms: C_2  and  C_4
REMARK    4  A    between atoms: C_4  and  N_5
REMARK    5  A    between atoms: N_5  and  C_6
REMARK    6  A    between atoms: N_5  and  S_29
REMARK    7  A    between atoms: C_6  and  C_7
REMARK    8  A    between atoms: C_7  and  O_9
REMARK    9  A    between atoms: C_7  and  C_10
REMARK   10  A    between atoms: C_10  and  C_12
REMARK   11  A    between atoms: C_10  and  N_19
REMARK   12  A    between atoms: C_12  and  C_13
REMARK   13  A    between atoms: C_20  and  O_22
REMARK   14  A    between atoms: O_22  and  C_23
REMARK   15  A    between atoms: S_29  and  C_32
REMARK   16  A    between atoms: C_35  and  N_36
REMARK                            x       y       z     vdW  Elec       q    Type
REMARK                         _______ _______ _______ _____ _____    ______ ____
ROOT
ATOM      1  C   UNL     1       8.129  -1.160  26.925  0.00  0.00    +0.151 C 
ENDROOT
BRANCH   1   2
ATOM      2  O   UNL     1       9.255  -0.488  27.500  0.00  0.00    -0.389 OA
ATOM      3  H   UNL     1       9.846  -0.247  26.765  0.00  0.00    +0.210 HD
ENDBRANCH   1   2
BRANCH   1   4
ATOM      4  C   UNL     1       8.619  -2.164  25.849  0.00  0.00    +0.142 C 
BRANCH   4   5
ATOM      5  N   UNL     1       8.002  -2.005  24.449  0.00  0.00    -0.174 NA
BRANCH   5   6
ATOM      6  S   UNL     1       9.231  -1.977  23.194  0.00  0.00    +0.061 S 
ATOM      7  O   UNL     1       8.543  -2.271  21.953  0.00  0.00    -0.153 OA
ATOM      8  O   UNL     1      10.373  -2.745  23.621  0.00  0.00    -0.153 OA
BRANCH   6   9
ATOM      9  C   UNL     1       9.773  -0.284  23.126  0.00  0.00    +0.106 A 
ATOM     10  C   UNL     1       9.603   0.459  21.956  0.00  0.00    +0.030 A 
ATOM     11  C   UNL     1      10.019   1.792  21.922  0.00  0.00    +0.024 A 
ATOM     12  C   UNL     1      10.569   2.399  23.057  0.00  0.00    +0.025 A 
ATOM     13  C   UNL     1      10.802   1.618  24.193  0.00  0.00    +0.024 A 
ATOM     14  C   UNL     1      10.391   0.281  24.243  0.00  0.00    +0.030 A 
BRANCH  12  15
ATOM     15  N   UNL     1      11.085   3.697  22.974  0.00  0.00    -0.358 N 
ATOM     16  H   UNL     1      12.038   3.786  23.313  0.00  0.00    +0.142 HD
ATOM     17  H   UNL     1      10.957   4.134  22.066  0.00  0.00    +0.142 HD
ENDBRANCH  12  15
ENDBRANCH   6   9
ENDBRANCH   5   6
BRANCH   5  18
ATOM     18  C   UNL     1       6.978  -3.088  24.173  0.00  0.00    +0.112 C 
BRANCH  18  20
ATOM     19  C   UNL     1       6.524  -5.236  25.498  0.00  0.00    +0.008 C 
ATOM     20  C   UNL     1       7.425  -4.526  24.486  0.00  0.00    -0.001 C 
ATOM     21  C   UNL     1       7.438  -5.333  23.180  0.00  0.00    +0.008 C 
ENDBRANCH  18  20
ENDBRANCH   5  18
ENDBRANCH   4   5
ENDBRANCH   1   4
BRANCH   1  22
ATOM     22  C   UNL     1       7.075  -0.135  26.382  0.00  0.00    +0.110 C 
BRANCH  22  23
ATOM     23  N   UNL     1       5.825  -0.206  27.149  0.00  0.00    -0.275 N 
ATOM     24  H   UNL     1       5.766   0.102  28.110  0.00  0.00    +0.152 HD
ATOM     25  C   UNL     1       4.704  -0.742  26.578  0.00  0.00    +0.401 C 
ATOM     26  O   UNL     1       4.636  -1.103  25.408  0.00  0.00    -0.226 OA
BRANCH  25  27
ATOM     27  O   UNL     1       3.679  -0.796  27.461  0.00  0.00    -0.445 OA
BRANCH  27  28
ATOM     28  C   UNL     1       3.391  -2.115  27.940  0.00  0.00    +0.206 C 
ATOM     29  C   UNL     1       2.958  -2.079  29.398  0.00  0.00    +0.204 C 
ATOM     30  O   UNL     1       3.386  -3.304  30.015  0.00  0.00    -0.376 OA
ATOM     31  C   UNL     1       4.189  -4.023  29.071  0.00  0.00    +0.163 C 
ATOM     32  C   UNL     1       4.595  -3.036  28.001  0.00  0.00    +0.075 C 
ENDBRANCH  27  28
ENDBRANCH  25  27
ENDBRANCH  22  23
BRANCH  22  33
ATOM     33  C   UNL     1       7.517   1.324  26.128  0.00  0.00    +0.060 C 
BRANCH  33  34
ATOM     34  C   UNL     1       7.119   2.065  24.871  0.00  0.00    -0.046 A 
ATOM     35  C   UNL     1       6.530   1.382  23.793  0.00  0.00    +0.004 A 
ATOM     36  C   UNL     1       6.337   2.016  22.560  0.00  0.00    +0.000 A 
ATOM     37  C   UNL     1       6.718   3.344  22.391  0.00  0.00    +0.000 A 
ATOM     38  C   UNL     1       7.274   4.043  23.458  0.00  0.00    +0.000 A 
ATOM     39  C   UNL     1       7.478   3.406  24.685  0.00  0.00    +0.004 A 
ENDBRANCH  33  34
ENDBRANCH  22  33
ENDBRANCH   1  22
TORSDOF 14
ENDMDL
MODEL 9
REMARK VINA RESULT:      -6.4      2.227      7.812
REMARK  Name = 
REMARK  16 active torsions:
REMARK  status: ('A' for Active; 'I' for Inactive)
REMARK    1  A    between atoms: C_1  and  C_2
REMARK    2  A    between atoms: C_2  and  C_3
REMARK    3  A    between atoms: C_2  and  C_4
REMARK    4  A    between atoms: C_4  and  N_5
REMARK    5  A    between atoms: N_5  and  C_6
REMARK    6  A    between atoms: N_5  and  S_29
REMARK    7  A    between atoms: C_6  and  C_7
REMARK    8  A    between atoms: C_7  and  O_9
REMARK    9  A    between atoms: C_7  and  C_10
REMARK   10  A    between atoms: C_10  and  C_12
REMARK   11  A    between atoms: C_10  and  N_19
REMARK   12  A    between atoms: C_12  and  C_13
REMARK   13  A    between atoms: C_20  and  O_22
REMARK   14  A    between atoms: O_22  and  C_23
REMARK   15  A    between atoms: S_29  and  C_32
REMARK   16  A    between atoms: C_35  and  N_36
REMARK                            x       y       z     vdW  Elec       q    Type
REMARK                         _______ _______ _______ _____ _____    ______ ____
ROOT
ATOM      1  C   UNL     1       8.051  -3.204  26.242  0.00  0.00    +0.151 C 
ENDROOT
BRANCH   1   2
ATOM      2  O   UNL     1       8.970  -2.125  26.444  0.00  0.00    -0.389 OA
ATOM      3  H   UNL     1       9.788  -2.514  26.801  0.00  0.00    +0.210 HD
ENDBRANCH   1   2
BRANCH   1   4
ATOM      4  C   UNL     1       8.008  -3.573  24.736  0.00  0.00    +0.142 C 
BRANCH   4   5
ATOM      5  N   UNL     1       7.900  -2.392  23.756  0.00  0.00    -0.174 NA
BRANCH   5   6
ATOM      6  S   UNL     1       9.426  -2.075  22.947  0.00  0.00    +0.061 S 
ATOM      7  O   UNL     1       9.210  -2.387  21.548  0.00  0.00    -0.153 OA
ATOM      8  O   UNL     1      10.501  -2.675  23.695  0.00  0.00    -0.153 OA
BRANCH   6   9
ATOM      9  C   UNL     1       9.655  -0.315  23.081  0.00  0.00    +0.106 A 
ATOM     10  C   UNL     1       9.698   0.292  24.337  0.00  0.00    +0.030 A 
ATOM     11  C   UNL     1       9.896   1.672  24.427  0.00  0.00    +0.024 A 
ATOM     12  C   UNL     1      10.086   2.444  23.276  0.00  0.00    +0.025 A 
ATOM     13  C   UNL     1       9.962   1.831  22.025  0.00  0.00    +0.024 A 
ATOM     14  C   UNL     1       9.765   0.450  21.918  0.00  0.00    +0.030 A 
BRANCH  12  15
ATOM     15  N   UNL     1      10.167   3.838  23.374  0.00  0.00    -0.358 N 
ATOM     16  H   UNL     1       9.268   4.308  23.340  0.00  0.00    +0.142 HD
ATOM     17  H   UNL     1      10.742   4.163  24.144  0.00  0.00    +0.142 HD
ENDBRANCH  12  15
ENDBRANCH   6   9
ENDBRANCH   5   6
BRANCH   5  18
ATOM     18  C   UNL     1       6.793  -2.616  22.746  0.00  0.00    +0.112 C 
BRANCH  18  20
ATOM     19  C   UNL     1       4.552  -3.832  23.023  0.00  0.00    +0.008 C 
ATOM     20  C   UNL     1       6.065  -3.968  22.840  0.00  0.00    -0.001 C 
ATOM     21  C   UNL     1       6.341  -4.766  21.558  0.00  0.00    +0.008 C 
ENDBRANCH  18  20
ENDBRANCH   5  18
ENDBRANCH   4   5
ENDBRANCH   1   4
BRANCH   1  22
ATOM     22  C   UNL     1       6.641  -2.867  26.838  0.00  0.00    +0.110 C 
BRANCH  22  23
ATOM     23  N   UNL     1       5.871  -2.013  25.926  0.00  0.00    -0.275 N 
ATOM     24  H   UNL     1       5.272  -2.396  25.208  0.00  0.00    +0.152 HD
ATOM     25  C   UNL     1       5.989  -0.653  26.003  0.00  0.00    +0.401 C 
ATOM     26  O   UNL     1       6.644  -0.069  26.859  0.00  0.00    -0.226 OA
BRANCH  25  27
ATOM     27  O   UNL     1       5.270  -0.040  25.033  0.00  0.00    -0.445 OA
BRANCH  27  28
ATOM     28  C   UNL     1       5.846   1.187  24.566  0.00  0.00    +0.206 C 
ATOM     29  C   UNL     1       4.804   2.292  24.519  0.00  0.00    +0.204 C 
ATOM     30  O   UNL     1       5.148   3.179  23.443  0.00  0.00    -0.376 OA
ATOM     31  C   UNL     1       6.249   2.605  22.727  0.00  0.00    +0.163 C 
ATOM     32  C   UNL     1       6.317   1.149  23.124  0.00  0.00    +0.075 C 
ENDBRANCH  27  28
ENDBRANCH  25  27
ENDBRANCH  22  23
BRANCH  22  33
ATOM     33  C   UNL     1       5.784  -4.015  27.418  0.00  0.00    +0.060 C 
BRANCH  33  34
ATOM     34  C   UNL     1       4.907  -4.874  26.534  0.00  0.00    -0.046 A 
ATOM     35  C   UNL     1       3.521  -4.654  26.471  0.00  0.00    +0.004 A 
ATOM     36  C   UNL     1       2.679  -5.558  25.812  0.00  0.00    +0.000 A 
ATOM     37  C   UNL     1       3.212  -6.687  25.198  0.00  0.00    +0.000 A 
ATOM     38  C   UNL     1       4.587  -6.902  25.225  0.00  0.00    +0.000 A 
ATOM     39  C   UNL     1       5.425  -6.006  25.894  0.00  0.00    +0.004 A 
ENDBRANCH  33  34
ENDBRANCH  22  33
ENDBRANCH   1  22
TORSDOF 14
ENDMDL
