MODEL 1
REMARK VINA RESULT:      -3.3      0.000      0.000
REMARK  Name = 
REMARK  5 active torsions:
REMARK  status: ('A' for Active; 'I' for Inactive)
REMARK    1  A    between atoms: N_1  and  CA_2
REMARK    2  A    between atoms: CA_2  and  C_4
REMARK    3  A    between atoms: CA_2  and  C_9
REMARK    4  A    between atoms: C_4  and  N_5
REMARK    5  A    between atoms: C_9  and  O_10
REMARK                            x       y       z     vdW  Elec       q    Type
REMARK                         _______ _______ _______ _____ _____    ______ ____
ROOT
ATOM      1  CA  UNL     1       7.779  -5.084  26.146  0.00  0.00    +0.206 C 
ENDROOT
BRANCH   1   2
ATOM      2  N   UNL     1       7.992  -5.852  27.393  0.00  0.00    -0.314 NA
ATOM      3  H1  UNL     1       8.451  -6.751  27.210  0.00  0.00    +0.119 HD
ATOM      4  H2  UNL     1       8.623  -5.351  28.028  0.00  0.00    +0.119 HD
ENDBRANCH   1   2
BRANCH   1   5
ATOM      5  C   UNL     1       8.950  -5.350  25.203  0.00  0.00    +0.327 C 
ATOM      6  OXT UNL     1       8.811  -5.397  23.986  0.00  0.00    -0.249 OA
BRANCH   5   7
ATOM      7  O   UNL     1      10.114  -5.561  25.847  0.00  0.00    -0.479 OA
ATOM      8  H   UNL     1      10.618  -4.712  25.899  0.00  0.00    +0.295 HD
ENDBRANCH   5   7
ENDBRANCH   1   5
BRANCH   1   9
ATOM      9  C   UNL     1       7.641  -3.553  26.329  0.00  0.00    +0.158 C 
BRANCH   9  10
ATOM     10  N   UNL     1       8.708  -2.802  25.607  0.00  0.00    +0.220 N 
ATOM     11  H   UNL     1       8.513  -1.795  25.549  0.00  0.00    +0.199 HD
ATOM     12  H   UNL     1       8.886  -3.149  24.656  0.00  0.00    +0.199 HD
ATOM     13  H   UNL     1       9.608  -2.905  26.126  0.00  0.00    +0.199 HD
ENDBRANCH   9  10
ENDBRANCH   1   9
TORSDOF 5
ENDMDL
MODEL 2
REMARK VINA RESULT:      -3.2      2.342      2.697
REMARK  Name = 
REMARK  5 active torsions:
REMARK  status: ('A' for Active; 'I' for Inactive)
REMARK    1  A    between atoms: N_1  and  CA_2
REMARK    2  A    between atoms: CA_2  and  C_4
REMARK    3  A    between atoms: CA_2  and  C_9
REMARK    4  A    between atoms: C_4  and  N_5
REMARK    5  A    between atoms: C_9  and  O_10
REMARK                            x       y       z     vdW  Elec       q    Type
REMARK                         _______ _______ _______ _____ _____    ______ ____
ROOT
ATOM      1  CA  UNL     1       9.102  -4.663  25.291  0.00  0.00    +0.206 C 
ENDROOT
BRANCH   1   2
ATOM      2  N   UNL     1      10.262  -5.575  25.405  0.00  0.00    -0.314 NA
ATOM      3  H1  UNL     1      10.500  -6.001  24.503  0.00  0.00    +0.119 HD
ATOM      4  H2  UNL     1      11.104  -5.063  25.692  0.00  0.00    +0.119 HD
ENDBRANCH   1   2
BRANCH   1   5
ATOM      5  C   UNL     1       8.256  -4.789  26.555  0.00  0.00    +0.327 C 
ATOM      6  OXT UNL     1       7.735  -3.816  27.092  0.00  0.00    -0.249 OA
BRANCH   5   7
ATOM      7  O   UNL     1       8.183  -6.049  27.024  0.00  0.00    -0.479 OA
ATOM      8  H   UNL     1       7.395  -6.134  27.614  0.00  0.00    +0.295 HD
ENDBRANCH   5   7
ENDBRANCH   1   5
BRANCH   1   9
ATOM      9  C   UNL     1       8.186  -4.909  24.067  0.00  0.00    +0.158 C 
BRANCH   9  10
ATOM     10  N   UNL     1       6.768  -5.143  24.465  0.00  0.00    +0.220 N 
ATOM     11  H   UNL     1       6.115  -4.506  23.993  0.00  0.00    +0.199 HD
ATOM     12  H   UNL     1       6.606  -5.074  25.478  0.00  0.00    +0.199 HD
ATOM     13  H   UNL     1       6.494  -6.113  24.193  0.00  0.00    +0.199 HD
ENDBRANCH   9  10
ENDBRANCH   1   9
TORSDOF 5
ENDMDL
MODEL 3
REMARK VINA RESULT:      -3.1      5.707      6.550
REMARK  Name = 
REMARK  5 active torsions:
REMARK  status: ('A' for Active; 'I' for Inactive)
REMARK    1  A    between atoms: N_1  and  CA_2
REMARK    2  A    between atoms: CA_2  and  C_4
REMARK    3  A    between atoms: CA_2  and  C_9
REMARK    4  A    between atoms: C_4  and  N_5
REMARK    5  A    between atoms: C_9  and  O_10
REMARK                            x       y       z     vdW  Elec       q    Type
REMARK                         _______ _______ _______ _____ _____    ______ ____
ROOT
ATOM      1  CA  UNL     1      10.028   0.882  22.043  0.00  0.00    +0.206 C 
ENDROOT
BRANCH   1   2
ATOM      2  N   UNL     1       9.174   1.872  21.350  0.00  0.00    -0.314 NA
ATOM      3  H1  UNL     1       9.670   2.323  20.574  0.00  0.00    +0.119 HD
ATOM      4  H2  UNL     1       8.359   1.418  20.923  0.00  0.00    +0.119 HD
ENDBRANCH   1   2
BRANCH   1   5
ATOM      5  C   UNL     1       9.364  -0.490  21.940  0.00  0.00    +0.327 C 
ATOM      6  OXT UNL     1       8.207  -0.684  22.298  0.00  0.00    -0.249 OA
BRANCH   5   7
ATOM      7  O   UNL     1      10.185  -1.444  21.463  0.00  0.00    -0.479 OA
ATOM      8  H   UNL     1      11.023  -1.026  21.145  0.00  0.00    +0.295 HD
ENDBRANCH   5   7
ENDBRANCH   1   5
BRANCH   1   9
ATOM      9  C   UNL     1      10.303   1.176  23.537  0.00  0.00    +0.158 C 
BRANCH   9  10
ATOM     10  N   UNL     1      10.422  -0.072  24.344  0.00  0.00    +0.220 N 
ATOM     11  H   UNL     1      10.397   0.107  25.356  0.00  0.00    +0.199 HD
ATOM     12  H   UNL     1      11.268  -0.619  24.136  0.00  0.00    +0.199 HD
ATOM     13  H   UNL     1       9.614  -0.696  24.128  0.00  0.00    +0.199 HD
ENDBRANCH   9  10
ENDBRANCH   1   9
TORSDOF 5
ENDMDL
MODEL 4
REMARK VINA RESULT:      -3.1      5.202      6.048
REMARK  Name = 
REMARK  5 active torsions:
REMARK  status: ('A' for Active; 'I' for Inactive)
REMARK    1  A    between atoms: N_1  and  CA_2
REMARK    2  A    between atoms: CA_2  and  C_4
REMARK    3  A    between atoms: CA_2  and  C_9
REMARK    4  A    between atoms: C_4  and  N_5
REMARK    5  A    between atoms: C_9  and  O_10
REMARK                            x       y       z     vdW  Elec       q    Type
REMARK                         _______ _______ _______ _____ _____    ______ ____
ROOT
ATOM      1  CA  UNL     1       9.715   0.054  23.053  0.00  0.00    +0.206 C 
ENDROOT
BRANCH   1   2
ATOM      2  N   UNL     1      10.781   0.595  23.926  0.00  0.00    -0.314 NA
ATOM      3  H1  UNL     1      11.640   0.786  23.399  0.00  0.00    +0.119 HD
ATOM      4  H2  UNL     1      10.503   1.497  24.327  0.00  0.00    +0.119 HD
ENDBRANCH   1   2
BRANCH   1   5
ATOM      5  C   UNL     1      10.036  -1.406  22.739  0.00  0.00    +0.327 C 
ATOM      6  OXT UNL     1      10.139  -2.255  23.618  0.00  0.00    -0.249 OA
BRANCH   5   7
ATOM      7  O   UNL     1      10.227  -1.638  21.427  0.00  0.00    -0.479 OA
ATOM      8  H   UNL     1      11.103  -2.076  21.295  0.00  0.00    +0.295 HD
ENDBRANCH   5   7
ENDBRANCH   1   5
BRANCH   1   9
ATOM      9  C   UNL     1       9.512   0.805  21.715  0.00  0.00    +0.158 C 
BRANCH   9  10
ATOM     10  N   UNL     1      10.123   2.165  21.736  0.00  0.00    +0.220 N 
ATOM     11  H   UNL     1      11.093   2.169  21.394  0.00  0.00    +0.199 HD
ATOM     12  H   UNL     1      10.109   2.611  22.662  0.00  0.00    +0.199 HD
ATOM     13  H   UNL     1       9.579   2.793  21.104  0.00  0.00    +0.199 HD
ENDBRANCH   9  10
ENDBRANCH   1   9
TORSDOF 5
ENDMDL
MODEL 5
REMARK VINA RESULT:      -3.1      5.676      6.307
REMARK  Name = 
REMARK  5 active torsions:
REMARK  status: ('A' for Active; 'I' for Inactive)
REMARK    1  A    between atoms: N_1  and  CA_2
REMARK    2  A    between atoms: CA_2  and  C_4
REMARK    3  A    between atoms: CA_2  and  C_9
REMARK    4  A    between atoms: C_4  and  N_5
REMARK    5  A    between atoms: C_9  and  O_10
REMARK                            x       y       z     vdW  Elec       q    Type
REMARK                         _______ _______ _______ _____ _____    ______ ____
ROOT
ATOM      1  CA  UNL     1      10.243  -0.245  22.120  0.00  0.00    +0.206 C 
ENDROOT
BRANCH   1   2
ATOM      2  N   UNL     1       9.905  -1.584  21.589  0.00  0.00    -0.314 NA
ATOM      3  H1  UNL     1       9.466  -2.175  22.303  0.00  0.00    +0.119 HD
ATOM      4  H2  UNL     1       9.215  -1.514  20.833  0.00  0.00    +0.119 HD
ENDBRANCH   1   2
BRANCH   1   5
ATOM      5  C   UNL     1      10.285  -0.322  23.645  0.00  0.00    +0.327 C 
ATOM      6  OXT UNL     1       9.901  -1.311  24.260  0.00  0.00    -0.249 OA
BRANCH   5   7
ATOM      7  O   UNL     1      10.741   0.806  24.222  0.00  0.00    -0.479 OA
ATOM      8  H   UNL     1       9.989   1.432  24.358  0.00  0.00    +0.295 HD
ENDBRANCH   5   7
ENDBRANCH   1   5
BRANCH   1   9
ATOM      9  C   UNL     1       9.270   0.890  21.719  0.00  0.00    +0.158 C 
BRANCH   9  10
ATOM     10  N   UNL     1       9.955   2.212  21.631  0.00  0.00    +0.220 N 
ATOM     11  H   UNL     1      10.535   2.413  22.455  0.00  0.00    +0.199 HD
ATOM     12  H   UNL     1       9.311   3.003  21.493  0.00  0.00    +0.199 HD
ATOM     13  H   UNL     1      10.593   2.211  20.805  0.00  0.00    +0.199 HD
ENDBRANCH   9  10
ENDBRANCH   1   9
TORSDOF 5
ENDMDL
MODEL 6
REMARK VINA RESULT:      -3.1      6.310      6.951
REMARK  Name = 
REMARK  5 active torsions:
REMARK  status: ('A' for Active; 'I' for Inactive)
REMARK    1  A    between atoms: N_1  and  CA_2
REMARK    2  A    between atoms: CA_2  and  C_4
REMARK    3  A    between atoms: CA_2  and  C_9
REMARK    4  A    between atoms: C_4  and  N_5
REMARK    5  A    between atoms: C_9  and  O_10
REMARK                            x       y       z     vdW  Elec       q    Type
REMARK                         _______ _______ _______ _____ _____    ______ ____
ROOT
ATOM      1  CA  UNL     1      10.446   0.698  23.448  0.00  0.00    +0.206 C 
ENDROOT
BRANCH   1   2
ATOM      2  N   UNL     1      10.114   0.952  24.868  0.00  0.00    -0.314 NA
ATOM      3  H1  UNL     1       9.227   1.457  24.965  0.00  0.00    +0.119 HD
ATOM      4  H2  UNL     1       9.980   0.070  25.376  0.00  0.00    +0.119 HD
ENDBRANCH   1   2
BRANCH   1   5
ATOM      5  C   UNL     1       9.563   1.587  22.575  0.00  0.00    +0.327 C 
ATOM      6  OXT UNL     1       8.348   1.657  22.733  0.00  0.00    -0.249 OA
BRANCH   5   7
ATOM      7  O   UNL     1      10.246   2.236  21.613  0.00  0.00    -0.479 OA
ATOM      8  H   UNL     1      10.007   1.860  20.731  0.00  0.00    +0.295 HD
ENDBRANCH   5   7
ENDBRANCH   1   5
BRANCH   1   9
ATOM      9  C   UNL     1      10.272  -0.767  22.980  0.00  0.00    +0.158 C 
BRANCH   9  10
ATOM     10  N   UNL     1       9.874  -0.856  21.546  0.00  0.00    +0.220 N 
ATOM     11  H   UNL     1       8.985  -1.353  21.412  0.00  0.00    +0.199 HD
ATOM     12  H   UNL     1      10.583  -1.300  20.947  0.00  0.00    +0.199 HD
ATOM     13  H   UNL     1       9.740   0.108  21.169  0.00  0.00    +0.199 HD
ENDBRANCH   9  10
ENDBRANCH   1   9
TORSDOF 5
ENDMDL
MODEL 7
REMARK VINA RESULT:      -3.1      2.028      2.693
REMARK  Name = 
REMARK  5 active torsions:
REMARK  status: ('A' for Active; 'I' for Inactive)
REMARK    1  A    between atoms: N_1  and  CA_2
REMARK    2  A    between atoms: CA_2  and  C_4
REMARK    3  A    between atoms: CA_2  and  C_9
REMARK    4  A    between atoms: C_4  and  N_5
REMARK    5  A    between atoms: C_9  and  O_10
REMARK                            x       y       z     vdW  Elec       q    Type
REMARK                         _______ _______ _______ _____ _____    ______ ____
ROOT
ATOM      1  CA  UNL     1       9.038  -4.888  25.181  0.00  0.00    +0.206 C 
ENDROOT
BRANCH   1   2
ATOM      2  N   UNL     1      10.379  -5.476  25.399  0.00  0.00    -0.314 NA
ATOM      3  H1  UNL     1      10.990  -4.840  25.924  0.00  0.00    +0.119 HD
ATOM      4  H2  UNL     1      10.318  -6.326  25.971  0.00  0.00    +0.119 HD
ENDBRANCH   1   2
BRANCH   1   5
ATOM      5  C   UNL     1       9.201  -3.556  24.453  0.00  0.00    +0.327 C 
ATOM      6  OXT UNL     1      10.249  -3.240  23.897  0.00  0.00    -0.249 OA
BRANCH   5   7
ATOM      7  O   UNL     1       8.109  -2.773  24.524  0.00  0.00    -0.479 OA
ATOM      8  H   UNL     1       8.038  -2.234  23.698  0.00  0.00    +0.295 HD
ENDBRANCH   5   7
ENDBRANCH   1   5
BRANCH   1   9
ATOM      9  C   UNL     1       8.209  -4.640  26.465  0.00  0.00    +0.158 C 
BRANCH   9  10
ATOM     10  N   UNL     1       7.968  -5.897  27.230  0.00  0.00    +0.220 N 
ATOM     11  H   UNL     1       7.183  -6.444  26.855  0.00  0.00    +0.199 HD
ATOM     12  H   UNL     1       7.801  -5.745  28.234  0.00  0.00    +0.199 HD
ATOM     13  H   UNL     1       8.815  -6.503  27.166  0.00  0.00    +0.199 HD
ENDBRANCH   9  10
ENDBRANCH   1   9
TORSDOF 5
ENDMDL
MODEL 8
REMARK VINA RESULT:      -3.0      3.892      4.812
REMARK  Name = 
REMARK  5 active torsions:
REMARK  status: ('A' for Active; 'I' for Inactive)
REMARK    1  A    between atoms: N_1  and  CA_2
REMARK    2  A    between atoms: CA_2  and  C_4
REMARK    3  A    between atoms: CA_2  and  C_9
REMARK    4  A    between atoms: C_4  and  N_5
REMARK    5  A    between atoms: C_9  and  O_10
REMARK                            x       y       z     vdW  Elec       q    Type
REMARK                         _______ _______ _______ _____ _____    ______ ____
ROOT
ATOM      1  CA  UNL     1      10.408  -1.493  22.808  0.00  0.00    +0.206 C 
ENDROOT
BRANCH   1   2
ATOM      2  N   UNL     1       9.950  -1.453  21.401  0.00  0.00    -0.314 NA
ATOM      3  H1  UNL     1       8.934  -1.326  21.337  0.00  0.00    +0.119 HD
ATOM      4  H2  UNL     1      10.355  -0.649  20.907  0.00  0.00    +0.119 HD
ENDBRANCH   1   2
BRANCH   1   5
ATOM      5  C   UNL     1       9.537  -2.486  23.575  0.00  0.00    +0.327 C 
ATOM      6  OXT UNL     1      10.017  -3.423  24.205  0.00  0.00    -0.249 OA
BRANCH   5   7
ATOM      7  O   UNL     1       8.219  -2.245  23.451  0.00  0.00    -0.479 OA
ATOM      8  H   UNL     1       8.070  -1.617  22.702  0.00  0.00    +0.295 HD
ENDBRANCH   5   7
ENDBRANCH   1   5
BRANCH   1   9
ATOM      9  C   UNL     1      10.369  -0.137  23.554  0.00  0.00    +0.158 C 
BRANCH   9  10
ATOM     10  N   UNL     1       9.975  -0.293  24.983  0.00  0.00    +0.220 N 
ATOM     11  H   UNL     1      10.783  -0.308  25.618  0.00  0.00    +0.199 HD
ATOM     12  H   UNL     1       9.408  -1.132  25.167  0.00  0.00    +0.199 HD
ATOM     13  H   UNL     1       9.386   0.521  25.265  0.00  0.00    +0.199 HD
ENDBRANCH   9  10
ENDBRANCH   1   9
TORSDOF 5
ENDMDL
MODEL 9
REMARK VINA RESULT:      -2.9      2.198      2.820
REMARK  Name = 
REMARK  5 active torsions:
REMARK  status: ('A' for Active; 'I' for Inactive)
REMARK    1  A    between atoms: N_1  and  CA_2
REMARK    2  A    between atoms: CA_2  and  C_4
REMARK    3  A    between atoms: CA_2  and  C_9
REMARK    4  A    between atoms: C_4  and  N_5
REMARK    5  A    between atoms: C_9  and  O_10
REMARK                            x       y       z     vdW  Elec       q    Type
REMARK                         _______ _______ _______ _____ _____    ______ ____
ROOT
ATOM      1  CA  UNL     1       8.618  -3.880  24.567  0.00  0.00    +0.206 C 
ENDROOT
BRANCH   1   2
ATOM      2  N   UNL     1       9.920  -3.302  24.165  0.00  0.00    -0.314 NA
ATOM      3  H1  UNL     1       9.940  -2.285  24.297  0.00  0.00    +0.119 HD
ATOM      4  H2  UNL     1      10.678  -3.666  24.753  0.00  0.00    +0.119 HD
ENDBRANCH   1   2
BRANCH   1   5
ATOM      5  C   UNL     1       8.871  -5.216  25.263  0.00  0.00    +0.327 C 
ATOM      6  OXT UNL     1       8.076  -5.696  26.064  0.00  0.00    -0.249 OA
BRANCH   5   7
ATOM      7  O   UNL     1      10.053  -5.771  24.935  0.00  0.00    -0.479 OA
ATOM      8  H   UNL     1      10.787  -5.204  25.276  0.00  0.00    +0.295 HD
ENDBRANCH   5   7
ENDBRANCH   1   5
BRANCH   1   9
ATOM      9  C   UNL     1       7.616  -4.117  23.412  0.00  0.00    +0.158 C 
BRANCH   9  10
ATOM     10  N   UNL     1       7.589  -5.542  22.974  0.00  0.00    +0.220 N 
ATOM     11  H   UNL     1       7.156  -5.664  22.050  0.00  0.00    +0.199 HD
ATOM     12  H   UNL     1       7.113  -6.169  23.636  0.00  0.00    +0.199 HD
ATOM     13  H   UNL     1       8.569  -5.893  22.896  0.00  0.00    +0.199 HD
ENDBRANCH   9  10
ENDBRANCH   1   9
TORSDOF 5
ENDMDL
