MODEL 1
REMARK VINA RESULT:      -6.9      0.000      0.000
REMARK  Name = 
REMARK  7 active torsions:
REMARK  status: ('A' for Active; 'I' for Inactive)
REMARK    1  A    between atoms: C_1  and  O_2
REMARK    2  A    between atoms: O_2  and  C_3
REMARK    3  A    between atoms: C_4  and  C_5
REMARK    4  A    between atoms: N_6  and  N_7
REMARK    5  A    between atoms: C_8  and  C_10
REMARK    6  A    between atoms: C_12  and  O_13
REMARK    7  A    between atoms: C_14  and  O_15
REMARK                            x       y       z     vdW  Elec       q    Type
REMARK                         _______ _______ _______ _____ _____    ______ ____
ROOT
ATOM      1  C   UNL     1       6.132  -3.366  24.148  0.00  0.00    +0.142 C 
ATOM      2  N   UNL     1       7.205  -3.291  23.434  0.00  0.00    -0.187 NA
ENDROOT
BRANCH   1  12
ATOM      3  C   UNL     1       5.053  -5.588  23.470  0.00  0.00    +0.129 A 
ATOM      4  C   UNL     1       4.524  -6.820  23.882  0.00  0.00    +0.047 A 
ATOM      5  C   UNL     1       4.417  -7.168  25.220  0.00  0.00    +0.012 A 
ATOM      6  C   UNL     1       4.821  -6.282  26.211  0.00  0.00    -0.017 A 
ATOM      7  C   UNL     1       5.355  -5.010  25.864  0.00  0.00    -0.006 A 
ATOM      8  C   UNL     1       5.717  -4.179  26.961  0.00  0.00    +0.009 A 
ATOM      9  C   UNL     1       5.580  -4.590  28.294  0.00  0.00    +0.001 A 
ATOM     10  C   UNL     1       5.081  -5.849  28.590  0.00  0.00    +0.001 A 
ATOM     11  C   UNL     1       4.696  -6.686  27.551  0.00  0.00    +0.008 A 
ATOM     12  C   UNL     1       5.499  -4.681  24.459  0.00  0.00    +0.044 A 
BRANCH   3  14
ATOM     13  C   UNL     1       5.979  -5.853  21.220  0.00  0.00    +0.277 C 
ATOM     14  O   UNL     1       4.940  -5.517  22.113  0.00  0.00    -0.494 OA
ENDBRANCH   3  14
ENDBRANCH   1  12
BRANCH   2  15
ATOM     15  N   UNL     1       7.754  -2.071  23.149  0.00  0.00    -0.203 N 
ATOM     16  H   UNL     1       7.323  -1.483  22.452  0.00  0.00    +0.178 HD
ATOM     17  C   UNL     1       8.902  -1.715  23.859  0.00  0.00    +0.263 C 
ATOM     18  O   UNL     1       9.491  -2.486  24.621  0.00  0.00    -0.268 OA
BRANCH  17  19
ATOM     19  C   UNL     1       9.473  -0.342  23.698  0.00  0.00    +0.042 A 
ATOM     20  C   UNL     1      10.512   0.183  24.482  0.00  0.00    +0.017 A 
ATOM     21  C   UNL     1      11.001   1.473  24.231  0.00  0.00    +0.050 A 
ATOM     22  C   UNL     1      10.454   2.231  23.202  0.00  0.00    +0.158 A 
ATOM     23  C   UNL     1       9.424   1.726  22.423  0.00  0.00    +0.159 A 
ATOM     24  C   UNL     1       8.929   0.451  22.663  0.00  0.00    +0.062 A 
BRANCH  22  25
ATOM     25  O   UNL     1      10.940   3.480  22.957  0.00  0.00    -0.503 OA
ATOM     26  H   UNL     1      10.288   4.086  23.358  0.00  0.00    +0.292 HD
ENDBRANCH  22  25
BRANCH  23  27
ATOM     27  O   UNL     1       8.927   2.518  21.426  0.00  0.00    -0.503 OA
ATOM     28  H   UNL     1       9.097   2.078  20.574  0.00  0.00    +0.292 HD
ENDBRANCH  23  27
ENDBRANCH  17  19
ENDBRANCH   2  15
TORSDOF 6
ENDMDL
MODEL 2
REMARK VINA RESULT:      -6.8      2.443      8.678
REMARK  Name = 
REMARK  7 active torsions:
REMARK  status: ('A' for Active; 'I' for Inactive)
REMARK    1  A    between atoms: C_1  and  O_2
REMARK    2  A    between atoms: O_2  and  C_3
REMARK    3  A    between atoms: C_4  and  C_5
REMARK    4  A    between atoms: N_6  and  N_7
REMARK    5  A    between atoms: C_8  and  C_10
REMARK    6  A    between atoms: C_12  and  O_13
REMARK    7  A    between atoms: C_14  and  O_15
REMARK                            x       y       z     vdW  Elec       q    Type
REMARK                         _______ _______ _______ _____ _____    ______ ____
ROOT
ATOM      1  C   UNL     1       6.752  -1.035  23.468  0.00  0.00    +0.142 C 
ATOM      2  N   UNL     1       6.320  -2.028  22.763  0.00  0.00    -0.187 NA
ENDROOT
BRANCH   1  12
ATOM      3  C   UNL     1       8.931  -0.315  22.328  0.00  0.00    +0.129 A 
ATOM      4  C   UNL     1       9.677   0.724  21.755  0.00  0.00    +0.047 A 
ATOM      5  C   UNL     1       9.221   2.033  21.724  0.00  0.00    +0.012 A 
ATOM      6  C   UNL     1       7.994   2.362  22.288  0.00  0.00    -0.017 A 
ATOM      7  C   UNL     1       7.191   1.359  22.897  0.00  0.00    -0.006 A 
ATOM      8  C   UNL     1       5.964   1.815  23.458  0.00  0.00    +0.009 A 
ATOM      9  C   UNL     1       5.561   3.155  23.396  0.00  0.00    +0.001 A 
ATOM     10  C   UNL     1       6.361   4.099  22.769  0.00  0.00    +0.001 A 
ATOM     11  C   UNL     1       7.576   3.702  22.225  0.00  0.00    +0.008 A 
ATOM     12  C   UNL     1       7.666  -0.011  22.881  0.00  0.00    +0.044 A 
BRANCH   3  14
ATOM     13  C   UNL     1      10.084  -2.178  23.418  0.00  0.00    +0.277 C 
ATOM     14  O   UNL     1       9.686  -1.450  22.278  0.00  0.00    -0.494 OA
ENDBRANCH   3  14
ENDBRANCH   1  12
BRANCH   2  15
ATOM     15  N   UNL     1       5.498  -2.963  23.331  0.00  0.00    -0.203 N 
ATOM     16  H   UNL     1       4.544  -2.717  23.553  0.00  0.00    +0.178 HD
ATOM     17  C   UNL     1       6.048  -4.223  23.571  0.00  0.00    +0.263 C 
ATOM     18  O   UNL     1       7.243  -4.480  23.408  0.00  0.00    -0.268 OA
BRANCH  17  19
ATOM     19  C   UNL     1       5.169  -5.330  24.060  0.00  0.00    +0.042 A 
ATOM     20  C   UNL     1       4.135  -5.912  23.312  0.00  0.00    +0.017 A 
ATOM     21  C   UNL     1       3.385  -6.970  23.848  0.00  0.00    +0.050 A 
ATOM     22  C   UNL     1       3.672  -7.442  25.124  0.00  0.00    +0.158 A 
ATOM     23  C   UNL     1       4.689  -6.872  25.876  0.00  0.00    +0.159 A 
ATOM     24  C   UNL     1       5.436  -5.823  25.357  0.00  0.00    +0.062 A 
BRANCH  22  25
ATOM     25  O   UNL     1       2.949  -8.476  25.636  0.00  0.00    -0.503 OA
ATOM     26  H   UNL     1       2.615  -8.959  24.856  0.00  0.00    +0.292 HD
ENDBRANCH  22  25
BRANCH  23  27
ATOM     27  O   UNL     1       4.925  -7.380  27.124  0.00  0.00    -0.503 OA
ATOM     28  H   UNL     1       4.123  -7.845  27.420  0.00  0.00    +0.292 HD
ENDBRANCH  23  27
ENDBRANCH  17  19
ENDBRANCH   2  15
TORSDOF 6
ENDMDL
MODEL 3
REMARK VINA RESULT:      -6.7      2.475      8.484
REMARK  Name = 
REMARK  7 active torsions:
REMARK  status: ('A' for Active; 'I' for Inactive)
REMARK    1  A    between atoms: C_1  and  O_2
REMARK    2  A    between atoms: O_2  and  C_3
REMARK    3  A    between atoms: C_4  and  C_5
REMARK    4  A    between atoms: N_6  and  N_7
REMARK    5  A    between atoms: C_8  and  C_10
REMARK    6  A    between atoms: C_12  and  O_13
REMARK    7  A    between atoms: C_14  and  O_15
REMARK                            x       y       z     vdW  Elec       q    Type
REMARK                         _______ _______ _______ _____ _____    ______ ____
ROOT
ATOM      1  C   UNL     1       7.478  -0.464  24.073  0.00  0.00    +0.142 C 
ATOM      2  N   UNL     1       7.940  -1.526  24.647  0.00  0.00    -0.187 NA
ENDROOT
BRANCH   1  12
ATOM      3  C   UNL     1       9.329   0.611  22.666  0.00  0.00    +0.129 A 
ATOM      4  C   UNL     1      10.079   1.761  22.379  0.00  0.00    +0.047 A 
ATOM      5  C   UNL     1       9.921   2.943  23.086  0.00  0.00    +0.012 A 
ATOM      6  C   UNL     1       9.010   3.017  24.134  0.00  0.00    -0.017 A 
ATOM      7  C   UNL     1       8.227   1.885  24.487  0.00  0.00    -0.006 A 
ATOM      8  C   UNL     1       7.343   2.072  25.587  0.00  0.00    +0.009 A 
ATOM      9  C   UNL     1       7.232   3.294  26.264  0.00  0.00    +0.001 A 
ATOM     10  C   UNL     1       7.994   4.383  25.871  0.00  0.00    +0.001 A 
ATOM     11  C   UNL     1       8.885   4.240  24.815  0.00  0.00    +0.008 A 
ATOM     12  C   UNL     1       8.376   0.671  23.708  0.00  0.00    +0.044 A 
BRANCH   3  14
ATOM     13  C   UNL     1      10.517  -1.502  22.327  0.00  0.00    +0.277 C 
ATOM     14  O   UNL     1       9.779  -0.394  21.861  0.00  0.00    -0.494 OA
ENDBRANCH   3  14
ENDBRANCH   1  12
BRANCH   2  15
ATOM     15  N   UNL     1       7.093  -2.544  24.987  0.00  0.00    -0.203 N 
ATOM     16  H   UNL     1       6.428  -2.408  25.735  0.00  0.00    +0.178 HD
ATOM     17  C   UNL     1       7.208  -3.730  24.260  0.00  0.00    +0.263 C 
ATOM     18  O   UNL     1       8.098  -3.930  23.431  0.00  0.00    -0.268 OA
BRANCH  17  19
ATOM     19  C   UNL     1       6.222  -4.832  24.486  0.00  0.00    +0.042 A 
ATOM     20  C   UNL     1       5.368  -5.349  23.499  0.00  0.00    +0.017 A 
ATOM     21  C   UNL     1       4.499  -6.407  23.802  0.00  0.00    +0.050 A 
ATOM     22  C   UNL     1       4.488  -6.945  25.084  0.00  0.00    +0.158 A 
ATOM     23  C   UNL     1       5.322  -6.441  26.070  0.00  0.00    +0.159 A 
ATOM     24  C   UNL     1       6.185  -5.391  25.783  0.00  0.00    +0.062 A 
BRANCH  22  25
ATOM     25  O   UNL     1       3.649  -7.980  25.370  0.00  0.00    -0.503 OA
ATOM     26  H   UNL     1       3.440  -8.380  24.504  0.00  0.00    +0.292 HD
ENDBRANCH  22  25
BRANCH  23  27
ATOM     27  O   UNL     1       5.266  -7.011  27.311  0.00  0.00    -0.503 OA
ATOM     28  H   UNL     1       4.732  -6.436  27.887  0.00  0.00    +0.292 HD
ENDBRANCH  23  27
ENDBRANCH  17  19
ENDBRANCH   2  15
TORSDOF 6
ENDMDL
MODEL 4
REMARK VINA RESULT:      -6.5      1.943      3.269
REMARK  Name = 
REMARK  7 active torsions:
REMARK  status: ('A' for Active; 'I' for Inactive)
REMARK    1  A    between atoms: C_1  and  O_2
REMARK    2  A    between atoms: O_2  and  C_3
REMARK    3  A    between atoms: C_4  and  C_5
REMARK    4  A    between atoms: N_6  and  N_7
REMARK    5  A    between atoms: C_8  and  C_10
REMARK    6  A    between atoms: C_12  and  O_13
REMARK    7  A    between atoms: C_14  and  O_15
REMARK                            x       y       z     vdW  Elec       q    Type
REMARK                         _______ _______ _______ _____ _____    ______ ____
ROOT
ATOM      1  C   UNL     1       5.559  -4.131  24.182  0.00  0.00    +0.142 C 
ATOM      2  N   UNL     1       6.772  -4.242  23.749  0.00  0.00    -0.187 NA
ENDROOT
BRANCH   1  12
ATOM      3  C   UNL     1       5.498  -5.980  25.953  0.00  0.00    +0.129 A 
ATOM      4  C   UNL     1       4.749  -6.977  26.596  0.00  0.00    +0.047 A 
ATOM      5  C   UNL     1       3.444  -7.273  26.232  0.00  0.00    +0.012 A 
ATOM      6  C   UNL     1       2.836  -6.591  25.185  0.00  0.00    -0.017 A 
ATOM      7  C   UNL     1       3.542  -5.577  24.482  0.00  0.00    -0.006 A 
ATOM      8  C   UNL     1       2.826  -4.959  23.417  0.00  0.00    +0.009 A 
ATOM      9  C   UNL     1       1.507  -5.307  23.096  0.00  0.00    +0.001 A 
ATOM     10  C   UNL     1       0.843  -6.283  23.825  0.00  0.00    +0.001 A 
ATOM     11  C   UNL     1       1.511  -6.926  24.859  0.00  0.00    +0.008 A 
ATOM     12  C   UNL     1       4.890  -5.251  24.905  0.00  0.00    +0.044 A 
BRANCH   3  14
ATOM     13  C   UNL     1       7.247  -5.018  27.368  0.00  0.00    +0.277 C 
ATOM     14  O   UNL     1       6.756  -5.996  26.480  0.00  0.00    -0.494 OA
ENDBRANCH   3  14
ENDBRANCH   1  12
BRANCH   2  15
ATOM     15  N   UNL     1       7.355  -3.206  23.074  0.00  0.00    -0.203 N 
ATOM     16  H   UNL     1       7.082  -3.019  22.120  0.00  0.00    +0.178 HD
ATOM     17  C   UNL     1       8.311  -2.460  23.765  0.00  0.00    +0.263 C 
ATOM     18  O   UNL     1       8.724  -2.767  24.886  0.00  0.00    -0.268 OA
BRANCH  17  19
ATOM     19  C   UNL     1       8.886  -1.231  23.135  0.00  0.00    +0.042 A 
ATOM     20  C   UNL     1       8.862  -0.960  21.759  0.00  0.00    +0.017 A 
ATOM     21  C   UNL     1       9.400   0.239  21.267  0.00  0.00    +0.050 A 
ATOM     22  C   UNL     1       9.957   1.158  22.149  0.00  0.00    +0.158 A 
ATOM     23  C   UNL     1       9.992   0.900  23.511  0.00  0.00    +0.159 A 
ATOM     24  C   UNL     1       9.464  -0.284  24.009  0.00  0.00    +0.062 A 
BRANCH  22  25
ATOM     25  O   UNL     1      10.469   2.325  21.667  0.00  0.00    -0.503 OA
ATOM     26  H   UNL     1      11.150   2.052  21.023  0.00  0.00    +0.292 HD
ENDBRANCH  22  25
BRANCH  23  27
ATOM     27  O   UNL     1      10.551   1.842  24.328  0.00  0.00    -0.503 OA
ATOM     28  H   UNL     1      10.454   1.544  25.250  0.00  0.00    +0.292 HD
ENDBRANCH  23  27
ENDBRANCH  17  19
ENDBRANCH   2  15
TORSDOF 6
ENDMDL
MODEL 5
REMARK VINA RESULT:      -6.5      3.433      9.252
REMARK  Name = 
REMARK  7 active torsions:
REMARK  status: ('A' for Active; 'I' for Inactive)
REMARK    1  A    between atoms: C_1  and  O_2
REMARK    2  A    between atoms: O_2  and  C_3
REMARK    3  A    between atoms: C_4  and  C_5
REMARK    4  A    between atoms: N_6  and  N_7
REMARK    5  A    between atoms: C_8  and  C_10
REMARK    6  A    between atoms: C_12  and  O_13
REMARK    7  A    between atoms: C_14  and  O_15
REMARK                            x       y       z     vdW  Elec       q    Type
REMARK                         _______ _______ _______ _____ _____    ______ ____
ROOT
ATOM      1  C   UNL     1       8.685   2.107  23.391  0.00  0.00    +0.142 C 
ATOM      2  N   UNL     1       8.568   1.097  24.189  0.00  0.00    -0.187 NA
ENDROOT
BRANCH   1  12
ATOM      3  C   UNL     1       7.495   4.116  24.445  0.00  0.00    +0.129 A 
ATOM      4  C   UNL     1       7.600   5.421  24.948  0.00  0.00    +0.047 A 
ATOM      5  C   UNL     1       8.791   6.129  24.926  0.00  0.00    +0.012 A 
ATOM      6  C   UNL     1       9.934   5.563  24.375  0.00  0.00    -0.017 A 
ATOM      7  C   UNL     1       9.896   4.248  23.834  0.00  0.00    -0.006 A 
ATOM      8  C   UNL     1      11.121   3.779  23.280  0.00  0.00    +0.009 A 
ATOM      9  C   UNL     1      12.292   4.548  23.285  0.00  0.00    +0.001 A 
ATOM     10  C   UNL     1      12.295   5.816  23.848  0.00  0.00    +0.001 A 
ATOM     11  C   UNL     1      11.117   6.322  24.382  0.00  0.00    +0.008 A 
ATOM     12  C   UNL     1       8.652   3.507  23.906  0.00  0.00    +0.044 A 
BRANCH   3  14
ATOM     13  C   UNL     1       5.680   2.900  25.547  0.00  0.00    +0.277 C 
ATOM     14  O   UNL     1       6.188   3.737  24.532  0.00  0.00    -0.494 OA
ENDBRANCH   3  14
ENDBRANCH   1  12
BRANCH   2  15
ATOM     15  N   UNL     1       8.583  -0.175  23.689  0.00  0.00    -0.203 N 
ATOM     16  H   UNL     1       9.421  -0.527  23.249  0.00  0.00    +0.178 HD
ATOM     17  C   UNL     1       7.410  -0.920  23.822  0.00  0.00    +0.263 C 
ATOM     18  O   UNL     1       6.356  -0.446  24.252  0.00  0.00    -0.268 OA
BRANCH  17  19
ATOM     19  C   UNL     1       7.401  -2.361  23.423  0.00  0.00    +0.042 A 
ATOM     20  C   UNL     1       8.115  -3.372  24.083  0.00  0.00    +0.017 A 
ATOM     21  C   UNL     1       8.016  -4.703  23.650  0.00  0.00    +0.050 A 
ATOM     22  C   UNL     1       7.206  -5.017  22.566  0.00  0.00    +0.158 A 
ATOM     23  C   UNL     1       6.498  -4.027  21.901  0.00  0.00    +0.159 A 
ATOM     24  C   UNL     1       6.590  -2.706  22.318  0.00  0.00    +0.062 A 
BRANCH  22  25
ATOM     25  O   UNL     1       7.105  -6.313  22.156  0.00  0.00    -0.503 OA
ATOM     26  H   UNL     1       7.954  -6.501  21.711  0.00  0.00    +0.292 HD
ENDBRANCH  22  25
BRANCH  23  27
ATOM     27  O   UNL     1       5.717  -4.398  20.842  0.00  0.00    -0.503 OA
ATOM     28  H   UNL     1       5.520  -3.603  20.315  0.00  0.00    +0.292 HD
ENDBRANCH  23  27
ENDBRANCH  17  19
ENDBRANCH   2  15
TORSDOF 6
ENDMDL
MODEL 6
REMARK VINA RESULT:      -6.3      2.645      8.914
REMARK  Name = 
REMARK  7 active torsions:
REMARK  status: ('A' for Active; 'I' for Inactive)
REMARK    1  A    between atoms: C_1  and  O_2
REMARK    2  A    between atoms: O_2  and  C_3
REMARK    3  A    between atoms: C_4  and  C_5
REMARK    4  A    between atoms: N_6  and  N_7
REMARK    5  A    between atoms: C_8  and  C_10
REMARK    6  A    between atoms: C_12  and  O_13
REMARK    7  A    between atoms: C_14  and  O_15
REMARK                            x       y       z     vdW  Elec       q    Type
REMARK                         _______ _______ _______ _____ _____    ______ ____
ROOT
ATOM      1  C   UNL     1       7.789   0.319  22.890  0.00  0.00    +0.142 C 
ATOM      2  N   UNL     1       7.647  -0.517  23.865  0.00  0.00    -0.187 NA
ENDROOT
BRANCH   1  12
ATOM      3  C   UNL     1       9.575   2.074  23.436  0.00  0.00    +0.129 A 
ATOM      4  C   UNL     1       9.889   3.432  23.589  0.00  0.00    +0.047 A 
ATOM      5  C   UNL     1       8.936   4.431  23.462  0.00  0.00    +0.012 A 
ATOM      6  C   UNL     1       7.612   4.108  23.193  0.00  0.00    -0.017 A 
ATOM      7  C   UNL     1       7.221   2.750  23.039  0.00  0.00    -0.006 A 
ATOM      8  C   UNL     1       5.836   2.537  22.785  0.00  0.00    +0.009 A 
ATOM      9  C   UNL     1       4.921   3.592  22.671  0.00  0.00    +0.001 A 
ATOM     10  C   UNL     1       5.348   4.906  22.801  0.00  0.00    +0.001 A 
ATOM     11  C   UNL     1       6.687   5.158  23.069  0.00  0.00    +0.008 A 
ATOM     12  C   UNL     1       8.239   1.721  23.133  0.00  0.00    +0.044 A 
BRANCH   3  14
ATOM     13  C   UNL     1      10.858   0.548  24.856  0.00  0.00    +0.277 C 
ATOM     14  O   UNL     1      10.698   1.350  23.707  0.00  0.00    -0.494 OA
ENDBRANCH   3  14
ENDBRANCH   1  12
BRANCH   2  15
ATOM     15  N   UNL     1       7.216  -1.790  23.617  0.00  0.00    -0.203 N 
ATOM     16  H   UNL     1       7.778  -2.403  23.044  0.00  0.00    +0.178 HD
ATOM     17  C   UNL     1       5.997  -2.165  24.186  0.00  0.00    +0.263 C 
ATOM     18  O   UNL     1       5.261  -1.377  24.784  0.00  0.00    -0.268 OA
BRANCH  17  19
ATOM     19  C   UNL     1       5.534  -3.583  24.070  0.00  0.00    +0.042 A 
ATOM     20  C   UNL     1       4.941  -4.133  22.924  0.00  0.00    +0.017 A 
ATOM     21  C   UNL     1       4.569  -5.486  22.902  0.00  0.00    +0.050 A 
ATOM     22  C   UNL     1       4.791  -6.280  24.021  0.00  0.00    +0.158 A 
ATOM     23  C   UNL     1       5.372  -5.747  25.163  0.00  0.00    +0.159 A 
ATOM     24  C   UNL     1       5.742  -4.409  25.197  0.00  0.00    +0.062 A 
BRANCH  22  25
ATOM     25  O   UNL     1       4.438  -7.595  23.991  0.00  0.00    -0.503 OA
ATOM     26  H   UNL     1       5.016  -7.995  23.313  0.00  0.00    +0.292 HD
ENDBRANCH  22  25
BRANCH  23  27
ATOM     27  O   UNL     1       5.565  -6.579  26.231  0.00  0.00    -0.503 OA
ATOM     28  H   UNL     1       5.153  -7.437  26.028  0.00  0.00    +0.292 HD
ENDBRANCH  23  27
ENDBRANCH  17  19
ENDBRANCH   2  15
TORSDOF 6
ENDMDL
MODEL 7
REMARK VINA RESULT:      -6.3      2.035      2.362
REMARK  Name = 
REMARK  7 active torsions:
REMARK  status: ('A' for Active; 'I' for Inactive)
REMARK    1  A    between atoms: C_1  and  O_2
REMARK    2  A    between atoms: O_2  and  C_3
REMARK    3  A    between atoms: C_4  and  C_5
REMARK    4  A    between atoms: N_6  and  N_7
REMARK    5  A    between atoms: C_8  and  C_10
REMARK    6  A    between atoms: C_12  and  O_13
REMARK    7  A    between atoms: C_14  and  O_15
REMARK                            x       y       z     vdW  Elec       q    Type
REMARK                         _______ _______ _______ _____ _____    ______ ____
ROOT
ATOM      1  C   UNL     1       5.687  -3.079  24.153  0.00  0.00    +0.142 C 
ATOM      2  N   UNL     1       5.828  -2.430  23.045  0.00  0.00    -0.187 NA
ENDROOT
BRANCH   1  12
ATOM      3  C   UNL     1       5.567  -5.594  23.680  0.00  0.00    +0.129 A 
ATOM      4  C   UNL     1       4.851  -6.791  23.823  0.00  0.00    +0.047 A 
ATOM      5  C   UNL     1       3.609  -6.841  24.439  0.00  0.00    +0.012 A 
ATOM      6  C   UNL     1       3.020  -5.680  24.925  0.00  0.00    -0.017 A 
ATOM      7  C   UNL     1       3.685  -4.430  24.801  0.00  0.00    -0.006 A 
ATOM      8  C   UNL     1       2.979  -3.307  25.317  0.00  0.00    +0.009 A 
ATOM      9  C   UNL     1       1.722  -3.424  25.926  0.00  0.00    +0.001 A 
ATOM     10  C   UNL     1       1.118  -4.666  26.052  0.00  0.00    +0.001 A 
ATOM     11  C   UNL     1       1.763  -5.786  25.545  0.00  0.00    +0.008 A 
ATOM     12  C   UNL     1       5.001  -4.404  24.192  0.00  0.00    +0.044 A 
BRANCH   3  14
ATOM     13  C   UNL     1       6.776  -5.754  21.558  0.00  0.00    +0.277 C 
ATOM     14  O   UNL     1       6.695  -5.864  22.961  0.00  0.00    -0.494 OA
ENDBRANCH   3  14
ENDBRANCH   1  12
BRANCH   2  15
ATOM     15  N   UNL     1       6.444  -1.210  23.040  0.00  0.00    -0.203 N 
ATOM     16  H   UNL     1       5.927  -0.390  23.323  0.00  0.00    +0.178 HD
ATOM     17  C   UNL     1       7.780  -1.179  22.634  0.00  0.00    +0.263 C 
ATOM     18  O   UNL     1       8.369  -2.161  22.177  0.00  0.00    -0.268 OA
BRANCH  17  19
ATOM     19  C   UNL     1       8.553   0.097  22.737  0.00  0.00    +0.042 A 
ATOM     20  C   UNL     1       9.414   0.587  21.743  0.00  0.00    +0.017 A 
ATOM     21  C   UNL     1      10.072   1.813  21.921  0.00  0.00    +0.050 A 
ATOM     22  C   UNL     1       9.866   2.544  23.085  0.00  0.00    +0.158 A 
ATOM     23  C   UNL     1       9.021   2.070  24.078  0.00  0.00    +0.159 A 
ATOM     24  C   UNL     1       8.367   0.856  23.915  0.00  0.00    +0.062 A 
BRANCH  22  25
ATOM     25  O   UNL     1      10.499   3.739  23.248  0.00  0.00    -0.503 OA
ATOM     26  H   UNL     1       9.779   4.391  23.353  0.00  0.00    +0.292 HD
ENDBRANCH  22  25
BRANCH  23  27
ATOM     27  O   UNL     1       8.858   2.834  25.200  0.00  0.00    -0.503 OA
ATOM     28  H   UNL     1       9.630   2.696  25.777  0.00  0.00    +0.292 HD
ENDBRANCH  23  27
ENDBRANCH  17  19
ENDBRANCH   2  15
TORSDOF 6
ENDMDL
MODEL 8
REMARK VINA RESULT:      -6.3      2.150      3.991
REMARK  Name = 
REMARK  7 active torsions:
REMARK  status: ('A' for Active; 'I' for Inactive)
REMARK    1  A    between atoms: C_1  and  O_2
REMARK    2  A    between atoms: O_2  and  C_3
REMARK    3  A    between atoms: C_4  and  C_5
REMARK    4  A    between atoms: N_6  and  N_7
REMARK    5  A    between atoms: C_8  and  C_10
REMARK    6  A    between atoms: C_12  and  O_13
REMARK    7  A    between atoms: C_14  and  O_15
REMARK                            x       y       z     vdW  Elec       q    Type
REMARK                         _______ _______ _______ _____ _____    ______ ____
ROOT
ATOM      1  C   UNL     1       6.471  -1.569  24.290  0.00  0.00    +0.142 C 
ATOM      2  N   UNL     1       7.675  -1.103  24.354  0.00  0.00    -0.187 NA
ENDROOT
BRANCH   1  12
ATOM      3  C   UNL     1       5.896  -3.450  25.932  0.00  0.00    +0.129 A 
ATOM      4  C   UNL     1       5.577  -4.804  26.113  0.00  0.00    +0.047 A 
ATOM      5  C   UNL     1       5.536  -5.703  25.059  0.00  0.00    +0.012 A 
ATOM      6  C   UNL     1       5.835  -5.284  23.768  0.00  0.00    -0.017 A 
ATOM      7  C   UNL     1       6.179  -3.928  23.514  0.00  0.00    -0.006 A 
ATOM      8  C   UNL     1       6.484  -3.618  22.158  0.00  0.00    +0.009 A 
ATOM      9  C   UNL     1       6.427  -4.575  21.136  0.00  0.00    +0.001 A 
ATOM     10  C   UNL     1       6.060  -5.882  21.421  0.00  0.00    +0.001 A 
ATOM     11  C   UNL     1       5.774  -6.233  22.734  0.00  0.00    +0.008 A 
ATOM     12  C   UNL     1       6.175  -2.994  24.623  0.00  0.00    +0.044 A 
BRANCH   3  14
ATOM     13  C   UNL     1       5.037  -1.860  27.581  0.00  0.00    +0.277 C 
ATOM     14  O   UNL     1       5.937  -2.860  27.161  0.00  0.00    -0.494 OA
ENDBRANCH   3  14
ENDBRANCH   1  12
BRANCH   2  15
ATOM     15  N   UNL     1       7.921   0.201  24.026  0.00  0.00    -0.203 N 
ATOM     16  H   UNL     1       7.291   0.684  23.402  0.00  0.00    +0.178 HD
ATOM     17  C   UNL     1       9.055   0.790  24.589  0.00  0.00    +0.263 C 
ATOM     18  O   UNL     1       9.882   0.161  25.252  0.00  0.00    -0.268 OA
BRANCH  17  19
ATOM     19  C   UNL     1       9.308   2.250  24.383  0.00  0.00    +0.042 A 
ATOM     20  C   UNL     1       8.507   3.276  24.908  0.00  0.00    +0.017 A 
ATOM     21  C   UNL     1       8.846   4.618  24.686  0.00  0.00    +0.050 A 
ATOM     22  C   UNL     1       9.979   4.930  23.945  0.00  0.00    +0.158 A 
ATOM     23  C   UNL     1      10.777   3.926  23.416  0.00  0.00    +0.159 A 
ATOM     24  C   UNL     1      10.450   2.593  23.627  0.00  0.00    +0.062 A 
BRANCH  22  25
ATOM     25  O   UNL     1      10.310   6.236  23.740  0.00  0.00    -0.503 OA
ATOM     26  H   UNL     1       9.899   6.718  24.484  0.00  0.00    +0.292 HD
ENDBRANCH  22  25
BRANCH  23  27
ATOM     27  O   UNL     1      11.880   4.295  22.697  0.00  0.00    -0.503 OA
ATOM     28  H   UNL     1      11.737   4.041  21.768  0.00  0.00    +0.292 HD
ENDBRANCH  23  27
ENDBRANCH  17  19
ENDBRANCH   2  15
TORSDOF 6
ENDMDL
MODEL 9
REMARK VINA RESULT:      -6.3      2.685      3.988
REMARK  Name = 
REMARK  7 active torsions:
REMARK  status: ('A' for Active; 'I' for Inactive)
REMARK    1  A    between atoms: C_1  and  O_2
REMARK    2  A    between atoms: O_2  and  C_3
REMARK    3  A    between atoms: C_4  and  C_5
REMARK    4  A    between atoms: N_6  and  N_7
REMARK    5  A    between atoms: C_8  and  C_10
REMARK    6  A    between atoms: C_12  and  O_13
REMARK    7  A    between atoms: C_14  and  O_15
REMARK                            x       y       z     vdW  Elec       q    Type
REMARK                         _______ _______ _______ _____ _____    ______ ____
ROOT
ATOM      1  C   UNL     1       6.787  -1.394  23.775  0.00  0.00    +0.142 C 
ATOM      2  N   UNL     1       7.794  -1.112  24.535  0.00  0.00    -0.187 NA
ENDROOT
BRANCH   1  12
ATOM      3  C   UNL     1       4.792  -2.383  25.042  0.00  0.00    +0.129 A 
ATOM      4  C   UNL     1       3.943  -3.482  25.236  0.00  0.00    +0.047 A 
ATOM      5  C   UNL     1       4.114  -4.679  24.557  0.00  0.00    +0.012 A 
ATOM      6  C   UNL     1       5.165  -4.834  23.662  0.00  0.00    -0.017 A 
ATOM      7  C   UNL     1       6.072  -3.764  23.426  0.00  0.00    -0.006 A 
ATOM      8  C   UNL     1       7.120  -4.043  22.503  0.00  0.00    +0.009 A 
ATOM      9  C   UNL     1       7.240  -5.278  21.852  0.00  0.00    +0.001 A 
ATOM     10  C   UNL     1       6.318  -6.286  22.088  0.00  0.00    +0.001 A 
ATOM     11  C   UNL     1       5.291  -6.065  22.996  0.00  0.00    +0.008 A 
ATOM     12  C   UNL     1       5.851  -2.506  24.113  0.00  0.00    +0.044 A 
BRANCH   3  14
ATOM     13  C   UNL     1       5.111  -1.098  27.099  0.00  0.00    +0.277 C 
ATOM     14  O   UNL     1       4.415  -1.403  25.911  0.00  0.00    -0.494 OA
ENDBRANCH   3  14
ENDBRANCH   1  12
BRANCH   2  15
ATOM     15  N   UNL     1       8.647  -0.100  24.192  0.00  0.00    -0.203 N 
ATOM     16  H   UNL     1       9.380  -0.273  23.520  0.00  0.00    +0.178 HD
ATOM     17  C   UNL     1       8.441   1.135  24.810  0.00  0.00    +0.263 C 
ATOM     18  O   UNL     1       7.622   1.308  25.716  0.00  0.00    -0.268 OA
BRANCH  17  19
ATOM     19  C   UNL     1       9.247   2.319  24.380  0.00  0.00    +0.042 A 
ATOM     20  C   UNL     1      10.477   2.241  23.710  0.00  0.00    +0.017 A 
ATOM     21  C   UNL     1      11.143   3.412  23.319  0.00  0.00    +0.050 A 
ATOM     22  C   UNL     1      10.579   4.652  23.597  0.00  0.00    +0.158 A 
ATOM     23  C   UNL     1       9.366   4.744  24.264  0.00  0.00    +0.159 A 
ATOM     24  C   UNL     1       8.699   3.591  24.658  0.00  0.00    +0.062 A 
BRANCH  22  25
ATOM     25  O   UNL     1      11.225   5.786  23.206  0.00  0.00    -0.503 OA
ATOM     26  H   UNL     1      11.900   5.483  22.568  0.00  0.00    +0.292 HD
ENDBRANCH  22  25
BRANCH  23  27
ATOM     27  O   UNL     1       8.862   5.991  24.508  0.00  0.00    -0.503 OA
ATOM     28  H   UNL     1       9.412   6.414  25.190  0.00  0.00    +0.292 HD
ENDBRANCH  23  27
ENDBRANCH  17  19
ENDBRANCH   2  15
TORSDOF 6
ENDMDL
