MODEL 1
REMARK VINA RESULT:      -7.0      0.000      0.000
REMARK  Name = 
REMARK  8 active torsions:
REMARK  status: ('A' for Active; 'I' for Inactive)
REMARK    1  A    between atoms: N_1  and  S_2
REMARK    2  A    between atoms: S_2  and  O_5
REMARK    3  A    between atoms: O_5  and  C_6
REMARK    4  A    between atoms: C_9  and  C_10
REMARK    5  A    between atoms: C_10  and  N_11
REMARK    6  A    between atoms: N_11  and  N_12
REMARK    7  A    between atoms: N_11  and  C_17
REMARK    8  A    between atoms: C_20  and  C_23
REMARK                            x       y       z     vdW  Elec       q    Type
REMARK                         _______ _______ _______ _____ _____    ______ ____
ROOT
ATOM      1  C   UNL     1       8.475  -4.036  24.448  0.00  0.00    +0.165 C 
ENDROOT
BRANCH   1   6
ATOM      2  C   UNL     1       9.583   0.177  24.261  0.00  0.00    +0.172 A 
ATOM      3  C   UNL     1       8.550  -0.258  25.100  0.00  0.00    +0.063 A 
ATOM      4 BR   UNL     1       7.593   0.962  26.201  0.00  0.00    -0.046 Br
ATOM      5  C   UNL     1       8.186  -1.611  25.151  0.00  0.00    +0.024 A 
ATOM      6  C   UNL     1       8.830  -2.562  24.341  0.00  0.00    -0.027 A 
ATOM      7  C   UNL     1       9.894  -2.126  23.538  0.00  0.00    +0.009 A 
ATOM      8  C   UNL     1      10.277  -0.774  23.510  0.00  0.00    +0.050 A 
BRANCH   2   9
ATOM      9  O   UNL     1       9.847   1.525  24.252  0.00  0.00    -0.333 OA
BRANCH   9  10
ATOM     10  S   UNL     1       9.264   2.551  23.140  0.00  0.00    +0.189 S 
ATOM     11  O   UNL     1       7.937   2.121  22.760  0.00  0.00    -0.119 OA
ATOM     12  O   UNL     1       9.538   3.920  23.510  0.00  0.00    -0.119 OA
BRANCH  10  13
ATOM     13  N   UNL     1      10.216   2.247  21.787  0.00  0.00    -0.174 NA
ATOM     14  H   UNL     1       9.893   2.800  20.995  0.00  0.00    +0.147 HD
ATOM     15  H   UNL     1      11.191   2.440  22.018  0.00  0.00    +0.147 HD
ENDBRANCH  10  13
ENDBRANCH   9  10
ENDBRANCH   2   9
ENDBRANCH   1   6
BRANCH   1  16
ATOM     16  N   UNL     1       7.069  -4.493  24.269  0.00  0.00    -0.233 N 
BRANCH  16  17
ATOM     17  C   UNL     1       6.507  -5.137  25.435  0.00  0.00    +0.051 A 
ATOM     18  C   UNL     1       7.057  -4.962  26.721  0.00  0.00    +0.026 A 
ATOM     19  C   UNL     1       6.452  -5.502  27.884  0.00  0.00    +0.021 A 
ATOM     20  C   UNL     1       5.314  -6.301  27.782  0.00  0.00    +0.052 A 
ATOM     21  C   UNL     1       4.793  -6.558  26.517  0.00  0.00    +0.021 A 
ATOM     22  C   UNL     1       5.375  -5.983  25.376  0.00  0.00    +0.026 A 
BRANCH  20  23
ATOM     23  C   UNL     1       4.687  -6.852  28.947  0.00  0.00    +0.099 C 
ATOM     24  N   UNL     1       4.166  -7.290  29.893  0.00  0.00    -0.191 NA
ENDBRANCH  20  23
ENDBRANCH  16  17
BRANCH  16  25
ATOM     25  N   UNL     1       6.704  -4.901  22.934  0.00  0.00    -0.233 N 
ATOM     26  C   UNL     1       5.815  -4.305  22.064  0.00  0.00    +0.244 A 
ATOM     27  N   UNL     1       5.857  -4.874  20.881  0.00  0.00    -0.137 NA
ATOM     28  N   UNL     1       6.749  -5.910  20.958  0.00  0.00    -0.137 NA
ATOM     29  C   UNL     1       7.243  -5.914  22.177  0.00  0.00    +0.244 A 
ENDBRANCH  16  25
ENDBRANCH   1  16
TORSDOF 8
ENDMDL
MODEL 2
REMARK VINA RESULT:      -6.9      4.382      7.789
REMARK  Name = 
REMARK  8 active torsions:
REMARK  status: ('A' for Active; 'I' for Inactive)
REMARK    1  A    between atoms: N_1  and  S_2
REMARK    2  A    between atoms: S_2  and  O_5
REMARK    3  A    between atoms: O_5  and  C_6
REMARK    4  A    between atoms: C_9  and  C_10
REMARK    5  A    between atoms: C_10  and  N_11
REMARK    6  A    between atoms: N_11  and  N_12
REMARK    7  A    between atoms: N_11  and  C_17
REMARK    8  A    between atoms: C_20  and  C_23
REMARK                            x       y       z     vdW  Elec       q    Type
REMARK                         _______ _______ _______ _____ _____    ______ ____
ROOT
ATOM      1  C   UNL     1       9.814  -2.991  24.109  0.00  0.00    +0.165 C 
ENDROOT
BRANCH   1   6
ATOM      2  C   UNL     1       7.298  -4.785  27.185  0.00  0.00    +0.172 A 
ATOM      3  C   UNL     1       7.002  -3.521  26.660  0.00  0.00    +0.063 A 
ATOM      4 BR   UNL     1       5.486  -2.538  27.254  0.00  0.00    -0.046 Br
ATOM      5  C   UNL     1       7.817  -2.940  25.679  0.00  0.00    +0.024 A 
ATOM      6  C   UNL     1       8.970  -3.598  25.217  0.00  0.00    -0.027 A 
ATOM      7  C   UNL     1       9.235  -4.882  25.715  0.00  0.00    +0.009 A 
ATOM      8  C   UNL     1       8.400  -5.477  26.676  0.00  0.00    +0.050 A 
BRANCH   2   9
ATOM      9  O   UNL     1       6.462  -5.261  28.165  0.00  0.00    -0.333 OA
BRANCH   9  10
ATOM     10  S   UNL     1       5.451  -6.512  27.960  0.00  0.00    +0.189 S 
ATOM     11  O   UNL     1       5.317  -6.775  26.545  0.00  0.00    -0.119 OA
ATOM     12  O   UNL     1       5.744  -7.567  28.901  0.00  0.00    -0.119 OA
BRANCH  10  13
ATOM     13  N   UNL     1       3.959  -5.890  28.423  0.00  0.00    -0.174 NA
ATOM     14  H   UNL     1       3.266  -6.635  28.479  0.00  0.00    +0.147 HD
ATOM     15  H   UNL     1       4.066  -5.399  29.312  0.00  0.00    +0.147 HD
ENDBRANCH  10  13
ENDBRANCH   9  10
ENDBRANCH   2   9
ENDBRANCH   1   6
BRANCH   1  16
ATOM     16  N   UNL     1       9.190  -2.138  23.059  0.00  0.00    -0.233 N 
BRANCH  16  17
ATOM     17  C   UNL     1       9.553  -0.741  23.145  0.00  0.00    +0.051 A 
ATOM     18  C   UNL     1       9.858  -0.124  24.375  0.00  0.00    +0.026 A 
ATOM     19  C   UNL     1      10.317   1.215  24.458  0.00  0.00    +0.021 A 
ATOM     20  C   UNL     1      10.412   2.002  23.312  0.00  0.00    +0.052 A 
ATOM     21  C   UNL     1      10.042   1.444  22.091  0.00  0.00    +0.021 A 
ATOM     22  C   UNL     1       9.629   0.105  22.014  0.00  0.00    +0.026 A 
BRANCH  20  23
ATOM     23  C   UNL     1      10.878   3.356  23.376  0.00  0.00    +0.099 C 
ATOM     24  N   UNL     1      11.242   4.462  23.430  0.00  0.00    -0.191 NA
ENDBRANCH  20  23
ENDBRANCH  16  17
BRANCH  16  25
ATOM     25  N   UNL     1       7.884  -2.550  22.606  0.00  0.00    -0.233 N 
ATOM     26  C   UNL     1       7.500  -3.766  22.081  0.00  0.00    +0.244 A 
ATOM     27  N   UNL     1       6.196  -3.823  21.924  0.00  0.00    -0.137 NA
ATOM     28  N   UNL     1       5.688  -2.607  22.295  0.00  0.00    -0.137 NA
ATOM     29  C   UNL     1       6.696  -1.865  22.698  0.00  0.00    +0.244 A 
ENDBRANCH  16  25
ENDBRANCH   1  16
TORSDOF 8
ENDMDL
MODEL 3
REMARK VINA RESULT:      -6.9      1.136      1.658
REMARK  Name = 
REMARK  8 active torsions:
REMARK  status: ('A' for Active; 'I' for Inactive)
REMARK    1  A    between atoms: N_1  and  S_2
REMARK    2  A    between atoms: S_2  and  O_5
REMARK    3  A    between atoms: O_5  and  C_6
REMARK    4  A    between atoms: C_9  and  C_10
REMARK    5  A    between atoms: C_10  and  N_11
REMARK    6  A    between atoms: N_11  and  N_12
REMARK    7  A    between atoms: N_11  and  C_17
REMARK    8  A    between atoms: C_20  and  C_23
REMARK                            x       y       z     vdW  Elec       q    Type
REMARK                         _______ _______ _______ _____ _____    ______ ____
ROOT
ATOM      1  C   UNL     1       8.707  -3.251  23.786  0.00  0.00    +0.165 C 
ENDROOT
BRANCH   1   6
ATOM      2  C   UNL     1       9.170   1.041  24.404  0.00  0.00    +0.172 A 
ATOM      3  C   UNL     1       7.904   0.473  24.220  0.00  0.00    +0.063 A 
ATOM      4 BR   UNL     1       6.331   1.543  24.242  0.00  0.00    -0.046 Br
ATOM      5  C   UNL     1       7.756  -0.905  24.010  0.00  0.00    +0.024 A 
ATOM      6  C   UNL     1       8.878  -1.749  23.950  0.00  0.00    -0.027 A 
ATOM      7  C   UNL     1      10.139  -1.181  24.181  0.00  0.00    +0.009 A 
ATOM      8  C   UNL     1      10.283   0.196  24.422  0.00  0.00    +0.050 A 
BRANCH   2   9
ATOM      9  O   UNL     1       9.221   2.403  24.570  0.00  0.00    -0.333 OA
BRANCH   9  10
ATOM     10  S   UNL     1       9.761   3.430  23.437  0.00  0.00    +0.189 S 
ATOM     11  O   UNL     1       8.937   4.617  23.454  0.00  0.00    -0.119 OA
ATOM     12  O   UNL     1      11.203   3.510  23.463  0.00  0.00    -0.119 OA
BRANCH  10  13
ATOM     13  N   UNL     1       9.375   2.660  21.993  0.00  0.00    -0.174 NA
ATOM     14  H   UNL     1      10.105   2.819  21.300  0.00  0.00    +0.147 HD
ATOM     15  H   UNL     1       9.229   1.667  22.176  0.00  0.00    +0.147 HD
ENDBRANCH  10  13
ENDBRANCH   9  10
ENDBRANCH   2   9
ENDBRANCH   1   6
BRANCH   1  16
ATOM     16  N   UNL     1       7.350  -3.865  23.786  0.00  0.00    -0.233 N 
BRANCH  16  17
ATOM     17  C   UNL     1       6.967  -4.444  25.054  0.00  0.00    +0.051 A 
ATOM     18  C   UNL     1       5.619  -4.692  25.384  0.00  0.00    +0.026 A 
ATOM     19  C   UNL     1       5.241  -5.355  26.578  0.00  0.00    +0.021 A 
ATOM     20  C   UNL     1       6.203  -5.724  27.517  0.00  0.00    +0.052 A 
ATOM     21  C   UNL     1       7.537  -5.421  27.256  0.00  0.00    +0.021 A 
ATOM     22  C   UNL     1       7.905  -4.802  26.050  0.00  0.00    +0.026 A 
BRANCH  20  23
ATOM     23  C   UNL     1       5.840  -6.399  28.728  0.00  0.00    +0.099 C 
ATOM     24  N   UNL     1       5.557  -6.955  29.713  0.00  0.00    -0.191 NA
ENDBRANCH  20  23
ENDBRANCH  16  17
BRANCH  16  25
ATOM     25  N   UNL     1       6.918  -4.438  22.534  0.00  0.00    -0.233 N 
ATOM     26  C   UNL     1       7.130  -5.713  22.053  0.00  0.00    +0.244 A 
ATOM     27  N   UNL     1       6.456  -5.917  20.943  0.00  0.00    -0.137 NA
ATOM     28  N   UNL     1       5.818  -4.746  20.633  0.00  0.00    -0.137 NA
ATOM     29  C   UNL     1       6.099  -3.881  21.582  0.00  0.00    +0.244 A 
ENDBRANCH  16  25
ENDBRANCH   1  16
TORSDOF 8
ENDMDL
MODEL 4
REMARK VINA RESULT:      -6.6      1.590      2.214
REMARK  Name = 
REMARK  8 active torsions:
REMARK  status: ('A' for Active; 'I' for Inactive)
REMARK    1  A    between atoms: N_1  and  S_2
REMARK    2  A    between atoms: S_2  and  O_5
REMARK    3  A    between atoms: O_5  and  C_6
REMARK    4  A    between atoms: C_9  and  C_10
REMARK    5  A    between atoms: C_10  and  N_11
REMARK    6  A    between atoms: N_11  and  N_12
REMARK    7  A    between atoms: N_11  and  C_17
REMARK    8  A    between atoms: C_20  and  C_23
REMARK                            x       y       z     vdW  Elec       q    Type
REMARK                         _______ _______ _______ _____ _____    ______ ____
ROOT
ATOM      1  C   UNL     1       8.549  -3.628  24.334  0.00  0.00    +0.165 C 
ENDROOT
BRANCH   1   6
ATOM      2  C   UNL     1       9.224   0.660  24.741  0.00  0.00    +0.172 A 
ATOM      3  C   UNL     1       9.311   0.034  23.491  0.00  0.00    +0.063 A 
ATOM      4 BR   UNL     1       9.714   1.023  21.918  0.00  0.00    -0.046 Br
ATOM      5  C   UNL     1       9.105  -1.347  23.363  0.00  0.00    +0.024 A 
ATOM      6  C   UNL     1       8.835  -2.143  24.489  0.00  0.00    -0.027 A 
ATOM      7  C   UNL     1       8.704  -1.502  25.729  0.00  0.00    +0.009 A 
ATOM      8  C   UNL     1       8.881  -0.113  25.852  0.00  0.00    +0.050 A 
BRANCH   2   9
ATOM      9  O   UNL     1       9.474   2.010  24.775  0.00  0.00    -0.333 OA
BRANCH   9  10
ATOM     10  S   UNL     1       8.313   3.141  24.832  0.00  0.00    +0.189 S 
ATOM     11  O   UNL     1       8.909   4.433  24.576  0.00  0.00    -0.119 OA
ATOM     12  O   UNL     1       7.132   2.700  24.127  0.00  0.00    -0.119 OA
BRANCH  10  13
ATOM     13  N   UNL     1       7.884   3.182  26.457  0.00  0.00    -0.174 NA
ATOM     14  H   UNL     1       8.008   4.121  26.833  0.00  0.00    +0.147 HD
ATOM     15  H   UNL     1       6.923   2.854  26.555  0.00  0.00    +0.147 HD
ENDBRANCH  10  13
ENDBRANCH   9  10
ENDBRANCH   2   9
ENDBRANCH   1   6
BRANCH   1  16
ATOM     16  N   UNL     1       7.158  -4.115  24.117  0.00  0.00    -0.233 N 
BRANCH  16  17
ATOM     17  C   UNL     1       6.557  -4.717  25.286  0.00  0.00    +0.051 A 
ATOM     18  C   UNL     1       5.209  -5.128  25.304  0.00  0.00    +0.026 A 
ATOM     19  C   UNL     1       4.641  -5.814  26.407  0.00  0.00    +0.021 A 
ATOM     20  C   UNL     1       5.390  -6.043  27.560  0.00  0.00    +0.052 A 
ATOM     21  C   UNL     1       6.702  -5.579  27.602  0.00  0.00    +0.021 A 
ATOM     22  C   UNL     1       7.268  -4.938  26.489  0.00  0.00    +0.026 A 
BRANCH  20  23
ATOM     23  C   UNL     1       4.833  -6.739  28.682  0.00  0.00    +0.099 C 
ATOM     24  N   UNL     1       4.394  -7.306  29.601  0.00  0.00    -0.191 NA
ENDBRANCH  20  23
ENDBRANCH  16  17
BRANCH  16  25
ATOM     25  N   UNL     1       6.855  -4.586  22.787  0.00  0.00    -0.233 N 
ATOM     26  C   UNL     1       7.174  -5.796  22.209  0.00  0.00    +0.244 A 
ATOM     27  N   UNL     1       6.599  -5.926  21.035  0.00  0.00    -0.137 NA
ATOM     28  N   UNL     1       5.922  -4.763  20.783  0.00  0.00    -0.137 NA
ATOM     29  C   UNL     1       6.081  -3.980  21.827  0.00  0.00    +0.244 A 
ENDBRANCH  16  25
ENDBRANCH   1  16
TORSDOF 8
ENDMDL
MODEL 5
REMARK VINA RESULT:      -6.6      4.623      8.487
REMARK  Name = 
REMARK  8 active torsions:
REMARK  status: ('A' for Active; 'I' for Inactive)
REMARK    1  A    between atoms: N_1  and  S_2
REMARK    2  A    between atoms: S_2  and  O_5
REMARK    3  A    between atoms: O_5  and  C_6
REMARK    4  A    between atoms: C_9  and  C_10
REMARK    5  A    between atoms: C_10  and  N_11
REMARK    6  A    between atoms: N_11  and  N_12
REMARK    7  A    between atoms: N_11  and  C_17
REMARK    8  A    between atoms: C_20  and  C_23
REMARK                            x       y       z     vdW  Elec       q    Type
REMARK                         _______ _______ _______ _____ _____    ______ ____
ROOT
ATOM      1  C   UNL     1      10.356   2.027  22.625  0.00  0.00    +0.165 C 
ENDROOT
BRANCH   1   6
ATOM      2  C   UNL     1       8.902  -2.060  23.069  0.00  0.00    +0.172 A 
ATOM      3  C   UNL     1       9.046  -1.223  24.182  0.00  0.00    +0.063 A 
ATOM      4 BR   UNL     1       8.604  -1.824  25.932  0.00  0.00    -0.046 Br
ATOM      5  C   UNL     1       9.525   0.088  24.041  0.00  0.00    +0.024 A 
ATOM      6  C   UNL     1       9.899   0.586  22.781  0.00  0.00    -0.027 A 
ATOM      7  C   UNL     1       9.710  -0.242  21.665  0.00  0.00    +0.009 A 
ATOM      8  C   UNL     1       9.202  -1.545  21.805  0.00  0.00    +0.050 A 
BRANCH   2   9
ATOM      9  O   UNL     1       8.459  -3.338  23.307  0.00  0.00    -0.333 OA
BRANCH   9  10
ATOM     10  S   UNL     1       6.992  -3.878  22.876  0.00  0.00    +0.189 S 
ATOM     11  O   UNL     1       6.070  -2.765  22.865  0.00  0.00    -0.119 OA
ATOM     12  O   UNL     1       7.089  -4.791  21.761  0.00  0.00    -0.119 OA
BRANCH  10  13
ATOM     13  N   UNL     1       6.517  -4.814  24.190  0.00  0.00    -0.174 NA
ATOM     14  H   UNL     1       5.507  -4.948  24.184  0.00  0.00    +0.147 HD
ATOM     15  H   UNL     1       7.022  -5.701  24.166  0.00  0.00    +0.147 HD
ENDBRANCH  10  13
ENDBRANCH   9  10
ENDBRANCH   2   9
ENDBRANCH   1   6
BRANCH   1  16
ATOM     16  N   UNL     1       9.789   3.101  23.488  0.00  0.00    -0.233 N 
BRANCH  16  17
ATOM     17  C   UNL     1       8.344   3.153  23.487  0.00  0.00    +0.051 A 
ATOM     18  C   UNL     1       7.604   3.329  22.300  0.00  0.00    +0.026 A 
ATOM     19  C   UNL     1       6.188   3.275  22.275  0.00  0.00    +0.021 A 
ATOM     20  C   UNL     1       5.465   3.118  23.457  0.00  0.00    +0.052 A 
ATOM     21  C   UNL     1       6.166   3.021  24.656  0.00  0.00    +0.021 A 
ATOM     22  C   UNL     1       7.570   3.033  24.665  0.00  0.00    +0.026 A 
BRANCH  20  23
ATOM     23  C   UNL     1       4.033   3.057  23.450  0.00  0.00    +0.099 C 
ATOM     24  N   UNL     1       2.868   3.021  23.452  0.00  0.00    -0.191 NA
ENDBRANCH  20  23
ENDBRANCH  16  17
BRANCH  16  25
ATOM     25  N   UNL     1      10.586   4.297  23.611  0.00  0.00    -0.233 N 
ATOM     26  C   UNL     1      10.220   5.527  24.116  0.00  0.00    +0.244 A 
ATOM     27  N   UNL     1      11.257   6.328  24.208  0.00  0.00    -0.137 NA
ATOM     28  N   UNL     1      12.338   5.654  23.707  0.00  0.00    -0.137 NA
ATOM     29  C   UNL     1      11.927   4.455  23.359  0.00  0.00    +0.244 A 
ENDBRANCH  16  25
ENDBRANCH   1  16
TORSDOF 8
ENDMDL
MODEL 6
REMARK VINA RESULT:      -6.5      2.382      3.548
REMARK  Name = 
REMARK  8 active torsions:
REMARK  status: ('A' for Active; 'I' for Inactive)
REMARK    1  A    between atoms: N_1  and  S_2
REMARK    2  A    between atoms: S_2  and  O_5
REMARK    3  A    between atoms: O_5  and  C_6
REMARK    4  A    between atoms: C_9  and  C_10
REMARK    5  A    between atoms: C_10  and  N_11
REMARK    6  A    between atoms: N_11  and  N_12
REMARK    7  A    between atoms: N_11  and  C_17
REMARK    8  A    between atoms: C_20  and  C_23
REMARK                            x       y       z     vdW  Elec       q    Type
REMARK                         _______ _______ _______ _____ _____    ______ ____
ROOT
ATOM      1  C   UNL     1       7.909  -3.495  22.569  0.00  0.00    +0.165 C 
ENDROOT
BRANCH   1   6
ATOM      2  C   UNL     1       9.287   0.419  23.909  0.00  0.00    +0.172 A 
ATOM      3  C   UNL     1       7.923   0.104  23.889  0.00  0.00    +0.063 A 
ATOM      4 BR   UNL     1       6.613   1.362  24.454  0.00  0.00    -0.046 Br
ATOM      5  C   UNL     1       7.479  -1.150  23.447  0.00  0.00    +0.024 A 
ATOM      6  C   UNL     1       8.391  -2.115  22.986  0.00  0.00    -0.027 A 
ATOM      7  C   UNL     1       9.758  -1.810  23.052  0.00  0.00    +0.009 A 
ATOM      8  C   UNL     1      10.203  -0.563  23.524  0.00  0.00    +0.050 A 
BRANCH   2   9
ATOM      9  O   UNL     1       9.626   1.683  24.326  0.00  0.00    -0.333 OA
BRANCH   9  10
ATOM     10  S   UNL     1      10.001   2.895  23.316  0.00  0.00    +0.189 S 
ATOM     11  O   UNL     1       8.940   3.876  23.352  0.00  0.00    -0.119 OA
ATOM     12  O   UNL     1      11.387   3.275  23.463  0.00  0.00    -0.119 OA
BRANCH  10  13
ATOM     13  N   UNL     1       9.882   2.190  21.795  0.00  0.00    -0.174 NA
ATOM     14  H   UNL     1       9.372   1.310  21.851  0.00  0.00    +0.147 HD
ATOM     15  H   UNL     1       9.437   2.851  21.157  0.00  0.00    +0.147 HD
ENDBRANCH  10  13
ENDBRANCH   9  10
ENDBRANCH   2   9
ENDBRANCH   1   6
BRANCH   1  16
ATOM     16  N   UNL     1       7.442  -4.476  23.588  0.00  0.00    -0.233 N 
BRANCH  16  17
ATOM     17  C   UNL     1       6.015  -4.708  23.570  0.00  0.00    +0.051 A 
ATOM     18  C   UNL     1       5.102  -3.777  24.104  0.00  0.00    +0.026 A 
ATOM     19  C   UNL     1       3.698  -3.945  23.996  0.00  0.00    +0.021 A 
ATOM     20  C   UNL     1       3.167  -5.095  23.413  0.00  0.00    +0.052 A 
ATOM     21  C   UNL     1       4.045  -6.071  22.949  0.00  0.00    +0.021 A 
ATOM     22  C   UNL     1       5.433  -5.875  23.022  0.00  0.00    +0.026 A 
BRANCH  20  23
ATOM     23  C   UNL     1       1.751  -5.280  23.292  0.00  0.00    +0.099 C 
ATOM     24  N   UNL     1       0.601  -5.446  23.198  0.00  0.00    -0.191 NA
ENDBRANCH  20  23
ENDBRANCH  16  17
BRANCH  16  25
ATOM     25  N   UNL     1       8.196  -4.516  24.817  0.00  0.00    -0.233 N 
ATOM     26  C   UNL     1       7.786  -4.180  26.090  0.00  0.00    +0.244 A 
ATOM     27  N   UNL     1       8.702  -4.490  26.980  0.00  0.00    -0.137 NA
ATOM     28  N   UNL     1       9.777  -4.994  26.299  0.00  0.00    -0.137 NA
ATOM     29  C   UNL     1       9.465  -5.005  25.022  0.00  0.00    +0.244 A 
ENDBRANCH  16  25
ENDBRANCH   1  16
TORSDOF 8
ENDMDL
MODEL 7
REMARK VINA RESULT:      -6.5      5.245      8.397
REMARK  Name = 
REMARK  8 active torsions:
REMARK  status: ('A' for Active; 'I' for Inactive)
REMARK    1  A    between atoms: N_1  and  S_2
REMARK    2  A    between atoms: S_2  and  O_5
REMARK    3  A    between atoms: O_5  and  C_6
REMARK    4  A    between atoms: C_9  and  C_10
REMARK    5  A    between atoms: C_10  and  N_11
REMARK    6  A    between atoms: N_11  and  N_12
REMARK    7  A    between atoms: N_11  and  C_17
REMARK    8  A    between atoms: C_20  and  C_23
REMARK                            x       y       z     vdW  Elec       q    Type
REMARK                         _______ _______ _______ _____ _____    ______ ____
ROOT
ATOM      1  C   UNL     1       6.563  -1.554  23.644  0.00  0.00    +0.165 C 
ENDROOT
BRANCH   1   6
ATOM      2  C   UNL     1       3.644  -4.767  24.055  0.00  0.00    +0.172 A 
ATOM      3  C   UNL     1       3.768  -3.778  25.038  0.00  0.00    +0.063 A 
ATOM      4 BR   UNL     1       2.665  -3.784  26.587  0.00  0.00    -0.046 Br
ATOM      5  C   UNL     1       4.715  -2.752  24.911  0.00  0.00    +0.024 A 
ATOM      6  C   UNL     1       5.583  -2.705  23.808  0.00  0.00    -0.027 A 
ATOM      7  C   UNL     1       5.423  -3.672  22.805  0.00  0.00    +0.009 A 
ATOM      8  C   UNL     1       4.453  -4.683  22.919  0.00  0.00    +0.050 A 
BRANCH   2   9
ATOM      9  O   UNL     1       2.713  -5.752  24.280  0.00  0.00    -0.333 OA
BRANCH   9  10
ATOM     10  S   UNL     1       3.081  -7.233  24.828  0.00  0.00    +0.189 S 
ATOM     11  O   UNL     1       4.514  -7.412  24.760  0.00  0.00    -0.119 OA
ATOM     12  O   UNL     1       2.338  -7.534  26.029  0.00  0.00    -0.119 OA
BRANCH  10  13
ATOM     13  N   UNL     1       2.464  -8.254  23.644  0.00  0.00    -0.174 NA
ATOM     14  H   UNL     1       3.201  -8.853  23.273  0.00  0.00    +0.147 HD
ATOM     15  H   UNL     1       1.694  -8.794  24.039  0.00  0.00    +0.147 HD
ENDBRANCH  10  13
ENDBRANCH   9  10
ENDBRANCH   2   9
ENDBRANCH   1   6
BRANCH   1  16
ATOM     16  N   UNL     1       7.797  -1.484  24.475  0.00  0.00    -0.233 N 
BRANCH  16  17
ATOM     17  C   UNL     1       8.643  -0.350  24.176  0.00  0.00    +0.051 A 
ATOM     18  C   UNL     1       8.269   0.633  23.238  0.00  0.00    +0.026 A 
ATOM     19  C   UNL     1       9.041   1.801  23.015  0.00  0.00    +0.021 A 
ATOM     20  C   UNL     1      10.256   1.981  23.674  0.00  0.00    +0.052 A 
ATOM     21  C   UNL     1      10.691   0.988  24.547  0.00  0.00    +0.021 A 
ATOM     22  C   UNL     1       9.899  -0.144  24.793  0.00  0.00    +0.026 A 
BRANCH  20  23
ATOM     23  C   UNL     1      11.048   3.158  23.464  0.00  0.00    +0.099 C 
ATOM     24  N   UNL     1      11.681   4.119  23.283  0.00  0.00    -0.191 NA
ENDBRANCH  20  23
ENDBRANCH  16  17
BRANCH  16  25
ATOM     25  N   UNL     1       8.352  -2.750  24.889  0.00  0.00    -0.233 N 
ATOM     26  C   UNL     1       9.079  -3.655  24.145  0.00  0.00    +0.244 A 
ATOM     27  N   UNL     1       9.545  -4.623  24.902  0.00  0.00    -0.137 NA
ATOM     28  N   UNL     1       9.083  -4.405  26.172  0.00  0.00    -0.137 NA
ATOM     29  C   UNL     1       8.380  -3.294  26.150  0.00  0.00    +0.244 A 
ENDBRANCH  16  25
ENDBRANCH   1  16
TORSDOF 8
ENDMDL
MODEL 8
REMARK VINA RESULT:      -6.5      1.871      4.663
REMARK  Name = 
REMARK  8 active torsions:
REMARK  status: ('A' for Active; 'I' for Inactive)
REMARK    1  A    between atoms: N_1  and  S_2
REMARK    2  A    between atoms: S_2  and  O_5
REMARK    3  A    between atoms: O_5  and  C_6
REMARK    4  A    between atoms: C_9  and  C_10
REMARK    5  A    between atoms: C_10  and  N_11
REMARK    6  A    between atoms: N_11  and  N_12
REMARK    7  A    between atoms: N_11  and  C_17
REMARK    8  A    between atoms: C_20  and  C_23
REMARK                            x       y       z     vdW  Elec       q    Type
REMARK                         _______ _______ _______ _____ _____    ______ ____
ROOT
ATOM      1  C   UNL     1       6.349  -2.428  26.947  0.00  0.00    +0.165 C 
ENDROOT
BRANCH   1   6
ATOM      2  C   UNL     1       7.799   0.681  24.254  0.00  0.00    +0.172 A 
ATOM      3  C   UNL     1       8.685  -0.042  25.062  0.00  0.00    +0.063 A 
ATOM      4 BR   UNL     1      10.558   0.290  25.014  0.00  0.00    -0.046 Br
ATOM      5  C   UNL     1       8.218  -1.034  25.936  0.00  0.00    +0.024 A 
ATOM      6  C   UNL     1       6.844  -1.308  26.045  0.00  0.00    -0.027 A 
ATOM      7  C   UNL     1       5.967  -0.613  25.200  0.00  0.00    +0.009 A 
ATOM      8  C   UNL     1       6.441   0.360  24.302  0.00  0.00    +0.050 A 
BRANCH   2   9
ATOM      9  O   UNL     1       8.344   1.655  23.454  0.00  0.00    -0.333 OA
BRANCH   9  10
ATOM     10  S   UNL     1       8.629   1.465  21.869  0.00  0.00    +0.189 S 
ATOM     11  O   UNL     1       8.956   0.079  21.617  0.00  0.00    -0.119 OA
ATOM     12  O   UNL     1       7.640   2.164  21.082  0.00  0.00    -0.119 OA
BRANCH  10  13
ATOM     13  N   UNL     1      10.072   2.295  21.628  0.00  0.00    -0.174 NA
ATOM     14  H   UNL     1       9.963   2.988  20.889  0.00  0.00    +0.147 HD
ATOM     15  H   UNL     1      10.362   2.718  22.510  0.00  0.00    +0.147 HD
ENDBRANCH  10  13
ENDBRANCH   9  10
ENDBRANCH   2   9
ENDBRANCH   1   6
BRANCH   1  16
ATOM     16  N   UNL     1       6.686  -3.848  26.649  0.00  0.00    -0.233 N 
BRANCH  16  17
ATOM     17  C   UNL     1       6.547  -4.205  25.255  0.00  0.00    +0.051 A 
ATOM     18  C   UNL     1       7.663  -4.498  24.445  0.00  0.00    +0.026 A 
ATOM     19  C   UNL     1       7.530  -4.951  23.108  0.00  0.00    +0.021 A 
ATOM     20  C   UNL     1       6.272  -5.052  22.517  0.00  0.00    +0.052 A 
ATOM     21  C   UNL     1       5.155  -4.691  23.267  0.00  0.00    +0.021 A 
ATOM     22  C   UNL     1       5.294  -4.285  24.603  0.00  0.00    +0.026 A 
BRANCH  20  23
ATOM     23  C   UNL     1       6.119  -5.511  21.168  0.00  0.00    +0.099 C 
ATOM     24  N   UNL     1       6.007  -5.876  20.067  0.00  0.00    -0.191 NA
ENDBRANCH  20  23
ENDBRANCH  16  17
BRANCH  16  25
ATOM     25  N   UNL     1       6.409  -4.795  27.701  0.00  0.00    -0.233 N 
ATOM     26  C   UNL     1       5.408  -4.761  28.648  0.00  0.00    +0.244 A 
ATOM     27  N   UNL     1       5.378  -5.874  29.345  0.00  0.00    -0.137 NA
ATOM     28  N   UNL     1       6.409  -6.659  28.904  0.00  0.00    -0.137 NA
ATOM     29  C   UNL     1       7.010  -6.010  27.931  0.00  0.00    +0.244 A 
ENDBRANCH  16  25
ENDBRANCH   1  16
TORSDOF 8
ENDMDL
MODEL 9
REMARK VINA RESULT:      -6.3      5.010      8.402
REMARK  Name = 
REMARK  8 active torsions:
REMARK  status: ('A' for Active; 'I' for Inactive)
REMARK    1  A    between atoms: N_1  and  S_2
REMARK    2  A    between atoms: S_2  and  O_5
REMARK    3  A    between atoms: O_5  and  C_6
REMARK    4  A    between atoms: C_9  and  C_10
REMARK    5  A    between atoms: C_10  and  N_11
REMARK    6  A    between atoms: N_11  and  N_12
REMARK    7  A    between atoms: N_11  and  C_17
REMARK    8  A    between atoms: C_20  and  C_23
REMARK                            x       y       z     vdW  Elec       q    Type
REMARK                         _______ _______ _______ _____ _____    ______ ____
ROOT
ATOM      1  C   UNL     1       6.456  -0.631  24.144  0.00  0.00    +0.165 C 
ENDROOT
BRANCH   1   6
ATOM      2  C   UNL     1       5.411  -4.132  26.524  0.00  0.00    +0.172 A 
ATOM      3  C   UNL     1       5.558  -4.224  25.135  0.00  0.00    +0.063 A 
ATOM      4 BR   UNL     1       5.320  -5.879  24.226  0.00  0.00    -0.046 Br
ATOM      5  C   UNL     1       5.882  -3.096  24.368  0.00  0.00    +0.024 A 
ATOM      6  C   UNL     1       6.041  -1.837  24.971  0.00  0.00    -0.027 A 
ATOM      7  C   UNL     1       5.938  -1.761  26.368  0.00  0.00    +0.009 A 
ATOM      8  C   UNL     1       5.642  -2.899  27.138  0.00  0.00    +0.050 A 
BRANCH   2   9
ATOM      9  O   UNL     1       5.059  -5.282  27.188  0.00  0.00    -0.333 OA
BRANCH   9  10
ATOM     10  S   UNL     1       5.994  -6.003  28.300  0.00  0.00    +0.189 S 
ATOM     11  O   UNL     1       6.005  -5.191  29.496  0.00  0.00    -0.119 OA
ATOM     12  O   UNL     1       5.727  -7.422  28.352  0.00  0.00    -0.119 OA
BRANCH  10  13
ATOM     13  N   UNL     1       7.544  -5.854  27.666  0.00  0.00    -0.174 NA
ATOM     14  H   UNL     1       7.644  -6.434  26.835  0.00  0.00    +0.147 HD
ATOM     15  H   UNL     1       7.729  -4.870  27.471  0.00  0.00    +0.147 HD
ENDBRANCH  10  13
ENDBRANCH   9  10
ENDBRANCH   2   9
ENDBRANCH   1   6
BRANCH   1  16
ATOM     16  N   UNL     1       7.873  -0.173  24.127  0.00  0.00    -0.233 N 
BRANCH  16  17
ATOM     17  C   UNL     1       8.026   1.261  24.029  0.00  0.00    +0.051 A 
ATOM     18  C   UNL     1       9.202   1.917  24.447  0.00  0.00    +0.026 A 
ATOM     19  C   UNL     1       9.403   3.307  24.258  0.00  0.00    +0.021 A 
ATOM     20  C   UNL     1       8.394   4.099  23.710  0.00  0.00    +0.052 A 
ATOM     21  C   UNL     1       7.190   3.493  23.361  0.00  0.00    +0.021 A 
ATOM     22  C   UNL     1       7.017   2.108  23.513  0.00  0.00    +0.026 A 
BRANCH  20  23
ATOM     23  C   UNL     1       8.581   5.505  23.508  0.00  0.00    +0.099 C 
ATOM     24  N   UNL     1       8.725   6.648  23.331  0.00  0.00    -0.191 NA
ENDBRANCH  20  23
ENDBRANCH  16  17
BRANCH  16  25
ATOM     25  N   UNL     1       8.820  -1.075  23.519  0.00  0.00    -0.233 N 
ATOM     26  C   UNL     1       9.258  -1.110  22.212  0.00  0.00    +0.244 A 
ATOM     27  N   UNL     1      10.237  -1.974  22.063  0.00  0.00    -0.137 NA
ATOM     28  N   UNL     1      10.433  -2.578  23.276  0.00  0.00    -0.137 NA
ATOM     29  C   UNL     1       9.590  -2.037  24.127  0.00  0.00    +0.244 A 
ENDBRANCH  16  25
ENDBRANCH   1  16
TORSDOF 8
ENDMDL
