MODEL 1
REMARK VINA RESULT:      -7.5      0.000      0.000
REMARK  Name = 
REMARK  9 active torsions:
REMARK  status: ('A' for Active; 'I' for Inactive)
REMARK    1  A    between atoms: C_2  and  C_3
REMARK    2  A    between atoms: C_3  and  C_4
REMARK    3  A    between atoms: C_4  and  N_5
REMARK    4  A    between atoms: N_12  and  C_13
REMARK    5  A    between atoms: C_13  and  C_14
REMARK    6  A    between atoms: C_14  and  N_15
REMARK    7  A    between atoms: N_15  and  C_16
REMARK    8  A    between atoms: C_16  and  C_17
REMARK    9  A    between atoms: C_27  and  O_29
REMARK                            x       y       z     vdW  Elec       q    Type
REMARK                         _______ _______ _______ _____ _____    ______ ____
ROOT
ATOM      1  N   UNL     1       8.453   2.775  25.378  0.00  0.00    -0.234 N 
ATOM      2  H   UNL     1       9.469   2.904  25.446  0.00  0.00    +0.291 HD
ATOM      3  C   UNL     1       8.069   1.688  24.622  0.00  0.00    +0.325 C 
ATOM      4  C   UNL     1       8.685   0.328  25.043  0.00  0.00    +0.304 C 
ATOM      5  N   UNL     1       8.519  -0.745  24.091  0.00  0.00    -0.247 NA
ATOM      6  C   UNL     1       7.409  -0.643  23.163  0.00  0.00    +0.198 C 
ATOM      7 CL   UNL     1       6.134  -1.715  23.835  0.00  0.00    -0.100 Cl
ATOM      8  C   UNL     1       6.815   0.736  22.833  0.00  0.00    +0.325 C 
ATOM      9  N   UNL     1       7.228   1.860  23.662  0.00  0.00    -0.081 NA
ENDROOT
BRANCH   4  10
ATOM     10  O   UNL     1      10.046   0.594  25.342  0.00  0.00    -0.367 OA
ATOM     11  H   UNL     1      10.547   0.240  24.589  0.00  0.00    +0.212 HD
ENDBRANCH   4  10
BRANCH   1  12
ATOM     12  C   UNL     1       7.712   4.016  25.356  0.00  0.00    +0.224 C 
BRANCH  12  13
ATOM     13  C   UNL     1       8.398   5.045  24.462  0.00  0.00    +0.062 C 
BRANCH  13  14
ATOM     14  C   UNL     1       9.940   4.991  24.456  0.00  0.00    +0.057 C 
ATOM     15  N   UNL     1      10.429   4.315  23.238  0.00  0.00    -0.313 NA
ATOM     16  H   UNL     1      10.049   3.364  23.214  0.00  0.00    +0.122 HD
ATOM     17  C   UNL     1      11.893   4.220  23.227  0.00  0.00    +0.081 C 
ATOM     18  C   UNL     1      12.548   5.595  23.321  0.00  0.00    +0.015 C 
ATOM     19  C   UNL     1      12.081   6.335  24.568  0.00  0.00    +0.003 C 
ATOM     20  C   UNL     1      10.559   6.392  24.597  0.00  0.00    +0.019 C 
ENDBRANCH  13  14
ENDBRANCH  12  13
ENDBRANCH   1  12
BRANCH   5  21
ATOM     21  C   UNL     1       9.659  -1.519  23.616  0.00  0.00    +0.104 C 
BRANCH  21  22
ATOM     22  C   UNL     1       9.816  -2.974  24.141  0.00  0.00    +0.096 C 
BRANCH  22  23
ATOM     23  N   UNL     1       9.116  -3.263  25.395  0.00  0.00    -0.311 NA
ATOM     24  H   UNL     1       8.146  -2.961  25.295  0.00  0.00    +0.122 HD
BRANCH  23  25
ATOM     25  C   UNL     1       9.136  -4.685  25.712  0.00  0.00    +0.117 C 
BRANCH  25  26
ATOM     26  C   UNL     1       7.721  -5.137  25.884  0.00  0.00    -0.019 A 
ATOM     27  C   UNL     1       6.805  -5.413  24.796  0.00  0.00    -0.005 A 
ATOM     28  C   UNL     1       5.548  -5.806  25.266  0.00  0.00    +0.020 A 
ATOM     29  C   UNL     1       4.495  -6.116  24.393  0.00  0.00    +0.017 A 
ATOM     30  C   UNL     1       4.708  -6.037  23.012  0.00  0.00    +0.021 A 
ATOM     31  C   UNL     1       5.950  -5.652  22.519  0.00  0.00    +0.042 A 
ATOM     32 CL   UNL     1       6.203  -5.550  20.824  0.00  0.00    -0.084 Cl
ATOM     33  S   UNL     1       5.503  -5.841  26.988  0.00  0.00    -0.096 S 
ATOM     34  C   UNL     1       6.997  -5.345  23.395  0.00  0.00    +0.029 A 
ATOM     35  C   UNL     1       7.124  -5.343  27.113  0.00  0.00    +0.051 A 
ENDBRANCH  25  26
ENDBRANCH  23  25
ENDBRANCH  22  23
ENDBRANCH  21  22
ENDBRANCH   5  21
TORSDOF 9
ENDMDL
MODEL 2
REMARK VINA RESULT:      -7.4      1.911      2.204
REMARK  Name = 
REMARK  9 active torsions:
REMARK  status: ('A' for Active; 'I' for Inactive)
REMARK    1  A    between atoms: C_2  and  C_3
REMARK    2  A    between atoms: C_3  and  C_4
REMARK    3  A    between atoms: C_4  and  N_5
REMARK    4  A    between atoms: N_12  and  C_13
REMARK    5  A    between atoms: C_13  and  C_14
REMARK    6  A    between atoms: C_14  and  N_15
REMARK    7  A    between atoms: N_15  and  C_16
REMARK    8  A    between atoms: C_16  and  C_17
REMARK    9  A    between atoms: C_27  and  O_29
REMARK                            x       y       z     vdW  Elec       q    Type
REMARK                         _______ _______ _______ _____ _____    ______ ____
ROOT
ATOM      1  N   UNL     1       7.915   3.791  22.189  0.00  0.00    -0.234 N 
ATOM      2  H   UNL     1       7.406   3.486  21.351  0.00  0.00    +0.291 HD
ATOM      3  C   UNL     1       8.473   2.762  22.918  0.00  0.00    +0.325 C 
ATOM      4  C   UNL     1       9.405   1.808  22.128  0.00  0.00    +0.304 C 
ATOM      5  N   UNL     1       9.752   0.581  22.806  0.00  0.00    -0.247 NA
ATOM      6  C   UNL     1       9.680   0.582  24.254  0.00  0.00    +0.198 C 
ATOM      7 CL   UNL     1      11.377   0.780  24.809  0.00  0.00    -0.100 Cl
ATOM      8  C   UNL     1       8.772   1.593  24.973  0.00  0.00    +0.325 C 
ATOM      9  N   UNL     1       8.214   2.677  24.177  0.00  0.00    -0.081 NA
ENDROOT
BRANCH   4  10
ATOM     10  O   UNL     1       8.767   1.586  20.880  0.00  0.00    -0.367 OA
ATOM     11  H   UNL     1       8.739   2.457  20.449  0.00  0.00    +0.212 HD
ENDBRANCH   4  10
BRANCH   1  12
ATOM     12  C   UNL     1       7.335   4.949  22.829  0.00  0.00    +0.224 C 
BRANCH  12  13
ATOM     13  C   UNL     1       8.317   6.117  22.836  0.00  0.00    +0.062 C 
BRANCH  13  14
ATOM     14  C   UNL     1       9.544   5.944  23.756  0.00  0.00    +0.057 C 
ATOM     15  N   UNL     1      10.774   5.788  22.953  0.00  0.00    -0.313 NA
ATOM     16  H   UNL     1      10.672   4.965  22.352  0.00  0.00    +0.122 HD
ATOM     17  C   UNL     1      11.949   5.585  23.806  0.00  0.00    +0.081 C 
ATOM     18  C   UNL     1      12.145   6.742  24.782  0.00  0.00    +0.015 C 
ATOM     19  C   UNL     1      10.903   6.942  25.642  0.00  0.00    +0.003 C 
ATOM     20  C   UNL     1       9.678   7.108  24.752  0.00  0.00    +0.019 C 
ENDBRANCH  13  14
ENDBRANCH  12  13
ENDBRANCH   1  12
BRANCH   5  21
ATOM     21  C   UNL     1       9.555  -0.716  22.173  0.00  0.00    +0.104 C 
BRANCH  21  22
ATOM     22  C   UNL     1       9.938  -1.985  22.985  0.00  0.00    +0.096 C 
BRANCH  22  23
ATOM     23  N   UNL     1       8.934  -2.432  23.953  0.00  0.00    -0.311 NA
ATOM     24  H   UNL     1       8.115  -2.756  23.436  0.00  0.00    +0.122 HD
BRANCH  23  25
ATOM     25  C   UNL     1       9.428  -3.520  24.785  0.00  0.00    +0.117 C 
BRANCH  25  26
ATOM     26  C   UNL     1       8.245  -4.250  25.338  0.00  0.00    -0.019 A 
ATOM     27  C   UNL     1       7.253  -4.939  24.538  0.00  0.00    -0.005 A 
ATOM     28  C   UNL     1       6.259  -5.517  25.332  0.00  0.00    +0.020 A 
ATOM     29  C   UNL     1       5.187  -6.230  24.775  0.00  0.00    +0.017 A 
ATOM     30  C   UNL     1       5.111  -6.372  23.385  0.00  0.00    +0.021 A 
ATOM     31  C   UNL     1       6.089  -5.809  22.572  0.00  0.00    +0.042 A 
ATOM     32 CL   UNL     1       5.988  -5.982  20.867  0.00  0.00    -0.084 Cl
ATOM     33  S   UNL     1       6.544  -5.227  27.006  0.00  0.00    -0.096 S 
ATOM     34  C   UNL     1       7.157  -5.101  23.134  0.00  0.00    +0.029 A 
ATOM     35  C   UNL     1       7.964  -4.348  26.687  0.00  0.00    +0.051 A 
ENDBRANCH  25  26
ENDBRANCH  23  25
ENDBRANCH  22  23
ENDBRANCH  21  22
ENDBRANCH   5  21
TORSDOF 9
ENDMDL
MODEL 3
REMARK VINA RESULT:      -7.3      3.592      7.478
REMARK  Name = 
REMARK  9 active torsions:
REMARK  status: ('A' for Active; 'I' for Inactive)
REMARK    1  A    between atoms: C_2  and  C_3
REMARK    2  A    between atoms: C_3  and  C_4
REMARK    3  A    between atoms: C_4  and  N_5
REMARK    4  A    between atoms: N_12  and  C_13
REMARK    5  A    between atoms: C_13  and  C_14
REMARK    6  A    between atoms: C_14  and  N_15
REMARK    7  A    between atoms: N_15  and  C_16
REMARK    8  A    between atoms: C_16  and  C_17
REMARK    9  A    between atoms: C_27  and  O_29
REMARK                            x       y       z     vdW  Elec       q    Type
REMARK                         _______ _______ _______ _____ _____    ______ ____
ROOT
ATOM      1  N   UNL     1       7.835  -3.897  22.642  0.00  0.00    -0.234 N 
ATOM      2  H   UNL     1       8.295  -4.403  23.407  0.00  0.00    +0.291 HD
ATOM      3  C   UNL     1       7.945  -2.524  22.724  0.00  0.00    +0.325 C 
ATOM      4  C   UNL     1       9.390  -1.973  22.847  0.00  0.00    +0.304 C 
ATOM      5  N   UNL     1       9.490  -0.582  23.222  0.00  0.00    -0.247 NA
ATOM      6  C   UNL     1       8.351   0.267  22.930  0.00  0.00    +0.198 C 
ATOM      7 CL   UNL     1       8.800   1.156  21.435  0.00  0.00    -0.100 Cl
ATOM      8  C   UNL     1       6.955  -0.357  22.769  0.00  0.00    +0.325 C 
ATOM      9  N   UNL     1       6.876  -1.808  22.668  0.00  0.00    -0.081 NA
ENDROOT
BRANCH   4  10
ATOM     10  O   UNL     1      10.059  -2.838  23.752  0.00  0.00    -0.367 OA
ATOM     11  H   UNL     1       9.813  -2.523  24.637  0.00  0.00    +0.212 HD
ENDBRANCH   4  10
BRANCH   1  12
ATOM     12  C   UNL     1       6.629  -4.535  22.166  0.00  0.00    +0.224 C 
BRANCH  12  13
ATOM     13  C   UNL     1       6.208  -5.668  23.099  0.00  0.00    +0.062 C 
BRANCH  13  14
ATOM     14  C   UNL     1       4.697  -5.980  23.118  0.00  0.00    +0.057 C 
ATOM     15  N   UNL     1       4.416  -7.118  24.017  0.00  0.00    -0.313 NA
ATOM     16  H   UNL     1       4.935  -7.935  23.685  0.00  0.00    +0.122 HD
ATOM     17  C   UNL     1       2.989  -7.457  24.024  0.00  0.00    +0.081 C 
ATOM     18  C   UNL     1       2.129  -6.270  24.451  0.00  0.00    +0.015 C 
ATOM     19  C   UNL     1       2.376  -5.068  23.548  0.00  0.00    +0.003 C 
ATOM     20  C   UNL     1       3.865  -4.747  23.510  0.00  0.00    +0.019 C 
ENDBRANCH  13  14
ENDBRANCH  12  13
ENDBRANCH   1  12
BRANCH   5  21
ATOM     21  C   UNL     1      10.308  -0.160  24.351  0.00  0.00    +0.104 C 
BRANCH  21  22
ATOM     22  C   UNL     1       9.593   0.101  25.707  0.00  0.00    +0.096 C 
BRANCH  22  23
ATOM     23  N   UNL     1       9.132  -1.099  26.410  0.00  0.00    -0.311 NA
ATOM     24  H   UNL     1       9.331  -0.981  27.404  0.00  0.00    +0.122 HD
BRANCH  23  25
ATOM     25  C   UNL     1       7.702  -1.314  26.237  0.00  0.00    +0.117 C 
BRANCH  25  26
ATOM     26  C   UNL     1       7.427  -2.769  26.448  0.00  0.00    -0.019 A 
ATOM     27  C   UNL     1       6.117  -3.334  26.698  0.00  0.00    -0.005 A 
ATOM     28  C   UNL     1       6.176  -4.720  26.867  0.00  0.00    +0.020 A 
ATOM     29  C   UNL     1       5.028  -5.483  27.129  0.00  0.00    +0.017 A 
ATOM     30  C   UNL     1       3.788  -4.842  27.219  0.00  0.00    +0.021 A 
ATOM     31  C   UNL     1       3.702  -3.464  27.052  0.00  0.00    +0.042 A 
ATOM     32 CL   UNL     1       2.179  -2.682  27.169  0.00  0.00    -0.084 Cl
ATOM     33  S   UNL     1       7.789  -5.305  26.714  0.00  0.00    -0.096 S 
ATOM     34  C   UNL     1       4.850  -2.708  26.789  0.00  0.00    +0.029 A 
ATOM     35  C   UNL     1       8.404  -3.745  26.428  0.00  0.00    +0.051 A 
ENDBRANCH  25  26
ENDBRANCH  23  25
ENDBRANCH  22  23
ENDBRANCH  21  22
ENDBRANCH   5  21
TORSDOF 9
ENDMDL
MODEL 4
REMARK VINA RESULT:      -7.1      2.741      5.531
REMARK  Name = 
REMARK  9 active torsions:
REMARK  status: ('A' for Active; 'I' for Inactive)
REMARK    1  A    between atoms: C_2  and  C_3
REMARK    2  A    between atoms: C_3  and  C_4
REMARK    3  A    between atoms: C_4  and  N_5
REMARK    4  A    between atoms: N_12  and  C_13
REMARK    5  A    between atoms: C_13  and  C_14
REMARK    6  A    between atoms: C_14  and  N_15
REMARK    7  A    between atoms: N_15  and  C_16
REMARK    8  A    between atoms: C_16  and  C_17
REMARK    9  A    between atoms: C_27  and  O_29
REMARK                            x       y       z     vdW  Elec       q    Type
REMARK                         _______ _______ _______ _____ _____    ______ ____
ROOT
ATOM      1  N   UNL     1       8.025  -1.968  22.949  0.00  0.00    -0.234 N 
ATOM      2  H   UNL     1       7.533  -1.388  23.638  0.00  0.00    +0.291 HD
ATOM      3  C   UNL     1       7.445  -3.201  22.731  0.00  0.00    +0.325 C 
ATOM      4  C   UNL     1       5.946  -3.176  22.334  0.00  0.00    +0.304 C 
ATOM      5  N   UNL     1       5.272  -4.452  22.389  0.00  0.00    -0.247 NA
ATOM      6  C   UNL     1       6.093  -5.641  22.270  0.00  0.00    +0.198 C 
ATOM      7 CL   UNL     1       5.899  -6.179  20.567  0.00  0.00    -0.100 Cl
ATOM      8  C   UNL     1       7.586  -5.578  22.632  0.00  0.00    +0.325 C 
ATOM      9  N   UNL     1       8.170  -4.260  22.840  0.00  0.00    -0.081 NA
ENDROOT
BRANCH   4  10
ATOM     10  O   UNL     1       5.341  -2.196  23.162  0.00  0.00    -0.367 OA
ATOM     11  H   UNL     1       5.720  -2.339  24.045  0.00  0.00    +0.212 HD
ENDBRANCH   4  10
BRANCH   1  12
ATOM     12  C   UNL     1       9.460  -1.795  22.965  0.00  0.00    +0.224 C 
BRANCH  12  13
ATOM     13  C   UNL     1       9.910  -0.878  21.832  0.00  0.00    +0.062 C 
BRANCH  13  14
ATOM     14  C   UNL     1       9.742   0.632  22.099  0.00  0.00    +0.057 C 
ATOM     15  N   UNL     1       8.336   1.039  21.903  0.00  0.00    -0.313 NA
ATOM     16  H   UNL     1       8.063   0.824  20.939  0.00  0.00    +0.122 HD
ATOM     17  C   UNL     1       8.159   2.479  22.116  0.00  0.00    +0.081 C 
ATOM     18  C   UNL     1       8.600   2.901  23.514  0.00  0.00    +0.015 C 
ATOM     19  C   UNL     1      10.051   2.510  23.766  0.00  0.00    +0.003 C 
ATOM     20  C   UNL     1      10.240   1.022  23.501  0.00  0.00    +0.019 C 
ENDBRANCH  13  14
ENDBRANCH  12  13
ENDBRANCH   1  12
BRANCH   5  21
ATOM     21  C   UNL     1       4.034  -4.622  23.138  0.00  0.00    +0.104 C 
BRANCH  21  22
ATOM     22  C   UNL     1       4.144  -4.972  24.649  0.00  0.00    +0.096 C 
BRANCH  22  23
ATOM     23  N   UNL     1       4.086  -3.828  25.561  0.00  0.00    -0.311 NA
ATOM     24  H   UNL     1       3.104  -3.612  25.738  0.00  0.00    +0.122 HD
BRANCH  23  25
ATOM     25  C   UNL     1       4.744  -4.109  26.829  0.00  0.00    +0.117 C 
BRANCH  25  26
ATOM     26  C   UNL     1       6.188  -3.741  26.689  0.00  0.00    -0.019 A 
ATOM     27  C   UNL     1       6.689  -2.384  26.610  0.00  0.00    -0.005 A 
ATOM     28  C   UNL     1       8.080  -2.355  26.471  0.00  0.00    +0.020 A 
ATOM     29  C   UNL     1       8.788  -1.148  26.366  0.00  0.00    +0.017 A 
ATOM     30  C   UNL     1       8.085   0.061  26.408  0.00  0.00    +0.021 A 
ATOM     31  C   UNL     1       6.702   0.060  26.549  0.00  0.00    +0.042 A 
ATOM     32 CL   UNL     1       5.845   1.546  26.593  0.00  0.00    -0.084 Cl
ATOM     33  S   UNL     1       8.743  -3.945  26.447  0.00  0.00    -0.096 S 
ATOM     34  C   UNL     1       6.001  -1.147  26.655  0.00  0.00    +0.029 A 
ATOM     35  C   UNL     1       7.212  -4.664  26.618  0.00  0.00    +0.051 A 
ENDBRANCH  25  26
ENDBRANCH  23  25
ENDBRANCH  22  23
ENDBRANCH  21  22
ENDBRANCH   5  21
TORSDOF 9
ENDMDL
MODEL 5
REMARK VINA RESULT:      -7.1      2.192      3.492
REMARK  Name = 
REMARK  9 active torsions:
REMARK  status: ('A' for Active; 'I' for Inactive)
REMARK    1  A    between atoms: C_2  and  C_3
REMARK    2  A    between atoms: C_3  and  C_4
REMARK    3  A    between atoms: C_4  and  N_5
REMARK    4  A    between atoms: N_12  and  C_13
REMARK    5  A    between atoms: C_13  and  C_14
REMARK    6  A    between atoms: C_14  and  N_15
REMARK    7  A    between atoms: N_15  and  C_16
REMARK    8  A    between atoms: C_16  and  C_17
REMARK    9  A    between atoms: C_27  and  O_29
REMARK                            x       y       z     vdW  Elec       q    Type
REMARK                         _______ _______ _______ _____ _____    ______ ____
ROOT
ATOM      1  N   UNL     1       9.933   0.773  21.906  0.00  0.00    -0.234 N 
ATOM      2  H   UNL     1      10.241   0.377  21.011  0.00  0.00    +0.291 HD
ATOM      3  C   UNL     1       8.849   0.131  22.466  0.00  0.00    +0.325 C 
ATOM      4  C   UNL     1       9.003  -1.399  22.663  0.00  0.00    +0.304 C 
ATOM      5  N   UNL     1       7.783  -2.107  22.972  0.00  0.00    -0.247 NA
ATOM      6  C   UNL     1       6.709  -1.345  23.579  0.00  0.00    +0.198 C 
ATOM      7 CL   UNL     1       6.788  -1.737  25.331  0.00  0.00    -0.100 Cl
ATOM      8  C   UNL     1       6.650   0.179  23.385  0.00  0.00    +0.325 C 
ATOM      9  N   UNL     1       7.819   0.827  22.807  0.00  0.00    -0.081 NA
ENDROOT
BRANCH   4  10
ATOM     10  O   UNL     1       9.637  -1.880  21.488  0.00  0.00    -0.367 OA
ATOM     11  H   UNL     1      10.293  -2.526  21.798  0.00  0.00    +0.212 HD
ENDBRANCH   4  10
BRANCH   1  12
ATOM     12  C   UNL     1      10.095   2.207  21.991  0.00  0.00    +0.224 C 
BRANCH  12  13
ATOM     13  C   UNL     1      10.623   2.615  23.363  0.00  0.00    +0.062 C 
BRANCH  13  14
ATOM     14  C   UNL     1      10.069   3.945  23.915  0.00  0.00    +0.057 C 
ATOM     15  N   UNL     1      10.920   5.075  23.491  0.00  0.00    -0.313 NA
ATOM     16  H   UNL     1      11.870   4.922  23.843  0.00  0.00    +0.122 HD
ATOM     17  C   UNL     1      10.434   6.348  24.033  0.00  0.00    +0.081 C 
ATOM     18  C   UNL     1       8.996   6.631  23.606  0.00  0.00    +0.015 C 
ATOM     19  C   UNL     1       8.072   5.495  24.027  0.00  0.00    +0.003 C 
ATOM     20  C   UNL     1       8.605   4.170  23.498  0.00  0.00    +0.019 C 
ENDBRANCH  13  14
ENDBRANCH  12  13
ENDBRANCH   1  12
BRANCH   5  21
ATOM     21  C   UNL     1       7.362  -3.265  22.193  0.00  0.00    +0.104 C 
BRANCH  21  22
ATOM     22  C   UNL     1       5.837  -3.478  21.978  0.00  0.00    +0.096 C 
BRANCH  22  23
ATOM     23  N   UNL     1       5.462  -4.780  21.422  0.00  0.00    -0.311 NA
ATOM     24  H   UNL     1       5.776  -4.813  20.452  0.00  0.00    +0.122 HD
BRANCH  23  25
ATOM     25  C   UNL     1       6.073  -5.880  22.154  0.00  0.00    +0.117 C 
BRANCH  25  26
ATOM     26  C   UNL     1       5.385  -5.991  23.478  0.00  0.00    -0.019 A 
ATOM     27  C   UNL     1       6.006  -5.714  24.757  0.00  0.00    -0.005 A 
ATOM     28  C   UNL     1       5.117  -5.916  25.817  0.00  0.00    +0.020 A 
ATOM     29  C   UNL     1       5.500  -5.718  27.152  0.00  0.00    +0.017 A 
ATOM     30  C   UNL     1       6.806  -5.301  27.432  0.00  0.00    +0.021 A 
ATOM     31  C   UNL     1       7.708  -5.090  26.396  0.00  0.00    +0.042 A 
ATOM     32 CL   UNL     1       9.311  -4.584  26.746  0.00  0.00    -0.084 Cl
ATOM     33  S   UNL     1       3.570  -6.421  25.253  0.00  0.00    -0.096 S 
ATOM     34  C   UNL     1       7.320  -5.287  25.066  0.00  0.00    +0.029 A 
ATOM     35  C   UNL     1       4.066  -6.374  23.627  0.00  0.00    +0.051 A 
ENDBRANCH  25  26
ENDBRANCH  23  25
ENDBRANCH  22  23
ENDBRANCH  21  22
ENDBRANCH   5  21
TORSDOF 9
ENDMDL
MODEL 6
REMARK VINA RESULT:      -7.0      2.218      3.383
REMARK  Name = 
REMARK  9 active torsions:
REMARK  status: ('A' for Active; 'I' for Inactive)
REMARK    1  A    between atoms: C_2  and  C_3
REMARK    2  A    between atoms: C_3  and  C_4
REMARK    3  A    between atoms: C_4  and  N_5
REMARK    4  A    between atoms: N_12  and  C_13
REMARK    5  A    between atoms: C_13  and  C_14
REMARK    6  A    between atoms: C_14  and  N_15
REMARK    7  A    between atoms: N_15  and  C_16
REMARK    8  A    between atoms: C_16  and  C_17
REMARK    9  A    between atoms: C_27  and  O_29
REMARK                            x       y       z     vdW  Elec       q    Type
REMARK                         _______ _______ _______ _____ _____    ______ ____
ROOT
ATOM      1  N   UNL     1      10.124   4.407  23.352  0.00  0.00    -0.234 N 
ATOM      2  H   UNL     1      10.068   4.565  22.340  0.00  0.00    +0.291 HD
ATOM      3  C   UNL     1       9.610   3.195  23.764  0.00  0.00    +0.325 C 
ATOM      4  C   UNL     1      10.198   1.943  23.063  0.00  0.00    +0.304 C 
ATOM      5  N   UNL     1       9.468   0.716  23.278  0.00  0.00    -0.247 NA
ATOM      6  C   UNL     1       8.649   0.631  24.471  0.00  0.00    +0.198 C 
ATOM      7 CL   UNL     1       9.619  -0.330  25.639  0.00  0.00    -0.100 Cl
ATOM      8  C   UNL     1       8.145   1.918  25.144  0.00  0.00    +0.325 C 
ATOM      9  N   UNL     1       8.721   3.179  24.697  0.00  0.00    -0.081 NA
ENDROOT
BRANCH   4  10
ATOM     10  O   UNL     1      10.312   2.285  21.690  0.00  0.00    -0.367 OA
ATOM     11  H   UNL     1      10.320   1.437  21.216  0.00  0.00    +0.212 HD
ENDBRANCH   4  10
BRANCH   1  12
ATOM     12  C   UNL     1       9.959   5.609  24.137  0.00  0.00    +0.224 C 
BRANCH  12  13
ATOM     13  C   UNL     1       9.087   6.624  23.403  0.00  0.00    +0.062 C 
BRANCH  13  14
ATOM     14  C   UNL     1       7.569   6.481  23.636  0.00  0.00    +0.057 C 
ATOM     15  N   UNL     1       7.040   5.314  22.900  0.00  0.00    -0.313 NA
ATOM     16  H   UNL     1       7.227   5.443  21.902  0.00  0.00    +0.122 HD
ATOM     17  C   UNL     1       5.590   5.179  23.078  0.00  0.00    +0.081 C 
ATOM     18  C   UNL     1       5.213   5.042  24.550  0.00  0.00    +0.015 C 
ATOM     19  C   UNL     1       5.730   6.227  25.356  0.00  0.00    +0.003 C 
ATOM     20  C   UNL     1       7.228   6.390  25.133  0.00  0.00    +0.019 C 
ENDBRANCH  13  14
ENDBRANCH  12  13
ENDBRANCH   1  12
BRANCH   5  21
ATOM     21  C   UNL     1       9.026  -0.107  22.159  0.00  0.00    +0.104 C 
BRANCH  21  22
ATOM     22  C   UNL     1       9.833  -1.398  21.846  0.00  0.00    +0.096 C 
BRANCH  22  23
ATOM     23  N   UNL     1       9.648  -2.495  22.800  0.00  0.00    -0.311 NA
ATOM     24  H   UNL     1       9.867  -2.144  23.734  0.00  0.00    +0.122 HD
BRANCH  23  25
ATOM     25  C   UNL     1       8.281  -2.997  22.793  0.00  0.00    +0.117 C 
BRANCH  25  26
ATOM     26  C   UNL     1       8.072  -3.778  24.052  0.00  0.00    -0.019 A 
ATOM     27  C   UNL     1       6.881  -4.543  24.360  0.00  0.00    -0.005 A 
ATOM     28  C   UNL     1       6.970  -5.155  25.613  0.00  0.00    +0.020 A 
ATOM     29  C   UNL     1       5.929  -5.941  26.129  0.00  0.00    +0.017 A 
ATOM     30  C   UNL     1       4.771  -6.124  25.366  0.00  0.00    +0.021 A 
ATOM     31  C   UNL     1       4.658  -5.530  24.115  0.00  0.00    +0.042 A 
ATOM     32 CL   UNL     1       3.232  -5.753  23.186  0.00  0.00    -0.084 Cl
ATOM     33  S   UNL     1       8.474  -4.804  26.379  0.00  0.00    -0.096 S 
ATOM     34  C   UNL     1       5.700  -4.747  23.605  0.00  0.00    +0.029 A 
ATOM     35  C   UNL     1       9.001  -3.855  25.070  0.00  0.00    +0.051 A 
ENDBRANCH  25  26
ENDBRANCH  23  25
ENDBRANCH  22  23
ENDBRANCH  21  22
ENDBRANCH   5  21
TORSDOF 9
ENDMDL
MODEL 7
REMARK VINA RESULT:      -7.0      2.643      4.256
REMARK  Name = 
REMARK  9 active torsions:
REMARK  status: ('A' for Active; 'I' for Inactive)
REMARK    1  A    between atoms: C_2  and  C_3
REMARK    2  A    between atoms: C_3  and  C_4
REMARK    3  A    between atoms: C_4  and  N_5
REMARK    4  A    between atoms: N_12  and  C_13
REMARK    5  A    between atoms: C_13  and  C_14
REMARK    6  A    between atoms: C_14  and  N_15
REMARK    7  A    between atoms: N_15  and  C_16
REMARK    8  A    between atoms: C_16  and  C_17
REMARK    9  A    between atoms: C_27  and  O_29
REMARK                            x       y       z     vdW  Elec       q    Type
REMARK                         _______ _______ _______ _____ _____    ______ ____
ROOT
ATOM      1  N   UNL     1      10.330   0.078  23.522  0.00  0.00    -0.234 N 
ATOM      2  H   UNL     1       9.918   0.441  22.655  0.00  0.00    +0.291 HD
ATOM      3  C   UNL     1       9.690  -1.032  24.033  0.00  0.00    +0.325 C 
ATOM      4  C   UNL     1       9.535  -2.226  23.055  0.00  0.00    +0.304 C 
ATOM      5  N   UNL     1       8.624  -3.261  23.484  0.00  0.00    -0.247 NA
ATOM      6  C   UNL     1       8.378  -3.379  24.908  0.00  0.00    +0.198 C 
ATOM      7 CL   UNL     1       9.401  -4.754  25.448  0.00  0.00    -0.100 Cl
ATOM      8  C   UNL     1       8.604  -2.166  25.825  0.00  0.00    +0.325 C 
ATOM      9  N   UNL     1       9.298  -1.018  25.260  0.00  0.00    -0.081 NA
ENDROOT
BRANCH   4  10
ATOM     10  O   UNL     1       9.178  -1.659  21.804  0.00  0.00    -0.367 OA
ATOM     11  H   UNL     1      10.015  -1.365  21.408  0.00  0.00    +0.212 HD
ENDBRANCH   4  10
BRANCH   1  12
ATOM     12  C   UNL     1      10.869   1.107  24.383  0.00  0.00    +0.224 C 
BRANCH  12  13
ATOM     13  C   UNL     1      10.846   2.465  23.687  0.00  0.00    +0.062 C 
BRANCH  13  14
ATOM     14  C   UNL     1       9.442   3.045  23.416  0.00  0.00    +0.057 C 
ATOM     15  N   UNL     1       8.831   2.392  22.241  0.00  0.00    -0.313 NA
ATOM     16  H   UNL     1       9.434   2.548  21.428  0.00  0.00    +0.122 HD
ATOM     17  C   UNL     1       7.510   2.952  21.942  0.00  0.00    +0.081 C 
ATOM     18  C   UNL     1       6.558   2.817  23.127  0.00  0.00    +0.015 C 
ATOM     19  C   UNL     1       7.139   3.482  24.368  0.00  0.00    +0.003 C 
ATOM     20  C   UNL     1       8.530   2.928  24.649  0.00  0.00    +0.019 C 
ENDBRANCH  13  14
ENDBRANCH  12  13
ENDBRANCH   1  12
BRANCH   5  21
ATOM     21  C   UNL     1       7.540  -3.717  22.624  0.00  0.00    +0.104 C 
BRANCH  21  22
ATOM     22  C   UNL     1       6.115  -3.158  22.896  0.00  0.00    +0.096 C 
BRANCH  22  23
ATOM     23  N   UNL     1       5.024  -3.890  22.250  0.00  0.00    -0.311 NA
ATOM     24  H   UNL     1       5.009  -3.634  21.262  0.00  0.00    +0.122 HD
BRANCH  23  25
ATOM     25  C   UNL     1       5.197  -5.332  22.362  0.00  0.00    +0.117 C 
BRANCH  25  26
ATOM     26  C   UNL     1       4.185  -5.842  23.338  0.00  0.00    -0.019 A 
ATOM     27  C   UNL     1       4.425  -6.025  24.755  0.00  0.00    -0.005 A 
ATOM     28  C   UNL     1       3.296  -6.527  25.410  0.00  0.00    +0.020 A 
ATOM     29  C   UNL     1       3.296  -6.793  26.787  0.00  0.00    +0.017 A 
ATOM     30  C   UNL     1       4.455  -6.543  27.530  0.00  0.00    +0.021 A 
ATOM     31  C   UNL     1       5.590  -6.040  26.904  0.00  0.00    +0.042 A 
ATOM     32 CL   UNL     1       7.011  -5.742  27.819  0.00  0.00    -0.084 Cl
ATOM     33  S   UNL     1       1.985  -6.757  24.316  0.00  0.00    -0.096 S 
ATOM     34  C   UNL     1       5.584  -5.776  25.530  0.00  0.00    +0.029 A 
ATOM     35  C   UNL     1       2.897  -6.201  22.992  0.00  0.00    +0.051 A 
ENDBRANCH  25  26
ENDBRANCH  23  25
ENDBRANCH  22  23
ENDBRANCH  21  22
ENDBRANCH   5  21
TORSDOF 9
ENDMDL
MODEL 8
REMARK VINA RESULT:      -7.0      2.318      3.331
REMARK  Name = 
REMARK  9 active torsions:
REMARK  status: ('A' for Active; 'I' for Inactive)
REMARK    1  A    between atoms: C_2  and  C_3
REMARK    2  A    between atoms: C_3  and  C_4
REMARK    3  A    between atoms: C_4  and  N_5
REMARK    4  A    between atoms: N_12  and  C_13
REMARK    5  A    between atoms: C_13  and  C_14
REMARK    6  A    between atoms: C_14  and  N_15
REMARK    7  A    between atoms: N_15  and  C_16
REMARK    8  A    between atoms: C_16  and  C_17
REMARK    9  A    between atoms: C_27  and  O_29
REMARK                            x       y       z     vdW  Elec       q    Type
REMARK                         _______ _______ _______ _____ _____    ______ ____
ROOT
ATOM      1  N   UNL     1      10.824   3.420  22.761  0.00  0.00    -0.234 N 
ATOM      2  H   UNL     1      10.052   4.039  22.488  0.00  0.00    +0.291 HD
ATOM      3  C   UNL     1      10.430   2.147  23.119  0.00  0.00    +0.325 C 
ATOM      4  C   UNL     1       9.574   1.390  22.072  0.00  0.00    +0.304 C 
ATOM      5  N   UNL     1       8.925   0.193  22.554  0.00  0.00    -0.247 NA
ATOM      6  C   UNL     1       9.516  -0.464  23.703  0.00  0.00    +0.198 C 
ATOM      7 CL   UNL     1      10.447  -1.844  23.028  0.00  0.00    -0.100 Cl
ATOM      8  C   UNL     1      10.398   0.340  24.672  0.00  0.00    +0.325 C 
ATOM      9  N   UNL     1      10.810   1.673  24.255  0.00  0.00    -0.081 NA
ENDROOT
BRANCH   4  10
ATOM     10  O   UNL     1       8.659   2.344  21.556  0.00  0.00    -0.367 OA
ATOM     11  H   UNL     1       7.778   1.992  21.764  0.00  0.00    +0.212 HD
ENDBRANCH   4  10
BRANCH   1  12
ATOM     12  C   UNL     1      11.901   4.102  23.442  0.00  0.00    +0.224 C 
BRANCH  12  13
ATOM     13  C   UNL     1      11.881   5.596  23.132  0.00  0.00    +0.062 C 
BRANCH  13  14
ATOM     14  C   UNL     1      10.642   6.361  23.644  0.00  0.00    +0.057 C 
ATOM     15  N   UNL     1       9.438   5.958  22.890  0.00  0.00    -0.313 NA
ATOM     16  H   UNL     1       9.587   6.164  21.898  0.00  0.00    +0.122 HD
ATOM     17  C   UNL     1       8.253   6.699  23.335  0.00  0.00    +0.081 C 
ATOM     18  C   UNL     1       7.988   6.498  24.824  0.00  0.00    +0.015 C 
ATOM     19  C   UNL     1       9.201   6.906  25.651  0.00  0.00    +0.003 C 
ATOM     20  C   UNL     1      10.438   6.167  25.156  0.00  0.00    +0.019 C 
ENDBRANCH  13  14
ENDBRANCH  12  13
ENDBRANCH   1  12
BRANCH   5  21
ATOM     21  C   UNL     1       7.492  -0.009  22.388  0.00  0.00    +0.104 C 
BRANCH  21  22
ATOM     22  C   UNL     1       6.594   0.100  23.654  0.00  0.00    +0.096 C 
BRANCH  22  23
ATOM     23  N   UNL     1       5.850  -1.114  23.996  0.00  0.00    -0.311 NA
ATOM     24  H   UNL     1       4.854  -0.918  23.886  0.00  0.00    +0.122 HD
BRANCH  23  25
ATOM     25  C   UNL     1       6.208  -2.232  23.135  0.00  0.00    +0.117 C 
BRANCH  25  26
ATOM     26  C   UNL     1       6.300  -3.458  23.988  0.00  0.00    -0.019 A 
ATOM     27  C   UNL     1       5.280  -4.484  24.070  0.00  0.00    -0.005 A 
ATOM     28  C   UNL     1       5.641  -5.501  24.959  0.00  0.00    +0.020 A 
ATOM     29  C   UNL     1       4.804  -6.598  25.208  0.00  0.00    +0.017 A 
ATOM     30  C   UNL     1       3.575  -6.683  24.544  0.00  0.00    +0.021 A 
ATOM     31  C   UNL     1       3.194  -5.687  23.652  0.00  0.00    +0.042 A 
ATOM     32 CL   UNL     1       1.682  -5.793  22.846  0.00  0.00    -0.084 Cl
ATOM     33  S   UNL     1       7.186  -5.204  25.661  0.00  0.00    -0.096 S 
ATOM     34  C   UNL     1       4.034  -4.595  23.407  0.00  0.00    +0.029 A 
ATOM     35  C   UNL     1       7.377  -3.748  24.801  0.00  0.00    +0.051 A 
ENDBRANCH  25  26
ENDBRANCH  23  25
ENDBRANCH  22  23
ENDBRANCH  21  22
ENDBRANCH   5  21
TORSDOF 9
ENDMDL
MODEL 9
REMARK VINA RESULT:      -7.0      3.098      6.149
REMARK  Name = 
REMARK  9 active torsions:
REMARK  status: ('A' for Active; 'I' for Inactive)
REMARK    1  A    between atoms: C_2  and  C_3
REMARK    2  A    between atoms: C_3  and  C_4
REMARK    3  A    between atoms: C_4  and  N_5
REMARK    4  A    between atoms: N_12  and  C_13
REMARK    5  A    between atoms: C_13  and  C_14
REMARK    6  A    between atoms: C_14  and  N_15
REMARK    7  A    between atoms: N_15  and  C_16
REMARK    8  A    between atoms: C_16  and  C_17
REMARK    9  A    between atoms: C_27  and  O_29
REMARK                            x       y       z     vdW  Elec       q    Type
REMARK                         _______ _______ _______ _____ _____    ______ ____
ROOT
ATOM      1  N   UNL     1       9.384  -1.384  24.638  0.00  0.00    -0.234 N 
ATOM      2  H   UNL     1       9.174  -1.730  25.581  0.00  0.00    +0.291 HD
ATOM      3  C   UNL     1       8.585  -0.338  24.227  0.00  0.00    +0.325 C 
ATOM      4  C   UNL     1       8.547   0.889  25.175  0.00  0.00    +0.304 C 
ATOM      5  N   UNL     1       7.503   1.848  24.901  0.00  0.00    -0.247 NA
ATOM      6  C   UNL     1       6.976   1.887  23.551  0.00  0.00    +0.198 C 
ATOM      7 CL   UNL     1       7.781   3.292  22.772  0.00  0.00    -0.100 Cl
ATOM      8  C   UNL     1       7.097   0.648  22.648  0.00  0.00    +0.325 C 
ATOM      9  N   UNL     1       7.962  -0.431  23.103  0.00  0.00    -0.081 NA
ENDROOT
BRANCH   4  10
ATOM     10  O   UNL     1       8.479   0.361  26.491  0.00  0.00    -0.367 OA
ATOM     11  H   UNL     1       8.451  -0.604  26.378  0.00  0.00    +0.212 HD
ENDBRANCH   4  10
BRANCH   1  12
ATOM     12  C   UNL     1       9.811  -2.419  23.723  0.00  0.00    +0.224 C 
BRANCH  12  13
ATOM     13  C   UNL     1       9.236  -3.774  24.127  0.00  0.00    +0.062 C 
BRANCH  13  14
ATOM     14  C   UNL     1       7.863  -4.118  23.515  0.00  0.00    +0.057 C 
ATOM     15  N   UNL     1       7.560  -3.217  22.384  0.00  0.00    -0.313 NA
ATOM     16  H   UNL     1       7.557  -2.252  22.725  0.00  0.00    +0.122 HD
ATOM     17  C   UNL     1       6.242  -3.502  21.808  0.00  0.00    +0.081 C 
ATOM     18  C   UNL     1       6.137  -4.946  21.326  0.00  0.00    +0.015 C 
ATOM     19  C   UNL     1       6.433  -5.920  22.460  0.00  0.00    +0.003 C 
ATOM     20  C   UNL     1       7.784  -5.592  23.084  0.00  0.00    +0.019 C 
ENDBRANCH  13  14
ENDBRANCH  12  13
ENDBRANCH   1  12
BRANCH   5  21
ATOM     21  C   UNL     1       6.581   2.281  25.943  0.00  0.00    +0.104 C 
BRANCH  21  22
ATOM     22  C   UNL     1       5.272   1.465  26.136  0.00  0.00    +0.096 C 
BRANCH  22  23
ATOM     23  N   UNL     1       5.461   0.070  26.540  0.00  0.00    -0.311 NA
ATOM     24  H   UNL     1       4.823  -0.127  27.312  0.00  0.00    +0.122 HD
BRANCH  23  25
ATOM     25  C   UNL     1       5.180  -0.854  25.450  0.00  0.00    +0.117 C 
BRANCH  25  26
ATOM     26  C   UNL     1       5.548  -2.230  25.908  0.00  0.00    -0.019 A 
ATOM     27  C   UNL     1       4.874  -3.445  25.497  0.00  0.00    -0.005 A 
ATOM     28  C   UNL     1       5.434  -4.575  26.099  0.00  0.00    +0.020 A 
ATOM     29  C   UNL     1       4.938  -5.865  25.857  0.00  0.00    +0.017 A 
ATOM     30  C   UNL     1       3.857  -6.027  24.983  0.00  0.00    +0.021 A 
ATOM     31  C   UNL     1       3.285  -4.919  24.368  0.00  0.00    +0.042 A 
ATOM     32 CL   UNL     1       1.955  -5.124  23.302  0.00  0.00    -0.084 Cl
ATOM     33  S   UNL     1       6.749  -4.153  27.129  0.00  0.00    -0.096 S 
ATOM     34  C   UNL     1       3.785  -3.636  24.612  0.00  0.00    +0.029 A 
ATOM     35  C   UNL     1       6.582  -2.496  26.784  0.00  0.00    +0.051 A 
ENDBRANCH  25  26
ENDBRANCH  23  25
ENDBRANCH  22  23
ENDBRANCH  21  22
ENDBRANCH   5  21
TORSDOF 9
ENDMDL
