MODEL 1
REMARK VINA RESULT:      -4.9      0.000      0.000
REMARK  Name = 
REMARK  5 active torsions:
REMARK  status: ('A' for Active; 'I' for Inactive)
REMARK    1  A    between atoms: C_2  and  O_3
REMARK    2  A    between atoms: C_5  and  C_7
REMARK    3  A    between atoms: C_7  and  O_8
REMARK    4  A    between atoms: C_9  and  O_11
REMARK    5  A    between atoms: C_12  and  O_14
REMARK                            x       y       z     vdW  Elec       q    Type
REMARK                         _______ _______ _______ _____ _____    ______ ____
ROOT
ATOM      1  C   UNL     1       9.353   0.815  24.619  0.00  0.00    +0.284 C 
ATOM      2  C   UNL     1       9.301   2.328  24.333  0.00  0.00    +0.252 C 
ATOM      3  F   UNL     1       8.676   2.934  25.391  0.00  0.00    -0.237 F 
ATOM      4  C   UNL     1       8.477   2.608  23.073  0.00  0.00    +0.184 C 
ATOM      5  C   UNL     1       8.934   1.725  21.901  0.00  0.00    +0.177 C 
ATOM      6  C   UNL     1       8.889   0.253  22.346  0.00  0.00    +0.178 C 
ATOM      7  O   UNL     1       9.737   0.045  23.485  0.00  0.00    -0.340 OA
ENDROOT
BRANCH   4   8
ATOM      8  O   UNL     1       8.531   4.000  22.723  0.00  0.00    -0.386 OA
ATOM      9  H   UNL     1       7.955   4.143  21.952  0.00  0.00    +0.210 HD
ENDBRANCH   4   8
BRANCH   5  10
ATOM     10  O   UNL     1      10.245   2.147  21.506  0.00  0.00    -0.386 OA
ATOM     11  H   UNL     1      10.455   3.001  21.923  0.00  0.00    +0.210 HD
ENDBRANCH   5  10
BRANCH   1  12
ATOM     12  O   UNL     1      10.298   0.543  25.646  0.00  0.00    -0.365 OA
ATOM     13  H   UNL     1      10.367   1.350  26.177  0.00  0.00    +0.213 HD
ENDBRANCH   1  12
BRANCH   6  14
ATOM     14  C   UNL     1       9.354  -0.706  21.245  0.00  0.00    +0.190 C 
BRANCH  14  15
ATOM     15  O   UNL     1      10.350  -1.582  21.770  0.00  0.00    -0.392 OA
ATOM     16  H   UNL     1      10.706  -2.070  21.001  0.00  0.00    +0.210 HD
ENDBRANCH  14  15
ENDBRANCH   6  14
TORSDOF 5
ENDMDL
MODEL 2
REMARK VINA RESULT:      -4.9      1.920      2.619
REMARK  Name = 
REMARK  5 active torsions:
REMARK  status: ('A' for Active; 'I' for Inactive)
REMARK    1  A    between atoms: C_2  and  O_3
REMARK    2  A    between atoms: C_5  and  C_7
REMARK    3  A    between atoms: C_7  and  O_8
REMARK    4  A    between atoms: C_9  and  O_11
REMARK    5  A    between atoms: C_12  and  O_14
REMARK                            x       y       z     vdW  Elec       q    Type
REMARK                         _______ _______ _______ _____ _____    ______ ____
ROOT
ATOM      1  C   UNL     1       9.844   0.294  24.542  0.00  0.00    +0.284 C 
ATOM      2  C   UNL     1       9.950   0.952  23.153  0.00  0.00    +0.252 C 
ATOM      3  F   UNL     1       9.716   2.294  23.306  0.00  0.00    -0.237 F 
ATOM      4  C   UNL     1       8.884   0.390  22.210  0.00  0.00    +0.184 C 
ATOM      5  C   UNL     1       8.886  -1.146  22.219  0.00  0.00    +0.177 C 
ATOM      6  C   UNL     1       8.734  -1.631  23.671  0.00  0.00    +0.178 C 
ATOM      7  O   UNL     1       9.804  -1.128  24.484  0.00  0.00    -0.340 OA
ENDROOT
BRANCH   4   8
ATOM      8  O   UNL     1       9.057   0.900  20.878  0.00  0.00    -0.386 OA
ATOM      9  H   UNL     1       8.286   1.453  20.660  0.00  0.00    +0.210 HD
ENDBRANCH   4   8
BRANCH   5  10
ATOM     10  O   UNL     1      10.101  -1.597  21.606  0.00  0.00    -0.386 OA
ATOM     11  H   UNL     1      10.021  -1.539  20.637  0.00  0.00    +0.210 HD
ENDBRANCH   5  10
BRANCH   1  12
ATOM     12  O   UNL     1      10.968   0.646  25.339  0.00  0.00    -0.365 OA
ATOM     13  H   UNL     1      11.375  -0.186  25.622  0.00  0.00    +0.213 HD
ENDBRANCH   1  12
BRANCH   6  14
ATOM     14  C   UNL     1       8.751  -3.159  23.783  0.00  0.00    +0.190 C 
BRANCH  14  15
ATOM     15  O   UNL     1      10.066  -3.594  24.123  0.00  0.00    -0.392 OA
ATOM     16  H   UNL     1      10.372  -2.988  24.827  0.00  0.00    +0.210 HD
ENDBRANCH  14  15
ENDBRANCH   6  14
TORSDOF 5
ENDMDL
MODEL 3
REMARK VINA RESULT:      -4.8      4.084      5.415
REMARK  Name = 
REMARK  5 active torsions:
REMARK  status: ('A' for Active; 'I' for Inactive)
REMARK    1  A    between atoms: C_2  and  O_3
REMARK    2  A    between atoms: C_5  and  C_7
REMARK    3  A    between atoms: C_7  and  O_8
REMARK    4  A    between atoms: C_9  and  O_11
REMARK    5  A    between atoms: C_12  and  O_14
REMARK                            x       y       z     vdW  Elec       q    Type
REMARK                         _______ _______ _______ _____ _____    ______ ____
ROOT
ATOM      1  C   UNL     1       9.704  -2.070  23.312  0.00  0.00    +0.284 C 
ATOM      2  C   UNL     1       8.387  -2.132  22.514  0.00  0.00    +0.252 C 
ATOM      3  F   UNL     1       8.112  -0.868  22.061  0.00  0.00    -0.237 F 
ATOM      4  C   UNL     1       7.232  -2.573  23.417  0.00  0.00    +0.184 C 
ATOM      5  C   UNL     1       7.593  -3.843  24.203  0.00  0.00    +0.177 C 
ATOM      6  C   UNL     1       8.905  -3.594  24.966  0.00  0.00    +0.178 C 
ATOM      7  O   UNL     1       9.961  -3.257  24.055  0.00  0.00    -0.340 OA
ENDROOT
BRANCH   4   8
ATOM      8  O   UNL     1       6.028  -2.760  22.657  0.00  0.00    -0.386 OA
ATOM      9  H   UNL     1       5.295  -2.913  23.278  0.00  0.00    +0.210 HD
ENDBRANCH   4   8
BRANCH   5  10
ATOM     10  O   UNL     1       7.686  -4.933  23.276  0.00  0.00    -0.386 OA
ATOM     11  H   UNL     1       8.058  -5.714  23.724  0.00  0.00    +0.210 HD
ENDBRANCH   5  10
BRANCH   1  12
ATOM     12  O   UNL     1      10.803  -1.886  22.429  0.00  0.00    -0.365 OA
ATOM     13  H   UNL     1      10.432  -1.582  21.588  0.00  0.00    +0.213 HD
ENDBRANCH   1  12
BRANCH   6  14
ATOM     14  C   UNL     1       9.360  -4.821  25.763  0.00  0.00    +0.190 C 
BRANCH  14  15
ATOM     15  O   UNL     1      10.146  -5.667  24.924  0.00  0.00    -0.392 OA
ATOM     16  H   UNL     1      10.522  -5.082  24.236  0.00  0.00    +0.210 HD
ENDBRANCH  14  15
ENDBRANCH   6  14
TORSDOF 5
ENDMDL
MODEL 4
REMARK VINA RESULT:      -4.8      2.722      4.231
REMARK  Name = 
REMARK  5 active torsions:
REMARK  status: ('A' for Active; 'I' for Inactive)
REMARK    1  A    between atoms: C_2  and  O_3
REMARK    2  A    between atoms: C_5  and  C_7
REMARK    3  A    between atoms: C_7  and  O_8
REMARK    4  A    between atoms: C_9  and  O_11
REMARK    5  A    between atoms: C_12  and  O_14
REMARK                            x       y       z     vdW  Elec       q    Type
REMARK                         _______ _______ _______ _____ _____    ______ ____
ROOT
ATOM      1  C   UNL     1       7.123  -1.208  23.353  0.00  0.00    +0.284 C 
ATOM      2  C   UNL     1       8.242  -2.259  23.211  0.00  0.00    +0.252 C 
ATOM      3  F   UNL     1       8.090  -3.172  24.221  0.00  0.00    -0.237 F 
ATOM      4  C   UNL     1       9.616  -1.604  23.368  0.00  0.00    +0.184 C 
ATOM      5  C   UNL     1       9.750  -0.365  22.469  0.00  0.00    +0.177 C 
ATOM      6  C   UNL     1       8.580   0.589  22.767  0.00  0.00    +0.178 C 
ATOM      7  O   UNL     1       7.325  -0.064  22.530  0.00  0.00    -0.340 OA
ENDROOT
BRANCH   4   8
ATOM      8  O   UNL     1      10.667  -2.547  23.108  0.00  0.00    -0.386 OA
ATOM      9  H   UNL     1      11.108  -2.293  22.278  0.00  0.00    +0.210 HD
ENDBRANCH   4   8
BRANCH   5  10
ATOM     10  O   UNL     1       9.777  -0.803  21.104  0.00  0.00    -0.386 OA
ATOM     11  H   UNL     1       9.473  -0.083  20.522  0.00  0.00    +0.210 HD
ENDBRANCH   5  10
BRANCH   1  12
ATOM     12  O   UNL     1       5.871  -1.772  22.982  0.00  0.00    -0.365 OA
ATOM     13  H   UNL     1       5.890  -1.871  22.019  0.00  0.00    +0.213 HD
ENDBRANCH   1  12
BRANCH   6  14
ATOM     14  C   UNL     1       8.615   1.848  21.894  0.00  0.00    +0.190 C 
BRANCH  14  15
ATOM     15  O   UNL     1       9.961   2.117  21.505  0.00  0.00    -0.392 OA
ATOM     16  H   UNL     1       9.980   2.022  20.532  0.00  0.00    +0.210 HD
ENDBRANCH  14  15
ENDBRANCH   6  14
TORSDOF 5
ENDMDL
MODEL 5
REMARK VINA RESULT:      -4.7      1.840      3.276
REMARK  Name = 
REMARK  5 active torsions:
REMARK  status: ('A' for Active; 'I' for Inactive)
REMARK    1  A    between atoms: C_2  and  O_3
REMARK    2  A    between atoms: C_5  and  C_7
REMARK    3  A    between atoms: C_7  and  O_8
REMARK    4  A    between atoms: C_9  and  O_11
REMARK    5  A    between atoms: C_12  and  O_14
REMARK                            x       y       z     vdW  Elec       q    Type
REMARK                         _______ _______ _______ _____ _____    ______ ____
ROOT
ATOM      1  C   UNL     1       9.912   1.106  22.066  0.00  0.00    +0.284 C 
ATOM      2  C   UNL     1      10.079   1.439  23.561  0.00  0.00    +0.252 C 
ATOM      3  F   UNL     1      11.132   2.308  23.682  0.00  0.00    -0.237 F 
ATOM      4  C   UNL     1      10.413   0.176  24.359  0.00  0.00    +0.184 C 
ATOM      5  C   UNL     1       9.432  -0.962  24.038  0.00  0.00    +0.177 C 
ATOM      6  C   UNL     1       9.418  -1.186  22.516  0.00  0.00    +0.178 C 
ATOM      7  O   UNL     1       9.028   0.015  21.833  0.00  0.00    -0.340 OA
ENDROOT
BRANCH   4   8
ATOM      8  O   UNL     1      10.441   0.451  25.768  0.00  0.00    -0.386 OA
ATOM      9  H   UNL     1       9.591   0.853  26.019  0.00  0.00    +0.210 HD
ENDBRANCH   4   8
BRANCH   5  10
ATOM     10  O   UNL     1       8.145  -0.605  24.559  0.00  0.00    -0.386 OA
ATOM     11  H   UNL     1       7.563  -1.386  24.560  0.00  0.00    +0.210 HD
ENDBRANCH   5  10
BRANCH   1  12
ATOM     12  O   UNL     1       9.382   2.227  21.370  0.00  0.00    -0.365 OA
ATOM     13  H   UNL     1       8.464   2.007  21.154  0.00  0.00    +0.213 HD
ENDBRANCH   1  12
BRANCH   6  14
ATOM     14  C   UNL     1       8.444  -2.291  22.096  0.00  0.00    +0.190 C 
BRANCH  14  15
ATOM     15  O   UNL     1       8.333  -3.249  23.147  0.00  0.00    -0.392 OA
ATOM     16  H   UNL     1       9.194  -3.237  23.609  0.00  0.00    +0.210 HD
ENDBRANCH  14  15
ENDBRANCH   6  14
TORSDOF 5
ENDMDL
MODEL 6
REMARK VINA RESULT:      -4.6      2.103      2.777
REMARK  Name = 
REMARK  5 active torsions:
REMARK  status: ('A' for Active; 'I' for Inactive)
REMARK    1  A    between atoms: C_2  and  O_3
REMARK    2  A    between atoms: C_5  and  C_7
REMARK    3  A    between atoms: C_7  and  O_8
REMARK    4  A    between atoms: C_9  and  O_11
REMARK    5  A    between atoms: C_12  and  O_14
REMARK                            x       y       z     vdW  Elec       q    Type
REMARK                         _______ _______ _______ _____ _____    ______ ____
ROOT
ATOM      1  C   UNL     1       6.996   0.678  22.653  0.00  0.00    +0.284 C 
ATOM      2  C   UNL     1       8.017   1.808  22.417  0.00  0.00    +0.252 C 
ATOM      3  F   UNL     1       7.418   2.755  21.628  0.00  0.00    -0.237 F 
ATOM      4  C   UNL     1       9.243   1.276  21.671  0.00  0.00    +0.184 C 
ATOM      5  C   UNL     1       9.797   0.010  22.341  0.00  0.00    +0.177 C 
ATOM      6  C   UNL     1       8.662  -1.021  22.462  0.00  0.00    +0.178 C 
ATOM      7  O   UNL     1       7.576  -0.485  23.233  0.00  0.00    -0.340 OA
ENDROOT
BRANCH   4   8
ATOM      8  O   UNL     1      10.256   2.288  21.562  0.00  0.00    -0.386 OA
ATOM      9  H   UNL     1      11.058   1.880  21.191  0.00  0.00    +0.210 HD
ENDBRANCH   4   8
BRANCH   5  10
ATOM     10  O   UNL     1      10.351   0.379  23.611  0.00  0.00    -0.386 OA
ATOM     11  H   UNL     1      10.138   1.310  23.803  0.00  0.00    +0.210 HD
ENDBRANCH   5  10
BRANCH   1  12
ATOM     12  O   UNL     1       5.973   1.118  23.537  0.00  0.00    -0.365 OA
ATOM     13  H   UNL     1       6.190   0.756  24.409  0.00  0.00    +0.213 HD
ENDBRANCH   1  12
BRANCH   6  14
ATOM     14  C   UNL     1       9.116  -2.315  23.146  0.00  0.00    +0.190 C 
BRANCH  14  15
ATOM     15  O   UNL     1      10.526  -2.465  22.986  0.00  0.00    -0.392 OA
ATOM     16  H   UNL     1      10.812  -3.064  23.704  0.00  0.00    +0.210 HD
ENDBRANCH  14  15
ENDBRANCH   6  14
TORSDOF 5
ENDMDL
MODEL 7
REMARK VINA RESULT:      -4.6      2.318      3.768
REMARK  Name = 
REMARK  5 active torsions:
REMARK  status: ('A' for Active; 'I' for Inactive)
REMARK    1  A    between atoms: C_2  and  O_3
REMARK    2  A    between atoms: C_5  and  C_7
REMARK    3  A    between atoms: C_7  and  O_8
REMARK    4  A    between atoms: C_9  and  O_11
REMARK    5  A    between atoms: C_12  and  O_14
REMARK                            x       y       z     vdW  Elec       q    Type
REMARK                         _______ _______ _______ _____ _____    ______ ____
ROOT
ATOM      1  C   UNL     1       7.483   0.527  23.768  0.00  0.00    +0.284 C 
ATOM      2  C   UNL     1       7.991  -0.307  22.576  0.00  0.00    +0.252 C 
ATOM      3  F   UNL     1       7.688  -1.621  22.825  0.00  0.00    -0.237 F 
ATOM      4  C   UNL     1       9.512  -0.189  22.448  0.00  0.00    +0.184 C 
ATOM      5  C   UNL     1       9.960   1.281  22.469  0.00  0.00    +0.177 C 
ATOM      6  C   UNL     1       9.399   1.949  23.736  0.00  0.00    +0.178 C 
ATOM      7  O   UNL     1       7.967   1.866  23.757  0.00  0.00    -0.340 OA
ENDROOT
BRANCH   4   8
ATOM      8  O   UNL     1       9.981  -0.855  21.266  0.00  0.00    -0.386 OA
ATOM      9  H   UNL     1       9.344  -1.554  21.035  0.00  0.00    +0.210 HD
ENDBRANCH   4   8
BRANCH   5  10
ATOM     10  O   UNL     1       9.504   1.906  21.262  0.00  0.00    -0.386 OA
ATOM     11  H   UNL     1      10.200   1.854  20.583  0.00  0.00    +0.210 HD
ENDBRANCH   5  10
BRANCH   1  12
ATOM     12  O   UNL     1       6.063   0.599  23.745  0.00  0.00    -0.365 OA
ATOM     13  H   UNL     1       5.837   1.433  23.308  0.00  0.00    +0.213 HD
ENDBRANCH   1  12
BRANCH   6  14
ATOM     14  C   UNL     1       9.775   3.431  23.831  0.00  0.00    +0.190 C 
BRANCH  14  15
ATOM     15  O   UNL     1      10.938   3.677  23.040  0.00  0.00    -0.392 OA
ATOM     16  H   UNL     1      11.381   4.445  23.451  0.00  0.00    +0.210 HD
ENDBRANCH  14  15
ENDBRANCH   6  14
TORSDOF 5
ENDMDL
MODEL 8
REMARK VINA RESULT:      -4.6      2.236      3.618
REMARK  Name = 
REMARK  5 active torsions:
REMARK  status: ('A' for Active; 'I' for Inactive)
REMARK    1  A    between atoms: C_2  and  O_3
REMARK    2  A    between atoms: C_5  and  C_7
REMARK    3  A    between atoms: C_7  and  O_8
REMARK    4  A    between atoms: C_9  and  O_11
REMARK    5  A    between atoms: C_12  and  O_14
REMARK                            x       y       z     vdW  Elec       q    Type
REMARK                         _______ _______ _______ _____ _____    ______ ____
ROOT
ATOM      1  C   UNL     1      10.138   0.088  24.979  0.00  0.00    +0.284 C 
ATOM      2  C   UNL     1       9.688  -0.811  23.811  0.00  0.00    +0.252 C 
ATOM      3  F   UNL     1      10.198  -2.064  24.025  0.00  0.00    -0.237 F 
ATOM      4  C   UNL     1      10.250  -0.291  22.486  0.00  0.00    +0.184 C 
ATOM      5  C   UNL     1       9.973   1.211  22.314  0.00  0.00    +0.177 C 
ATOM      6  C   UNL     1      10.519   1.956  23.544  0.00  0.00    +0.178 C 
ATOM      7  O   UNL     1       9.898   1.471  24.743  0.00  0.00    -0.340 OA
ENDROOT
BRANCH   4   8
ATOM      8  O   UNL     1       9.731  -1.042  21.378  0.00  0.00    -0.386 OA
ATOM      9  H   UNL     1       8.761  -1.074  21.457  0.00  0.00    +0.210 HD
ENDBRANCH   4   8
BRANCH   5  10
ATOM     10  O   UNL     1       8.562   1.389  22.136  0.00  0.00    -0.386 OA
ATOM     11  H   UNL     1       8.282   2.224  22.551  0.00  0.00    +0.210 HD
ENDBRANCH   5  10
BRANCH   1  12
ATOM     12  O   UNL     1       9.435  -0.261  26.165  0.00  0.00    -0.365 OA
ATOM     13  H   UNL     1       8.560  -0.568  25.885  0.00  0.00    +0.213 HD
ENDBRANCH   1  12
BRANCH   6  14
ATOM     14  C   UNL     1      10.265   3.466  23.473  0.00  0.00    +0.190 C 
BRANCH  14  15
ATOM     15  O   UNL     1      11.418   4.116  22.943  0.00  0.00    -0.392 OA
ATOM     16  H   UNL     1      11.647   4.817  23.585  0.00  0.00    +0.210 HD
ENDBRANCH  14  15
ENDBRANCH   6  14
TORSDOF 5
ENDMDL
MODEL 9
REMARK VINA RESULT:      -4.6      4.508      5.573
REMARK  Name = 
REMARK  5 active torsions:
REMARK  status: ('A' for Active; 'I' for Inactive)
REMARK    1  A    between atoms: C_2  and  O_3
REMARK    2  A    between atoms: C_5  and  C_7
REMARK    3  A    between atoms: C_7  and  O_8
REMARK    4  A    between atoms: C_9  and  O_11
REMARK    5  A    between atoms: C_12  and  O_14
REMARK                            x       y       z     vdW  Elec       q    Type
REMARK                         _______ _______ _______ _____ _____    ______ ____
ROOT
ATOM      1  C   UNL     1       9.396  -4.759  24.837  0.00  0.00    +0.284 C 
ATOM      2  C   UNL     1       8.352  -4.307  25.875  0.00  0.00    +0.252 C 
ATOM      3  F   UNL     1       7.556  -5.384  26.166  0.00  0.00    -0.237 F 
ATOM      4  C   UNL     1       7.462  -3.204  25.296  0.00  0.00    +0.184 C 
ATOM      5  C   UNL     1       8.302  -2.083  24.667  0.00  0.00    +0.177 C 
ATOM      6  C   UNL     1       9.258  -2.703  23.633  0.00  0.00    +0.178 C 
ATOM      7  O   UNL     1      10.111  -3.674  24.256  0.00  0.00    -0.340 OA
ENDROOT
BRANCH   4   8
ATOM      8  O   UNL     1       6.571  -2.685  26.295  0.00  0.00    -0.386 OA
ATOM      9  H   UNL     1       5.734  -2.441  25.863  0.00  0.00    +0.210 HD
ENDBRANCH   4   8
BRANCH   5  10
ATOM     10  O   UNL     1       8.991  -1.394  25.719  0.00  0.00    -0.386 OA
ATOM     11  H   UNL     1       9.118  -0.461  25.472  0.00  0.00    +0.210 HD
ENDBRANCH   5  10
BRANCH   1  12
ATOM     12  O   UNL     1      10.358  -5.611  25.448  0.00  0.00    -0.365 OA
ATOM     13  H   UNL     1      10.703  -5.129  26.214  0.00  0.00    +0.213 HD
ENDBRANCH   1  12
BRANCH   6  14
ATOM     14  C   UNL     1      10.159  -1.657  22.968  0.00  0.00    +0.190 C 
BRANCH  14  15
ATOM     15  O   UNL     1       9.941  -1.672  21.558  0.00  0.00    -0.392 OA
ATOM     16  H   UNL     1       9.666  -0.763  21.323  0.00  0.00    +0.210 HD
ENDBRANCH  14  15
ENDBRANCH   6  14
TORSDOF 5
ENDMDL
