MODEL 1
REMARK VINA RESULT:      -5.0      0.000      0.000
REMARK  Name = 
REMARK  5 active torsions:
REMARK  status: ('A' for Active; 'I' for Inactive)
REMARK    1  A    between atoms: CA_2  and  N_3
REMARK    2  A    between atoms: CA_2  and  CB_4
REMARK    3  A    between atoms: CA_2  and  C_12
REMARK    4  A    between atoms: CB_4  and  CG_5
REMARK    5  A    between atoms: CZ_8  and  OH_9
REMARK                            x       y       z     vdW  Elec       q    Type
REMARK                         _______ _______ _______ _____ _____    ______ ____
ROOT
ATOM      1  CG  TYR A   1       9.779  -1.432  23.362  0.00  0.00    -0.045 A 
ATOM      2  CD2 TYR A   1      10.231  -0.319  24.084  0.00  0.00    +0.007 A 
ATOM      3  CE2 TYR A   1      10.330   0.929  23.468  0.00  0.00    +0.045 A 
ATOM      4  CZ  TYR A   1       9.977   1.068  22.132  0.00  0.00    +0.117 A 
ATOM      5  CE1 TYR A   1       9.504  -0.017  21.404  0.00  0.00    +0.045 A 
ATOM      6  CD1 TYR A   1       9.398  -1.266  22.022  0.00  0.00    +0.007 A 
ENDROOT
BRANCH   4   7
ATOM      7  OH  TYR A   1      10.112   2.301  21.565  0.00  0.00    -0.507 OA
ATOM      8  HH  TYR A   1      10.041   2.209  20.601  0.00  0.00    +0.292 HD
ENDBRANCH   4   7
BRANCH   1   9
ATOM      9  CB  TYR A   1       9.716  -2.792  24.023  0.00  0.00    +0.061 C 
BRANCH   9  10
ATOM     10  CA  TYR A   1       8.338  -3.464  23.920  0.00  0.00    +0.119 C 
BRANCH  10  11
ATOM     11  N   TYR A   1       7.323  -2.673  24.652  0.00  0.00    -0.321 NA
ATOM     12  H1  TYR A   1       7.070  -3.197  25.495  0.00  0.00    +0.119 HD
ATOM     13  H2  TYR A   1       7.784  -1.841  25.032  0.00  0.00    +0.119 HD
ENDBRANCH  10  11
BRANCH  10  14
ATOM     14  C   TYR A   1       8.387  -4.884  24.487  0.00  0.00    +0.242 C 
ATOM     15  O   TYR A   1       9.394  -5.590  24.484  0.00  0.00    -0.299 OA
ENDBRANCH  10  14
ENDBRANCH   9  10
ENDBRANCH   1   9
TORSDOF 5
ENDMDL
MODEL 2
REMARK VINA RESULT:      -5.0      0.070      1.397
REMARK  Name = 
REMARK  5 active torsions:
REMARK  status: ('A' for Active; 'I' for Inactive)
REMARK    1  A    between atoms: CA_2  and  N_3
REMARK    2  A    between atoms: CA_2  and  CB_4
REMARK    3  A    between atoms: CA_2  and  C_12
REMARK    4  A    between atoms: CB_4  and  CG_5
REMARK    5  A    between atoms: CZ_8  and  OH_9
REMARK                            x       y       z     vdW  Elec       q    Type
REMARK                         _______ _______ _______ _____ _____    ______ ____
ROOT
ATOM      1  CG  TYR A   1       9.840  -1.444  23.392  0.00  0.00    -0.045 A 
ATOM      2  CD2 TYR A   1       9.494  -1.286  22.043  0.00  0.00    +0.007 A 
ATOM      3  CE2 TYR A   1       9.563  -0.031  21.438  0.00  0.00    +0.045 A 
ATOM      4  CZ  TYR A   1       9.979   1.068  22.178  0.00  0.00    +0.117 A 
ATOM      5  CE1 TYR A   1      10.350   0.931  23.511  0.00  0.00    +0.045 A 
ATOM      6  CD1 TYR A   1      10.288  -0.328  24.115  0.00  0.00    +0.007 A 
ENDROOT
BRANCH   4   7
ATOM      7  OH  TYR A   1      10.008   2.280  21.553  0.00  0.00    -0.507 OA
ATOM      8  HH  TYR A   1       9.756   2.156  20.623  0.00  0.00    +0.292 HD
ENDBRANCH   4   7
BRANCH   1   9
ATOM      9  CB  TYR A   1       9.721  -2.799  24.055  0.00  0.00    +0.061 C 
BRANCH   9  10
ATOM     10  CA  TYR A   1       8.340  -3.452  23.877  0.00  0.00    +0.119 C 
BRANCH  10  11
ATOM     11  N   TYR A   1       7.303  -2.664  24.580  0.00  0.00    -0.321 NA
ATOM     12  H1  TYR A   1       7.711  -2.326  25.457  0.00  0.00    +0.119 HD
ATOM     13  H2  TYR A   1       7.153  -1.798  24.052  0.00  0.00    +0.119 HD
ENDBRANCH  10  11
BRANCH  10  14
ATOM     14  C   TYR A   1       8.348  -4.883  24.417  0.00  0.00    +0.242 C 
ATOM     15  O   TYR A   1       9.349  -5.597  24.453  0.00  0.00    -0.299 OA
ENDBRANCH  10  14
ENDBRANCH   9  10
ENDBRANCH   1   9
TORSDOF 5
ENDMDL
MODEL 3
REMARK VINA RESULT:      -4.9      1.821      2.017
REMARK  Name = 
REMARK  5 active torsions:
REMARK  status: ('A' for Active; 'I' for Inactive)
REMARK    1  A    between atoms: CA_2  and  N_3
REMARK    2  A    between atoms: CA_2  and  CB_4
REMARK    3  A    between atoms: CA_2  and  C_12
REMARK    4  A    between atoms: CB_4  and  CG_5
REMARK    5  A    between atoms: CZ_8  and  OH_9
REMARK                            x       y       z     vdW  Elec       q    Type
REMARK                         _______ _______ _______ _____ _____    ______ ____
ROOT
ATOM      1  CG  TYR A   1      10.220  -0.428  22.992  0.00  0.00    -0.045 A 
ATOM      2  CD2 TYR A   1      10.607   0.269  24.145  0.00  0.00    +0.007 A 
ATOM      3  CE2 TYR A   1      10.617   1.664  24.157  0.00  0.00    +0.045 A 
ATOM      4  CZ  TYR A   1      10.239   2.365  23.018  0.00  0.00    +0.117 A 
ATOM      5  CE1 TYR A   1       9.830   1.695  21.872  0.00  0.00    +0.045 A 
ATOM      6  CD1 TYR A   1       9.813   0.298  21.862  0.00  0.00    +0.007 A 
ENDROOT
BRANCH   4   7
ATOM      7  OH  TYR A   1      10.288   3.727  23.068  0.00  0.00    -0.507 OA
ATOM      8  HH  TYR A   1      10.882   4.043  22.368  0.00  0.00    +0.292 HD
ENDBRANCH   4   7
BRANCH   1   9
ATOM      9  CB  TYR A   1      10.254  -1.941  22.971  0.00  0.00    +0.061 C 
BRANCH   9  10
ATOM     10  CA  TYR A   1       9.316  -2.593  23.999  0.00  0.00    +0.119 C 
BRANCH  10  11
ATOM     11  N   TYR A   1       9.857  -3.899  24.436  0.00  0.00    -0.321 NA
ATOM     12  H1  TYR A   1      10.352  -4.312  23.639  0.00  0.00    +0.119 HD
ATOM     13  H2  TYR A   1      10.613  -3.720  25.104  0.00  0.00    +0.119 HD
ENDBRANCH  10  11
BRANCH  10  14
ATOM     14  C   TYR A   1       7.920  -2.791  23.405  0.00  0.00    +0.242 C 
ATOM     15  O   TYR A   1       7.692  -2.865  22.199  0.00  0.00    -0.299 OA
ENDBRANCH  10  14
ENDBRANCH   9  10
ENDBRANCH   1   9
TORSDOF 5
ENDMDL
MODEL 4
REMARK VINA RESULT:      -4.6      4.723      5.071
REMARK  Name = 
REMARK  5 active torsions:
REMARK  status: ('A' for Active; 'I' for Inactive)
REMARK    1  A    between atoms: CA_2  and  N_3
REMARK    2  A    between atoms: CA_2  and  CB_4
REMARK    3  A    between atoms: CA_2  and  C_12
REMARK    4  A    between atoms: CB_4  and  CG_5
REMARK    5  A    between atoms: CZ_8  and  OH_9
REMARK                            x       y       z     vdW  Elec       q    Type
REMARK                         _______ _______ _______ _____ _____    ______ ____
ROOT
ATOM      1  CG  TYR A   1       6.762  -4.390  24.127  0.00  0.00    -0.045 A 
ATOM      2  CD2 TYR A   1       5.885  -3.467  23.540  0.00  0.00    +0.007 A 
ATOM      3  CE2 TYR A   1       5.581  -3.548  22.180  0.00  0.00    +0.045 A 
ATOM      4  CZ  TYR A   1       6.151  -4.551  21.406  0.00  0.00    +0.117 A 
ATOM      5  CE1 TYR A   1       7.005  -5.490  21.972  0.00  0.00    +0.045 A 
ATOM      6  CD1 TYR A   1       7.303  -5.413  23.335  0.00  0.00    +0.007 A 
ENDROOT
BRANCH   4   7
ATOM      7  OH  TYR A   1       5.845  -4.577  20.077  0.00  0.00    -0.507 OA
ATOM      8  HH  TYR A   1       6.043  -3.707  19.695  0.00  0.00    +0.292 HD
ENDBRANCH   4   7
BRANCH   1   9
ATOM      9  CB  TYR A   1       7.122  -4.269  25.592  0.00  0.00    +0.061 C 
BRANCH   9  10
ATOM     10  CA  TYR A   1       8.102  -5.350  26.076  0.00  0.00    +0.119 C 
BRANCH  10  11
ATOM     11  N   TYR A   1       7.769  -5.767  27.457  0.00  0.00    -0.321 NA
ATOM     12  H1  TYR A   1       7.258  -6.653  27.398  0.00  0.00    +0.119 HD
ATOM     13  H2  TYR A   1       8.640  -6.038  27.924  0.00  0.00    +0.119 HD
ENDBRANCH  10  11
BRANCH  10  14
ATOM     14  C   TYR A   1       9.541  -4.832  26.031  0.00  0.00    +0.242 C 
ATOM     15  O   TYR A   1      10.281  -4.946  25.055  0.00  0.00    -0.299 OA
ENDBRANCH  10  14
ENDBRANCH   9  10
ENDBRANCH   1   9
TORSDOF 5
ENDMDL
MODEL 5
REMARK VINA RESULT:      -4.5      2.278      5.125
REMARK  Name = 
REMARK  5 active torsions:
REMARK  status: ('A' for Active; 'I' for Inactive)
REMARK    1  A    between atoms: CA_2  and  N_3
REMARK    2  A    between atoms: CA_2  and  CB_4
REMARK    3  A    between atoms: CA_2  and  C_12
REMARK    4  A    between atoms: CB_4  and  CG_5
REMARK    5  A    between atoms: CZ_8  and  OH_9
REMARK                            x       y       z     vdW  Elec       q    Type
REMARK                         _______ _______ _______ _____ _____    ______ ____
ROOT
ATOM      1  CG  TYR A   1       9.466  -1.613  22.763  0.00  0.00    -0.045 A 
ATOM      2  CD2 TYR A   1       8.262  -1.999  22.159  0.00  0.00    +0.007 A 
ATOM      3  CE2 TYR A   1       7.568  -3.120  22.618  0.00  0.00    +0.045 A 
ATOM      4  CZ  TYR A   1       8.075  -3.855  23.682  0.00  0.00    +0.117 A 
ATOM      5  CE1 TYR A   1       9.256  -3.477  24.311  0.00  0.00    +0.045 A 
ATOM      6  CD1 TYR A   1       9.946  -2.350  23.856  0.00  0.00    +0.007 A 
ENDROOT
BRANCH   4   7
ATOM      7  OH  TYR A   1       7.377  -4.956  24.081  0.00  0.00    -0.507 OA
ATOM      8  HH  TYR A   1       7.697  -5.725  23.581  0.00  0.00    +0.292 HD
ENDBRANCH   4   7
BRANCH   1   9
ATOM      9  CB  TYR A   1      10.236  -0.423  22.232  0.00  0.00    +0.061 C 
BRANCH   9  10
ATOM     10  CA  TYR A   1       9.662   0.931  22.679  0.00  0.00    +0.119 C 
BRANCH  10  11
ATOM     11  N   TYR A   1       9.784   1.927  21.590  0.00  0.00    -0.321 NA
ATOM     12  H1  TYR A   1       9.137   2.693  21.797  0.00  0.00    +0.119 HD
ATOM     13  H2  TYR A   1      10.701   2.376  21.674  0.00  0.00    +0.119 HD
ENDBRANCH  10  11
BRANCH  10  14
ATOM     14  C   TYR A   1      10.391   1.441  23.923  0.00  0.00    +0.242 C 
ATOM     15  O   TYR A   1      11.296   0.829  24.487  0.00  0.00    -0.299 OA
ENDBRANCH  10  14
ENDBRANCH   9  10
ENDBRANCH   1   9
TORSDOF 5
ENDMDL
MODEL 6
REMARK VINA RESULT:      -4.5      1.620      1.889
REMARK  Name = 
REMARK  5 active torsions:
REMARK  status: ('A' for Active; 'I' for Inactive)
REMARK    1  A    between atoms: CA_2  and  N_3
REMARK    2  A    between atoms: CA_2  and  CB_4
REMARK    3  A    between atoms: CA_2  and  C_12
REMARK    4  A    between atoms: CB_4  and  CG_5
REMARK    5  A    between atoms: CZ_8  and  OH_9
REMARK                            x       y       z     vdW  Elec       q    Type
REMARK                         _______ _______ _______ _____ _____    ______ ____
ROOT
ATOM      1  CG  TYR A   1       7.791  -1.224  22.705  0.00  0.00    -0.045 A 
ATOM      2  CD2 TYR A   1       7.290   0.059  22.961  0.00  0.00    +0.007 A 
ATOM      3  CE2 TYR A   1       7.980   1.188  22.519  0.00  0.00    +0.045 A 
ATOM      4  CZ  TYR A   1       9.171   1.037  21.819  0.00  0.00    +0.117 A 
ATOM      5  CE1 TYR A   1       9.674  -0.227  21.534  0.00  0.00    +0.045 A 
ATOM      6  CD1 TYR A   1       8.979  -1.357  21.971  0.00  0.00    +0.007 A 
ENDROOT
BRANCH   4   7
ATOM      7  OH  TYR A   1       9.824   2.168  21.428  0.00  0.00    -0.507 OA
ATOM      8  HH  TYR A   1       9.735   2.836  22.126  0.00  0.00    +0.292 HD
ENDBRANCH   4   7
BRANCH   1   9
ATOM      9  CB  TYR A   1       7.061  -2.443  23.226  0.00  0.00    +0.061 C 
BRANCH   9  10
ATOM     10  CA  TYR A   1       7.792  -3.766  22.947  0.00  0.00    +0.119 C 
BRANCH  10  11
ATOM     11  N   TYR A   1       6.874  -4.739  22.315  0.00  0.00    -0.321 NA
ATOM     12  H1  TYR A   1       6.346  -5.198  23.063  0.00  0.00    +0.119 HD
ATOM     13  H2  TYR A   1       6.150  -4.213  21.816  0.00  0.00    +0.119 HD
ENDBRANCH  10  11
BRANCH  10  14
ATOM     14  C   TYR A   1       8.351  -4.357  24.242  0.00  0.00    +0.242 C 
ATOM     15  O   TYR A   1       9.552  -4.459  24.488  0.00  0.00    -0.299 OA
ENDBRANCH  10  14
ENDBRANCH   9  10
ENDBRANCH   1   9
TORSDOF 5
ENDMDL
MODEL 7
REMARK VINA RESULT:      -4.4      1.884      2.460
REMARK  Name = 
REMARK  5 active torsions:
REMARK  status: ('A' for Active; 'I' for Inactive)
REMARK    1  A    between atoms: CA_2  and  N_3
REMARK    2  A    between atoms: CA_2  and  CB_4
REMARK    3  A    between atoms: CA_2  and  C_12
REMARK    4  A    between atoms: CB_4  and  CG_5
REMARK    5  A    between atoms: CZ_8  and  OH_9
REMARK                            x       y       z     vdW  Elec       q    Type
REMARK                         _______ _______ _______ _____ _____    ______ ____
ROOT
ATOM      1  CG  TYR A   1       9.618  -0.369  22.735  0.00  0.00    -0.045 A 
ATOM      2  CD2 TYR A   1       9.587   0.517  21.649  0.00  0.00    +0.007 A 
ATOM      3  CE2 TYR A   1       9.906   1.863  21.827  0.00  0.00    +0.045 A 
ATOM      4  CZ  TYR A   1      10.257   2.327  23.089  0.00  0.00    +0.117 A 
ATOM      5  CE1 TYR A   1      10.316   1.461  24.174  0.00  0.00    +0.045 A 
ATOM      6  CD1 TYR A   1      10.004   0.111  23.995  0.00  0.00    +0.007 A 
ENDROOT
BRANCH   4   7
ATOM      7  OH  TYR A   1      10.537   3.655  23.221  0.00  0.00    -0.507 OA
ATOM      8  HH  TYR A   1      11.447   3.750  23.546  0.00  0.00    +0.292 HD
ENDBRANCH   4   7
BRANCH   1   9
ATOM      9  CB  TYR A   1       9.228  -1.819  22.544  0.00  0.00    +0.061 C 
BRANCH   9  10
ATOM     10  CA  TYR A   1       8.702  -2.489  23.824  0.00  0.00    +0.119 C 
BRANCH  10  11
ATOM     11  N   TYR A   1       9.557  -3.640  24.191  0.00  0.00    -0.321 NA
ATOM     12  H1  TYR A   1       9.217  -4.456  23.673  0.00  0.00    +0.119 HD
ATOM     13  H2  TYR A   1      10.486  -3.486  23.787  0.00  0.00    +0.119 HD
ENDBRANCH  10  11
BRANCH  10  14
ATOM     14  C   TYR A   1       7.261  -2.963  23.630  0.00  0.00    +0.242 C 
ATOM     15  O   TYR A   1       6.559  -2.652  22.669  0.00  0.00    -0.299 OA
ENDBRANCH  10  14
ENDBRANCH   9  10
ENDBRANCH   1   9
TORSDOF 5
ENDMDL
MODEL 8
REMARK VINA RESULT:      -4.4      2.602      3.619
REMARK  Name = 
REMARK  5 active torsions:
REMARK  status: ('A' for Active; 'I' for Inactive)
REMARK    1  A    between atoms: CA_2  and  N_3
REMARK    2  A    between atoms: CA_2  and  CB_4
REMARK    3  A    between atoms: CA_2  and  C_12
REMARK    4  A    between atoms: CB_4  and  CG_5
REMARK    5  A    between atoms: CZ_8  and  OH_9
REMARK                            x       y       z     vdW  Elec       q    Type
REMARK                         _______ _______ _______ _____ _____    ______ ____
ROOT
ATOM      1  CG  TYR A   1       8.525  -4.180  24.157  0.00  0.00    -0.045 A 
ATOM      2  CD2 TYR A   1       7.635  -3.908  23.109  0.00  0.00    +0.007 A 
ATOM      3  CE2 TYR A   1       7.812  -2.779  22.308  0.00  0.00    +0.045 A 
ATOM      4  CZ  TYR A   1       8.878  -1.922  22.551  0.00  0.00    +0.117 A 
ATOM      5  CE1 TYR A   1       9.786  -2.186  23.570  0.00  0.00    +0.045 A 
ATOM      6  CD1 TYR A   1       9.613  -3.320  24.368  0.00  0.00    +0.007 A 
ENDROOT
BRANCH   4   7
ATOM      7  OH  TYR A   1       8.998  -0.819  21.759  0.00  0.00    -0.507 OA
ATOM      8  HH  TYR A   1       9.799  -0.335  22.019  0.00  0.00    +0.292 HD
ENDBRANCH   4   7
BRANCH   1   9
ATOM      9  CB  TYR A   1       8.302  -5.381  25.051  0.00  0.00    +0.061 C 
BRANCH   9  10
ATOM     10  CA  TYR A   1       7.338  -5.111  26.217  0.00  0.00    +0.119 C 
BRANCH  10  11
ATOM     11  N   TYR A   1       7.865  -5.700  27.469  0.00  0.00    -0.321 NA
ATOM     12  H1  TYR A   1       8.812  -6.039  27.277  0.00  0.00    +0.119 HD
ATOM     13  H2  TYR A   1       8.027  -4.936  28.132  0.00  0.00    +0.119 HD
ENDBRANCH  10  11
BRANCH  10  14
ATOM     14  C   TYR A   1       5.956  -5.695  25.919  0.00  0.00    +0.242 C 
ATOM     15  O   TYR A   1       5.523  -6.727  26.430  0.00  0.00    -0.299 OA
ENDBRANCH  10  14
ENDBRANCH   9  10
ENDBRANCH   1   9
TORSDOF 5
ENDMDL
MODEL 9
REMARK VINA RESULT:      -4.4      1.938      2.513
REMARK  Name = 
REMARK  5 active torsions:
REMARK  status: ('A' for Active; 'I' for Inactive)
REMARK    1  A    between atoms: CA_2  and  N_3
REMARK    2  A    between atoms: CA_2  and  CB_4
REMARK    3  A    between atoms: CA_2  and  C_12
REMARK    4  A    between atoms: CB_4  and  CG_5
REMARK    5  A    between atoms: CZ_8  and  OH_9
REMARK                            x       y       z     vdW  Elec       q    Type
REMARK                         _______ _______ _______ _____ _____    ______ ____
ROOT
ATOM      1  CG  TYR A   1       8.676  -2.837  23.639  0.00  0.00    -0.045 A 
ATOM      2  CD2 TYR A   1       7.618  -2.022  23.214  0.00  0.00    +0.007 A 
ATOM      3  CE2 TYR A   1       7.863  -0.726  22.760  0.00  0.00    +0.045 A 
ATOM      4  CZ  TYR A   1       9.166  -0.242  22.728  0.00  0.00    +0.117 A 
ATOM      5  CE1 TYR A   1      10.232  -1.041  23.123  0.00  0.00    +0.045 A 
ATOM      6  CD1 TYR A   1       9.987  -2.342  23.571  0.00  0.00    +0.007 A 
ENDROOT
BRANCH   4   7
ATOM      7  OH  TYR A   1       9.356   1.038  22.300  0.00  0.00    -0.507 OA
ATOM      8  HH  TYR A   1      10.059   1.041  21.631  0.00  0.00    +0.292 HD
ENDBRANCH   4   7
BRANCH   1   9
ATOM      9  CB  TYR A   1       8.398  -4.226  24.173  0.00  0.00    +0.061 C 
BRANCH   9  10
ATOM     10  CA  TYR A   1       9.185  -4.564  25.449  0.00  0.00    +0.119 C 
BRANCH  10  11
ATOM     11  N   TYR A   1       9.972  -5.804  25.257  0.00  0.00    -0.321 NA
ATOM     12  H1  TYR A   1       9.737  -6.179  24.333  0.00  0.00    +0.119 HD
ATOM     13  H2  TYR A   1      10.956  -5.540  25.150  0.00  0.00    +0.119 HD
ENDBRANCH  10  11
BRANCH  10  14
ATOM     14  C   TYR A   1       8.237  -4.739  26.636  0.00  0.00    +0.242 C 
ATOM     15  O   TYR A   1       7.739  -5.815  26.963  0.00  0.00    -0.299 OA
ENDBRANCH  10  14
ENDBRANCH   9  10
ENDBRANCH   1   9
TORSDOF 5
ENDMDL
