MODEL 1
REMARK VINA RESULT:      -3.0      0.000      0.000
REMARK  Name = 
REMARK  34 active torsions:
REMARK  status: ('A' for Active; 'I' for Inactive)
REMARK    1  A    between atoms: C_1  and  C_2
REMARK    2  A    between atoms: C_2  and  C_3
REMARK    3  A    between atoms: C_6  and  C_7
REMARK    4  A    between atoms: C_8  and  O_10
REMARK    5  A    between atoms: C_15  and  C_16
REMARK    6  A    between atoms: C_16  and  O_17
REMARK    7  A    between atoms: O_17  and  C_18
REMARK    8  A    between atoms: C_21  and  C_23
REMARK    9  A    between atoms: C_24  and  O_26
REMARK   10  A    between atoms: O_26  and  C_27
REMARK   11  A    between atoms: C_27  and  C_29
REMARK   12  A    between atoms: C_30  and  C_31
REMARK   13  A    between atoms: C_31  and  C_32
REMARK   14  A    between atoms: C_35  and  O_36
REMARK   15  A    between atoms: C_39  and  O_40
REMARK   16  A    between atoms: C_41  and  O_43
REMARK   17  A    between atoms: C_44  and  O_46
REMARK   18  A    between atoms: O_46  and  C_47
REMARK   19  A    between atoms: C_51  and  C_82
REMARK   20  A    between atoms: C_54  and  C_55
REMARK   21  A    between atoms: C_57  and  C_58
REMARK   22  A    between atoms: C_59  and  O_61
REMARK   23  A    between atoms: O_61  and  C_62
REMARK   24  A    between atoms: C_65  and  C_66
REMARK   25  A    between atoms: C_65  and  C_67
REMARK   26  A    between atoms: C_68  and  O_70
REMARK   27  A    between atoms: O_70  and  C_71
REMARK   28  A    between atoms: C_71  and  C_73
REMARK   29  A    between atoms: C_73  and  C_74
REMARK   30  A    between atoms: C_73  and  C_75
REMARK   31  A    between atoms: C_76  and  O_78
REMARK   32  A    between atoms: C_79  and  O_81
REMARK   33  A    between atoms: C_82  and  C_84
REMARK   34  A    between atoms: C_82  and  O_85
REMARK                            x       y       z     vdW  Elec       q    Type
REMARK                         _______ _______ _______ _____ _____    ______ ____
ROOT
ATOM      1  C   UNL     1       2.059  -4.376  29.680  0.00  0.00    +0.045 C 
ATOM      2  C   UNL     1       1.158  -3.148  28.526  0.00  0.00    +0.154 C 
ATOM      3  C   UNL     1       0.987  -1.162  29.005  0.00  0.00    -0.043 C 
ATOM      4  C   UNL     1       0.444  -1.059  30.485  0.00  0.00    +0.042 C 
ATOM      5  C   UNL     1       1.291   0.452  28.676  0.00  0.00    +0.004 C 
ATOM      6  C   UNL     1       1.642   2.304  28.893  0.00  0.00    -0.054 C 
ATOM      7  C   UNL     1       1.942   3.172  30.193  0.00  0.00    +0.043 C 
ATOM      8  C   UNL     1       1.391   3.374  27.942  0.00  0.00    -0.020 C 
ATOM      9  C   UNL     1       2.011   5.035  27.625  0.00  0.00    +0.074 C 
ATOM     10  C   UNL     1       2.072   5.621  26.049  0.00  0.00    +0.209 C 
ATOM     11  O   UNL     1       2.757   4.596  25.337  0.00  0.00    -0.455 OA
ATOM     12  C   UNL     1       2.007   3.505  25.127  0.00  0.00    +0.338 C 
ATOM     13  O   UNL     1       0.795   3.467  25.016  0.00  0.00    -0.245 OA
ATOM     14  C   UNL     1       2.903   2.415  25.451  0.00  0.00    +0.062 C 
ATOM     15  C   UNL     1       2.440   1.384  26.152  0.00  0.00    +0.012 C 
ATOM     16  C   UNL     1       3.402   0.552  26.790  0.00  0.00    -0.004 C 
ATOM     17  C   UNL     1       3.172  -0.721  27.015  0.00  0.00    -0.024 C 
ATOM     18  C   UNL     1       4.255  -1.488  27.646  0.00  0.00    +0.063 C 
ATOM     19  C   UNL     1       4.005  -1.793  29.114  0.00  0.00    +0.144 C 
ATOM     20  C   UNL     1       4.049  -3.248  29.377  0.00  0.00    -0.048 C 
ATOM     21  C   UNL     1       4.492  -4.108  28.162  0.00  0.00    +0.041 C 
ATOM     22  C   UNL     1       3.113  -3.571  30.292  0.00  0.00    -0.019 C 
ENDROOT
BRANCH  19  23
ATOM     23  O   UNL     1       4.586  -1.040  30.158  0.00  0.00    -0.387 OA
ATOM     24  H   UNL     1       5.486  -0.816  29.832  0.00  0.00    +0.210 HD
ENDBRANCH  19  23
BRANCH   1  26
ATOM     25  C   UNL     1       2.934  -7.260  28.874  0.00  0.00    +0.004 C 
ATOM     26  C   UNL     1       3.036  -5.850  29.840  0.00  0.00    +0.007 C 
ENDBRANCH   1  26
BRANCH  10  27
ATOM     27  C   UNL     1       2.831   6.882  25.410  0.00  0.00    +0.152 C 
ATOM     28  C   UNL     1       4.323   7.108  25.651  0.00  0.00    +0.041 C 
BRANCH  27  29
ATOM     29  O   UNL     1       2.554   7.098  24.024  0.00  0.00    -0.388 OA
ATOM     30  H   UNL     1       2.873   7.999  23.814  0.00  0.00    +0.210 HD
ENDBRANCH  27  29
ENDBRANCH  10  27
BRANCH  14  31
ATOM     31  C   UNL     1       4.311   2.454  25.028  0.00  0.00    +0.205 C 
BRANCH  31  32
ATOM     32  O   UNL     1       4.162   3.075  23.755  0.00  0.00    -0.344 OA
BRANCH  32  33
ATOM     33  C   UNL     1       5.348   3.306  23.047  0.00  0.00    +0.282 C 
ATOM     34  C   UNL     1       6.211   4.161  23.977  0.00  0.00    +0.206 C 
ATOM     35  C   UNL     1       7.551   4.388  23.289  0.00  0.00    +0.191 C 
ATOM     36  C   UNL     1       8.205   3.000  22.978  0.00  0.00    +0.236 C 
ATOM     37  C   UNL     1       7.236   2.279  21.990  0.00  0.00    +0.162 C 
ATOM     38  C   UNL     1       7.716   0.896  21.592  0.00  0.00    +0.042 C 
ATOM     39  O   UNL     1       5.947   2.096  22.593  0.00  0.00    -0.342 OA
BRANCH  35  40
ATOM     40  O   UNL     1       8.395   5.259  24.065  0.00  0.00    -0.385 OA
ATOM     41  H   UNL     1       8.741   5.888  23.502  0.00  0.00    +0.210 HD
ENDBRANCH  35  40
BRANCH  34  42
ATOM     42  O   UNL     1       6.399   3.445  25.220  0.00  0.00    -0.372 OA
ATOM     43  C   UNL     1       5.845   4.082  26.354  0.00  0.00    +0.194 C 
ENDBRANCH  34  42
BRANCH  36  44
ATOM     44  O   UNL     1       9.625   3.068  22.590  0.00  0.00    -0.452 OA
BRANCH  44  45
ATOM     45  C   UNL     1      10.494   2.331  23.350  0.00  0.00    +0.344 C 
ATOM     46  O   UNL     1      11.645   2.698  23.529  0.00  0.00    -0.245 OA
BRANCH  45  47
ATOM     47  C   UNL     1       9.790   1.230  24.034  0.00  0.00    +0.106 A 
ATOM     48  C   UNL     1       9.060   1.461  25.226  0.00  0.00    +0.153 A 
ATOM     49  C   UNL     1       8.667   0.379  26.019  0.00  0.00    +0.126 A 
ATOM     50 CL   UNL     1       7.928   0.692  27.554  0.00  0.00    -0.076 Cl
ATOM     51  C   UNL     1       8.950  -0.922  25.612  0.00  0.00    +0.157 A 
ATOM     52  C   UNL     1       9.575  -1.169  24.383  0.00  0.00    +0.088 A 
ATOM     53 CL   UNL     1       9.794  -2.820  23.910  0.00  0.00    -0.079 Cl
ATOM     54  C   UNL     1      10.027  -0.098  23.578  0.00  0.00    -0.008 A 
BRANCH  54  55
ATOM     55  C   UNL     1      10.676  -0.389  22.227  0.00  0.00    +0.034 C 
ATOM     56  C   UNL     1       9.925  -1.447  21.434  0.00  0.00    +0.009 C 
ENDBRANCH  54  55
BRANCH  51  57
ATOM     57  O   UNL     1       8.599  -1.965  26.432  0.00  0.00    -0.504 OA
ATOM     58  H   UNL     1       7.625  -2.001  26.475  0.00  0.00    +0.292 HD
ENDBRANCH  51  57
BRANCH  48  59
ATOM     59  O   UNL     1       8.737   2.726  25.626  0.00  0.00    -0.504 OA
ATOM     60  H   UNL     1       7.864   2.955  25.255  0.00  0.00    +0.292 HD
ENDBRANCH  48  59
ENDBRANCH  45  47
ENDBRANCH  44  45
ENDBRANCH  36  44
ENDBRANCH  32  33
ENDBRANCH  31  32
ENDBRANCH  14  31
BRANCH   2  61
ATOM     61  O   UNL     1       1.094  -4.114  26.970  0.00  0.00    -0.341 OA
BRANCH  61  62
ATOM     62  C   UNL     1       2.366  -5.057  26.027  0.00  0.00    +0.283 C 
ATOM     63  C   UNL     1       2.516  -4.561  24.572  0.00  0.00    +0.202 C 
ATOM     64  C   UNL     1       3.455  -5.440  23.616  0.00  0.00    +0.191 C 
ATOM     65  C   UNL     1       4.960  -5.195  23.787  0.00  0.00    +0.239 C 
ATOM     66  C   UNL     1       5.316  -5.654  25.231  0.00  0.00    +0.106 C 
ATOM     67  C   UNL     1       6.816  -5.030  25.418  0.00  0.00    +0.045 C 
ATOM     68  C   UNL     1       5.748  -7.177  25.232  0.00  0.00    +0.045 C 
ATOM     69  O   UNL     1       4.108  -5.183  26.367  0.00  0.00    -0.339 OA
BRANCH  64  70
ATOM     70  O   UNL     1       3.133  -5.075  22.268  0.00  0.00    -0.385 OA
ATOM     71  H   UNL     1       2.464  -4.367  22.316  0.00  0.00    +0.210 HD
ENDBRANCH  64  70
BRANCH  63  72
ATOM     72  O   UNL     1       3.076  -3.226  24.659  0.00  0.00    -0.384 OA
ATOM     73  H   UNL     1       2.983  -2.912  25.572  0.00  0.00    +0.210 HD
ENDBRANCH  63  72
BRANCH  65  74
ATOM     74  O   UNL     1       5.911  -5.580  22.581  0.00  0.00    -0.456 OA
BRANCH  74  75
ATOM     75  C   UNL     1       6.919  -4.851  22.019  0.00  0.00    +0.310 C 
ATOM     76  O   UNL     1       7.967  -5.397  21.689  0.00  0.00    -0.251 OA
BRANCH  75  77
ATOM     77  C   UNL     1       6.705  -3.308  21.721  0.00  0.00    +0.092 C 
ATOM     78  C   UNL     1       6.388  -2.293  22.821  0.00  0.00    +0.019 C 
ATOM     79  C   UNL     1       5.683  -3.072  20.591  0.00  0.00    +0.019 C 
ENDBRANCH  75  77
ENDBRANCH  74  75
ENDBRANCH  65  74
ENDBRANCH  61  62
ENDBRANCH   2  61
TORSDOF 22
ENDMDL
MODEL 2
REMARK VINA RESULT:      -2.8      2.331      4.391
REMARK  Name = 
REMARK  34 active torsions:
REMARK  status: ('A' for Active; 'I' for Inactive)
REMARK    1  A    between atoms: C_1  and  C_2
REMARK    2  A    between atoms: C_2  and  C_3
REMARK    3  A    between atoms: C_6  and  C_7
REMARK    4  A    between atoms: C_8  and  O_10
REMARK    5  A    between atoms: C_15  and  C_16
REMARK    6  A    between atoms: C_16  and  O_17
REMARK    7  A    between atoms: O_17  and  C_18
REMARK    8  A    between atoms: C_21  and  C_23
REMARK    9  A    between atoms: C_24  and  O_26
REMARK   10  A    between atoms: O_26  and  C_27
REMARK   11  A    between atoms: C_27  and  C_29
REMARK   12  A    between atoms: C_30  and  C_31
REMARK   13  A    between atoms: C_31  and  C_32
REMARK   14  A    between atoms: C_35  and  O_36
REMARK   15  A    between atoms: C_39  and  O_40
REMARK   16  A    between atoms: C_41  and  O_43
REMARK   17  A    between atoms: C_44  and  O_46
REMARK   18  A    between atoms: O_46  and  C_47
REMARK   19  A    between atoms: C_51  and  C_82
REMARK   20  A    between atoms: C_54  and  C_55
REMARK   21  A    between atoms: C_57  and  C_58
REMARK   22  A    between atoms: C_59  and  O_61
REMARK   23  A    between atoms: O_61  and  C_62
REMARK   24  A    between atoms: C_65  and  C_66
REMARK   25  A    between atoms: C_65  and  C_67
REMARK   26  A    between atoms: C_68  and  O_70
REMARK   27  A    between atoms: O_70  and  C_71
REMARK   28  A    between atoms: C_71  and  C_73
REMARK   29  A    between atoms: C_73  and  C_74
REMARK   30  A    between atoms: C_73  and  C_75
REMARK   31  A    between atoms: C_76  and  O_78
REMARK   32  A    between atoms: C_79  and  O_81
REMARK   33  A    between atoms: C_82  and  C_84
REMARK   34  A    between atoms: C_82  and  O_85
REMARK                            x       y       z     vdW  Elec       q    Type
REMARK                         _______ _______ _______ _____ _____    ______ ____
ROOT
ATOM      1  C   UNL     1       2.948  -2.858  29.532  0.00  0.00    +0.045 C 
ATOM      2  C   UNL     1       2.248  -1.247  28.782  0.00  0.00    +0.154 C 
ATOM      3  C   UNL     1       3.251   0.533  28.951  0.00  0.00    -0.043 C 
ATOM      4  C   UNL     1       3.646   0.733  30.466  0.00  0.00    +0.042 C 
ATOM      5  C   UNL     1       4.029   1.843  28.255  0.00  0.00    +0.004 C 
ATOM      6  C   UNL     1       5.225   3.288  27.966  0.00  0.00    -0.054 C 
ATOM      7  C   UNL     1       6.492   3.785  28.791  0.00  0.00    +0.043 C 
ATOM      8  C   UNL     1       5.037   4.438  27.098  0.00  0.00    -0.020 C 
ATOM      9  C   UNL     1       6.075   5.641  26.252  0.00  0.00    +0.074 C 
ATOM     10  C   UNL     1       5.585   6.282  24.775  0.00  0.00    +0.209 C 
ATOM     11  O   UNL     1       5.272   5.131  23.998  0.00  0.00    -0.455 OA
ATOM     12  C   UNL     1       4.125   4.540  24.363  0.00  0.00    +0.338 C 
ATOM     13  O   UNL     1       3.158   5.082  24.867  0.00  0.00    -0.245 OA
ATOM     14  C   UNL     1       4.463   3.133  24.382  0.00  0.00    +0.062 C 
ATOM     15  C   UNL     1       4.016   2.374  25.378  0.00  0.00    +0.012 C 
ATOM     16  C   UNL     1       4.677   1.131  25.591  0.00  0.00    -0.004 C 
ATOM     17  C   UNL     1       4.053   0.097  26.105  0.00  0.00    -0.024 C 
ATOM     18  C   UNL     1       4.829  -1.143  26.242  0.00  0.00    +0.063 C 
ATOM     19  C   UNL     1       5.251  -1.437  27.672  0.00  0.00    +0.144 C 
ATOM     20  C   UNL     1       4.767  -2.763  28.114  0.00  0.00    -0.048 C 
ATOM     21  C   UNL     1       4.095  -3.608  26.998  0.00  0.00    +0.041 C 
ATOM     22  C   UNL     1       4.395  -2.701  29.409  0.00  0.00    -0.019 C 
ENDROOT
BRANCH  19  23
ATOM     23  O   UNL     1       6.544  -1.148  28.160  0.00  0.00    -0.387 OA
ATOM     24  H   UNL     1       6.973  -2.026  28.265  0.00  0.00    +0.210 HD
ENDBRANCH  19  23
BRANCH   1  26
ATOM     25  C   UNL     1       4.408  -5.582  29.967  0.00  0.00    +0.004 C 
ATOM     26  C   UNL     1       3.092  -4.626  29.433  0.00  0.00    +0.007 C 
ENDBRANCH   1  26
BRANCH  10  27
ATOM     27  C   UNL     1       6.384   7.100  23.650  0.00  0.00    +0.152 C 
ATOM     28  C   UNL     1       7.910   7.060  23.583  0.00  0.00    +0.041 C 
BRANCH  27  29
ATOM     29  O   UNL     1       5.865   6.946  22.327  0.00  0.00    -0.388 OA
ATOM     30  H   UNL     1       4.899   7.089  22.388  0.00  0.00    +0.210 HD
ENDBRANCH  27  29
ENDBRANCH  10  27
BRANCH  14  31
ATOM     31  C   UNL     1       5.305   2.553  23.325  0.00  0.00    +0.205 C 
BRANCH  31  32
ATOM     32  O   UNL     1       6.519   2.388  24.050  0.00  0.00    -0.344 OA
BRANCH  32  33
ATOM     33  C   UNL     1       6.899   1.065  24.310  0.00  0.00    +0.282 C 
ATOM     34  C   UNL     1       7.493   0.552  22.997  0.00  0.00    +0.206 C 
ATOM     35  C   UNL     1       7.993  -0.868  23.237  0.00  0.00    +0.191 C 
ATOM     36  C   UNL     1       9.043  -0.847  24.398  0.00  0.00    +0.236 C 
ATOM     37  C   UNL     1       8.277  -0.352  25.664  0.00  0.00    +0.162 C 
ATOM     38  C   UNL     1       9.160  -0.257  26.894  0.00  0.00    +0.042 C 
ATOM     39  O   UNL     1       7.749   0.965  25.450  0.00  0.00    -0.342 OA
BRANCH  35  40
ATOM     40  O   UNL     1       8.493  -1.457  22.022  0.00  0.00    -0.385 OA
ATOM     41  H   UNL     1       8.947  -0.811  21.565  0.00  0.00    +0.210 HD
ENDBRANCH  35  40
BRANCH  34  42
ATOM     42  O   UNL     1       8.591   1.415  22.619  0.00  0.00    -0.372 OA
ATOM     43  C   UNL     1       8.614   1.768  21.250  0.00  0.00    +0.194 C 
ENDBRANCH  34  42
BRANCH  36  44
ATOM     44  O   UNL     1       9.825  -2.088  24.534  0.00  0.00    -0.452 OA
BRANCH  44  45
ATOM     45  C   UNL     1       9.347  -3.181  23.860  0.00  0.00    +0.344 C 
ATOM     46  O   UNL     1       9.893  -3.587  22.846  0.00  0.00    -0.245 OA
BRANCH  45  47
ATOM     47  C   UNL     1       8.285  -3.851  24.633  0.00  0.00    +0.106 A 
ATOM     48  C   UNL     1       8.523  -4.312  25.952  0.00  0.00    +0.153 A 
ATOM     49  C   UNL     1       7.627  -5.205  26.547  0.00  0.00    +0.126 A 
ATOM     50 CL   UNL     1       8.025  -5.887  28.088  0.00  0.00    -0.076 Cl
ATOM     51  C   UNL     1       6.481  -5.601  25.863  0.00  0.00    +0.157 A 
ATOM     52  C   UNL     1       6.178  -5.070  24.602  0.00  0.00    +0.088 A 
ATOM     53 CL   UNL     1       4.680  -5.538  23.871  0.00  0.00    -0.079 Cl
ATOM     54  C   UNL     1       7.083  -4.200  23.952  0.00  0.00    -0.008 A 
BRANCH  54  55
ATOM     55  C   UNL     1       6.719  -3.606  22.594  0.00  0.00    +0.034 C 
ATOM     56  C   UNL     1       7.010  -4.557  21.443  0.00  0.00    +0.009 C 
ENDBRANCH  54  55
BRANCH  51  57
ATOM     57  O   UNL     1       5.643  -6.517  26.446  0.00  0.00    -0.504 OA
ATOM     58  H   UNL     1       6.192  -7.164  26.930  0.00  0.00    +0.292 HD
ENDBRANCH  51  57
BRANCH  48  59
ATOM     59  O   UNL     1       9.621  -3.908  26.656  0.00  0.00    -0.504 OA
ATOM     60  H   UNL     1      10.420  -4.169  26.160  0.00  0.00    +0.292 HD
ENDBRANCH  48  59
ENDBRANCH  45  47
ENDBRANCH  44  45
ENDBRANCH  36  44
ENDBRANCH  32  33
ENDBRANCH  31  32
ENDBRANCH  14  31
BRANCH   2  61
ATOM     61  O   UNL     1       0.982  -1.915  27.638  0.00  0.00    -0.341 OA
BRANCH  61  62
ATOM     62  C   UNL     1       0.672  -3.599  26.957  0.00  0.00    +0.283 C 
ATOM     63  C   UNL     1       0.940  -3.686  25.438  0.00  0.00    +0.202 C 
ATOM     64  C   UNL     1       0.514  -5.053  24.720  0.00  0.00    +0.191 C 
ATOM     65  C   UNL     1       1.507  -6.210  24.894  0.00  0.00    +0.239 C 
ATOM     66  C   UNL     1       1.524  -6.544  26.415  0.00  0.00    +0.106 C 
ATOM     67  C   UNL     1       2.839  -7.511  26.528  0.00  0.00    +0.045 C 
ATOM     68  C   UNL     1       0.447  -7.658  26.743  0.00  0.00    +0.045 C 
ATOM     69  O   UNL     1       1.495  -5.119  27.383  0.00  0.00    -0.339 OA
BRANCH  64  70
ATOM     70  O   UNL     1       0.450  -4.780  23.314  0.00  0.00    -0.385 OA
ATOM     71  H   UNL     1      -0.474  -4.919  23.038  0.00  0.00    +0.210 HD
ENDBRANCH  64  70
BRANCH  63  72
ATOM     72  O   UNL     1       2.369  -3.508  25.272  0.00  0.00    -0.384 OA
ATOM     73  H   UNL     1       2.663  -2.800  25.867  0.00  0.00    +0.210 HD
ENDBRANCH  63  72
BRANCH  65  74
ATOM     74  O   UNL     1       1.468  -7.382  23.831  0.00  0.00    -0.456 OA
BRANCH  74  75
ATOM     75  C   UNL     1       1.659  -7.319  22.480  0.00  0.00    +0.310 C 
ATOM     76  O   UNL     1       1.961  -6.255  21.948  0.00  0.00    -0.251 OA
BRANCH  75  77
ATOM     77  C   UNL     1       1.564  -8.639  21.607  0.00  0.00    +0.092 C 
ATOM     78  C   UNL     1       1.214  -8.618  20.118  0.00  0.00    +0.019 C 
ATOM     79  C   UNL     1       0.658  -9.702  22.261  0.00  0.00    +0.019 C 
ENDBRANCH  75  77
ENDBRANCH  74  75
ENDBRANCH  65  74
ENDBRANCH  61  62
ENDBRANCH   2  61
TORSDOF 22
ENDMDL
MODEL 3
REMARK VINA RESULT:      -2.0      3.406      7.655
REMARK  Name = 
REMARK  34 active torsions:
REMARK  status: ('A' for Active; 'I' for Inactive)
REMARK    1  A    between atoms: C_1  and  C_2
REMARK    2  A    between atoms: C_2  and  C_3
REMARK    3  A    between atoms: C_6  and  C_7
REMARK    4  A    between atoms: C_8  and  O_10
REMARK    5  A    between atoms: C_15  and  C_16
REMARK    6  A    between atoms: C_16  and  O_17
REMARK    7  A    between atoms: O_17  and  C_18
REMARK    8  A    between atoms: C_21  and  C_23
REMARK    9  A    between atoms: C_24  and  O_26
REMARK   10  A    between atoms: O_26  and  C_27
REMARK   11  A    between atoms: C_27  and  C_29
REMARK   12  A    between atoms: C_30  and  C_31
REMARK   13  A    between atoms: C_31  and  C_32
REMARK   14  A    between atoms: C_35  and  O_36
REMARK   15  A    between atoms: C_39  and  O_40
REMARK   16  A    between atoms: C_41  and  O_43
REMARK   17  A    between atoms: C_44  and  O_46
REMARK   18  A    between atoms: O_46  and  C_47
REMARK   19  A    between atoms: C_51  and  C_82
REMARK   20  A    between atoms: C_54  and  C_55
REMARK   21  A    between atoms: C_57  and  C_58
REMARK   22  A    between atoms: C_59  and  O_61
REMARK   23  A    between atoms: O_61  and  C_62
REMARK   24  A    between atoms: C_65  and  C_66
REMARK   25  A    between atoms: C_65  and  C_67
REMARK   26  A    between atoms: C_68  and  O_70
REMARK   27  A    between atoms: O_70  and  C_71
REMARK   28  A    between atoms: C_71  and  C_73
REMARK   29  A    between atoms: C_73  and  C_74
REMARK   30  A    between atoms: C_73  and  C_75
REMARK   31  A    between atoms: C_76  and  O_78
REMARK   32  A    between atoms: C_79  and  O_81
REMARK   33  A    between atoms: C_82  and  C_84
REMARK   34  A    between atoms: C_82  and  O_85
REMARK                            x       y       z     vdW  Elec       q    Type
REMARK                         _______ _______ _______ _____ _____    ______ ____
ROOT
ATOM      1  C   UNL     1       8.114  -3.268  22.689  0.00  0.00    +0.045 C 
ATOM      2  C   UNL     1       8.535  -2.458  24.368  0.00  0.00    +0.154 C 
ATOM      3  C   UNL     1       8.952  -0.456  24.512  0.00  0.00    -0.043 C 
ATOM      4  C   UNL     1      10.032  -0.098  23.417  0.00  0.00    +0.042 C 
ATOM      5  C   UNL     1       8.601   1.070  25.107  0.00  0.00    +0.004 C 
ATOM      6  C   UNL     1       8.429   2.954  25.257  0.00  0.00    -0.054 C 
ATOM      7  C   UNL     1       8.693   4.121  24.208  0.00  0.00    +0.043 C 
ATOM      8  C   UNL     1       8.326   3.743  26.474  0.00  0.00    -0.020 C 
ATOM      9  C   UNL     1       7.692   5.359  26.953  0.00  0.00    +0.074 C 
ATOM     10  C   UNL     1       7.040   5.583  28.488  0.00  0.00    +0.209 C 
ATOM     11  O   UNL     1       6.095   4.525  28.608  0.00  0.00    -0.455 OA
ATOM     12  C   UNL     1       6.663   3.325  28.794  0.00  0.00    +0.338 C 
ATOM     13  O   UNL     1       7.733   3.104  29.331  0.00  0.00    -0.245 OA
ATOM     14  C   UNL     1       5.928   2.463  27.894  0.00  0.00    +0.062 C 
ATOM     15  C   UNL     1       6.590   1.562  27.175  0.00  0.00    +0.012 C 
ATOM     16  C   UNL     1       5.925   1.027  26.037  0.00  0.00    -0.004 C 
ATOM     17  C   UNL     1       6.179  -0.183  25.594  0.00  0.00    -0.024 C 
ATOM     18  C   UNL     1       5.402  -0.640  24.434  0.00  0.00    +0.063 C 
ATOM     19  C   UNL     1       6.195  -0.642  23.138  0.00  0.00    +0.144 C 
ATOM     20  C   UNL     1       6.206  -1.983  22.514  0.00  0.00    -0.048 C 
ATOM     21  C   UNL     1       5.292  -3.025  23.214  0.00  0.00    +0.041 C 
ATOM     22  C   UNL     1       7.413  -2.215  21.960  0.00  0.00    -0.019 C 
ENDROOT
BRANCH  19  23
ATOM     23  O   UNL     1       6.096   0.394  22.182  0.00  0.00    -0.387 OA
ATOM     24  H   UNL     1       5.153   0.387  21.904  0.00  0.00    +0.210 HD
ENDBRANCH  19  23
BRANCH   1  26
ATOM     25  C   UNL     1       6.704  -6.039  22.421  0.00  0.00    +0.004 C 
ATOM     26  C   UNL     1       7.225  -4.528  21.808  0.00  0.00    +0.007 C 
ENDBRANCH   1  26
BRANCH  10  27
ATOM     27  C   UNL     1       6.138   6.759  29.101  0.00  0.00    +0.152 C 
ATOM     28  C   UNL     1       4.632   6.809  28.848  0.00  0.00    +0.041 C 
BRANCH  27  29
ATOM     29  O   UNL     1       6.377   7.028  30.485  0.00  0.00    -0.388 OA
ATOM     30  H   UNL     1       6.594   7.980  30.550  0.00  0.00    +0.210 HD
ENDBRANCH  27  29
ENDBRANCH  10  27
BRANCH  14  31
ATOM     31  C   UNL     1       4.468   2.593  27.761  0.00  0.00    +0.205 C 
BRANCH  31  32
ATOM     32  O   UNL     1       4.386   3.952  27.346  0.00  0.00    -0.344 OA
BRANCH  32  33
ATOM     33  C   UNL     1       3.173   4.338  26.760  0.00  0.00    +0.282 C 
ATOM     34  C   UNL     1       3.554   5.350  25.678  0.00  0.00    +0.206 C 
ATOM     35  C   UNL     1       2.278   5.756  24.951  0.00  0.00    +0.191 C 
ATOM     36  C   UNL     1       1.601   4.475  24.357  0.00  0.00    +0.236 C 
ATOM     37  C   UNL     1       1.233   3.576  25.579  0.00  0.00    +0.162 C 
ATOM     38  C   UNL     1       0.574   2.270  25.178  0.00  0.00    +0.042 C 
ATOM     39  O   UNL     1       2.412   3.219  26.314  0.00  0.00    -0.342 OA
BRANCH  35  40
ATOM     40  O   UNL     1       2.539   6.775  23.968  0.00  0.00    -0.385 OA
ATOM     41  H   UNL     1       2.254   6.463  23.160  0.00  0.00    +0.210 HD
ENDBRANCH  35  40
BRANCH  34  42
ATOM     42  O   UNL     1       4.476   4.718  24.759  0.00  0.00    -0.372 OA
ATOM     43  C   UNL     1       5.515   5.559  24.299  0.00  0.00    +0.194 C 
ENDBRANCH  34  42
BRANCH  36  44
ATOM     44  O   UNL     1       0.530   4.748  23.383  0.00  0.00    -0.452 OA
BRANCH  44  45
ATOM     45  C   UNL     1       0.785   5.733  22.466  0.00  0.00    +0.344 C 
ATOM     46  O   UNL     1       0.820   6.909  22.794  0.00  0.00    -0.245 OA
BRANCH  45  47
ATOM     47  C   UNL     1       1.194   5.154  21.173  0.00  0.00    +0.106 A 
ATOM     48  C   UNL     1       0.881   5.801  19.951  0.00  0.00    +0.153 A 
ATOM     49  C   UNL     1       0.996   5.102  18.746  0.00  0.00    +0.126 A 
ATOM     50 CL   UNL     1       0.445   5.854  17.287  0.00  0.00    -0.076 Cl
ATOM     51  C   UNL     1       1.463   3.790  18.744  0.00  0.00    +0.157 A 
ATOM     52  C   UNL     1       1.879   3.174  19.932  0.00  0.00    +0.088 A 
ATOM     53 CL   UNL     1       2.544   1.580  19.821  0.00  0.00    -0.079 Cl
ATOM     54  C   UNL     1       1.734   3.836  21.174  0.00  0.00    -0.008 A 
BRANCH  54  55
ATOM     55  C   UNL     1       2.224   3.160  22.452  0.00  0.00    +0.034 C 
ATOM     56  C   UNL     1       3.730   2.944  22.458  0.00  0.00    +0.009 C 
ENDBRANCH  54  55
BRANCH  51  57
ATOM     57  O   UNL     1       1.519   3.107  17.555  0.00  0.00    -0.504 OA
ATOM     58  H   UNL     1       0.748   2.509  17.514  0.00  0.00    +0.292 HD
ENDBRANCH  51  57
BRANCH  48  59
ATOM     59  O   UNL     1       0.456   7.098  19.925  0.00  0.00    -0.504 OA
ATOM     60  H   UNL     1      -0.461   7.117  19.592  0.00  0.00    +0.292 HD
ENDBRANCH  48  59
ENDBRANCH  45  47
ENDBRANCH  44  45
ENDBRANCH  36  44
ENDBRANCH  32  33
ENDBRANCH  31  32
ENDBRANCH  14  31
BRANCH   2  61
ATOM     61  O   UNL     1       7.951  -3.745  25.533  0.00  0.00    -0.341 OA
BRANCH  61  62
ATOM     62  C   UNL     1       6.311  -4.094  26.297  0.00  0.00    +0.283 C 
ATOM     63  C   UNL     1       6.220  -5.518  26.888  0.00  0.00    +0.202 C 
ATOM     64  C   UNL     1       4.775  -5.983  27.400  0.00  0.00    +0.191 C 
ATOM     65  C   UNL     1       4.378  -5.453  28.785  0.00  0.00    +0.239 C 
ATOM     66  C   UNL     1       4.277  -3.906  28.647  0.00  0.00    +0.106 C 
ATOM     67  C   UNL     1       4.209  -3.436  30.212  0.00  0.00    +0.045 C 
ATOM     68  C   UNL     1       2.799  -3.486  28.264  0.00  0.00    +0.045 C 
ATOM     69  O   UNL     1       5.548  -3.266  27.676  0.00  0.00    -0.339 OA
BRANCH  64  70
ATOM     70  O   UNL     1       4.812  -7.412  27.506  0.00  0.00    -0.385 OA
ATOM     71  H   UNL     1       3.908  -7.735  27.343  0.00  0.00    +0.210 HD
ENDBRANCH  64  70
BRANCH  63  72
ATOM     72  O   UNL     1       7.133  -5.543  28.014  0.00  0.00    -0.384 OA
ATOM     73  H   UNL     1       6.627  -5.377  28.825  0.00  0.00    +0.210 HD
ENDBRANCH  63  72
BRANCH  65  74
ATOM     74  O   UNL     1       3.270  -6.247  29.588  0.00  0.00    -0.456 OA
BRANCH  74  75
ATOM     75  C   UNL     1       1.990  -6.542  29.217  0.00  0.00    +0.310 C 
ATOM     76  O   UNL     1       1.061  -5.826  29.579  0.00  0.00    -0.251 OA
BRANCH  75  77
ATOM     77  C   UNL     1       1.710  -7.771  28.254  0.00  0.00    +0.092 C 
ATOM     78  C   UNL     1       1.666  -7.630  26.732  0.00  0.00    +0.019 C 
ATOM     79  C   UNL     1       0.446  -8.553  28.665  0.00  0.00    +0.019 C 
ENDBRANCH  75  77
ENDBRANCH  74  75
ENDBRANCH  65  74
ENDBRANCH  61  62
ENDBRANCH   2  61
TORSDOF 22
ENDMDL
MODEL 4
REMARK VINA RESULT:      -1.9      3.117      9.014
REMARK  Name = 
REMARK  34 active torsions:
REMARK  status: ('A' for Active; 'I' for Inactive)
REMARK    1  A    between atoms: C_1  and  C_2
REMARK    2  A    between atoms: C_2  and  C_3
REMARK    3  A    between atoms: C_6  and  C_7
REMARK    4  A    between atoms: C_8  and  O_10
REMARK    5  A    between atoms: C_15  and  C_16
REMARK    6  A    between atoms: C_16  and  O_17
REMARK    7  A    between atoms: O_17  and  C_18
REMARK    8  A    between atoms: C_21  and  C_23
REMARK    9  A    between atoms: C_24  and  O_26
REMARK   10  A    between atoms: O_26  and  C_27
REMARK   11  A    between atoms: C_27  and  C_29
REMARK   12  A    between atoms: C_30  and  C_31
REMARK   13  A    between atoms: C_31  and  C_32
REMARK   14  A    between atoms: C_35  and  O_36
REMARK   15  A    between atoms: C_39  and  O_40
REMARK   16  A    between atoms: C_41  and  O_43
REMARK   17  A    between atoms: C_44  and  O_46
REMARK   18  A    between atoms: O_46  and  C_47
REMARK   19  A    between atoms: C_51  and  C_82
REMARK   20  A    between atoms: C_54  and  C_55
REMARK   21  A    between atoms: C_57  and  C_58
REMARK   22  A    between atoms: C_59  and  O_61
REMARK   23  A    between atoms: O_61  and  C_62
REMARK   24  A    between atoms: C_65  and  C_66
REMARK   25  A    between atoms: C_65  and  C_67
REMARK   26  A    between atoms: C_68  and  O_70
REMARK   27  A    between atoms: O_70  and  C_71
REMARK   28  A    between atoms: C_71  and  C_73
REMARK   29  A    between atoms: C_73  and  C_74
REMARK   30  A    between atoms: C_73  and  C_75
REMARK   31  A    between atoms: C_76  and  O_78
REMARK   32  A    between atoms: C_79  and  O_81
REMARK   33  A    between atoms: C_82  and  C_84
REMARK   34  A    between atoms: C_82  and  O_85
REMARK                            x       y       z     vdW  Elec       q    Type
REMARK                         _______ _______ _______ _____ _____    ______ ____
ROOT
ATOM      1  C   UNL     1       3.112   5.085  29.232  0.00  0.00    +0.045 C 
ATOM      2  C   UNL     1       3.573   5.085  27.378  0.00  0.00    +0.154 C 
ATOM      3  C   UNL     1       5.494   4.727  26.756  0.00  0.00    -0.043 C 
ATOM      4  C   UNL     1       6.460   5.660  27.586  0.00  0.00    +0.042 C 
ATOM      5  C   UNL     1       6.607   3.808  25.908  0.00  0.00    +0.004 C 
ATOM      6  C   UNL     1       8.217   2.948  25.388  0.00  0.00    -0.054 C 
ATOM      7  C   UNL     1       9.625   2.822  26.119  0.00  0.00    +0.043 C 
ATOM      8  C   UNL     1       8.594   2.494  24.059  0.00  0.00    -0.020 C 
ATOM      9  C   UNL     1       9.720   1.285  23.344  0.00  0.00    +0.074 C 
ATOM     10  C   UNL     1       9.318   0.513  21.905  0.00  0.00    +0.209 C 
ATOM     11  O   UNL     1       8.005   0.017  22.146  0.00  0.00    -0.455 OA
ATOM     12  C   UNL     1       7.068   0.975  22.139  0.00  0.00    +0.338 C 
ATOM     13  O   UNL     1       7.101   2.020  21.515  0.00  0.00    -0.245 OA
ATOM     14  C   UNL     1       6.257   0.659  23.297  0.00  0.00    +0.062 C 
ATOM     15  C   UNL     1       5.848   1.646  24.088  0.00  0.00    +0.012 C 
ATOM     16  C   UNL     1       5.417   1.288  25.397  0.00  0.00    -0.004 C 
ATOM     17  C   UNL     1       4.519   1.993  26.045  0.00  0.00    -0.024 C 
ATOM     18  C   UNL     1       4.126   1.505  27.374  0.00  0.00    +0.063 C 
ATOM     19  C   UNL     1       4.720   2.313  28.515  0.00  0.00    +0.144 C 
ATOM     20  C   UNL     1       3.663   2.851  29.401  0.00  0.00    -0.048 C 
ATOM     21  C   UNL     1       2.231   2.347  29.073  0.00  0.00    +0.041 C 
ATOM     22  C   UNL     1       4.005   4.088  29.814  0.00  0.00    -0.019 C 
ENDROOT
BRANCH  19  23
ATOM     23  O   UNL     1       5.861   1.894  29.234  0.00  0.00    -0.387 OA
ATOM     24  H   UNL     1       6.482   1.568  28.546  0.00  0.00    +0.210 HD
ENDBRANCH  19  23
BRANCH   1  26
ATOM     25  C   UNL     1       0.502   3.773  30.329  0.00  0.00    +0.004 C 
ATOM     26  C   UNL     1       1.884   4.772  30.477  0.00  0.00    +0.007 C 
ENDBRANCH   1  26
BRANCH  10  27
ATOM     27  C   UNL     1       9.921  -0.792  21.191  0.00  0.00    +0.152 C 
ATOM     28  C   UNL     1      10.855  -1.739  21.942  0.00  0.00    +0.041 C 
BRANCH  27  29
ATOM     29  O   UNL     1       8.959  -1.571  20.474  0.00  0.00    -0.388 OA
ATOM     30  H   UNL     1       9.443  -2.334  20.100  0.00  0.00    +0.210 HD
ENDBRANCH  27  29
ENDBRANCH  10  27
BRANCH  14  31
ATOM     31  C   UNL     1       5.906  -0.736  23.605  0.00  0.00    +0.205 C 
BRANCH  31  32
ATOM     32  O   UNL     1       6.876  -1.010  24.610  0.00  0.00    -0.344 OA
BRANCH  32  33
ATOM     33  C   UNL     1       7.121  -2.366  24.867  0.00  0.00    +0.282 C 
ATOM     34  C   UNL     1       6.617  -2.600  26.293  0.00  0.00    +0.206 C 
ATOM     35  C   UNL     1       6.790  -4.081  26.608  0.00  0.00    +0.191 C 
ATOM     36  C   UNL     1       5.999  -4.923  25.551  0.00  0.00    +0.236 C 
ATOM     37  C   UNL     1       6.659  -4.610  24.171  0.00  0.00    +0.162 C 
ATOM     38  C   UNL     1       5.998  -5.341  23.018  0.00  0.00    +0.042 C 
ATOM     39  O   UNL     1       6.557  -3.212  23.869  0.00  0.00    -0.342 OA
BRANCH  35  40
ATOM     40  O   UNL     1       6.416  -4.372  27.968  0.00  0.00    -0.385 OA
ATOM     41  H   UNL     1       6.028  -5.197  27.981  0.00  0.00    +0.210 HD
ENDBRANCH  35  40
BRANCH  34  42
ATOM     42  O   UNL     1       5.219  -2.234  26.354  0.00  0.00    -0.372 OA
ATOM     43  C   UNL     1       4.690  -2.156  27.664  0.00  0.00    +0.194 C 
ENDBRANCH  34  42
BRANCH  36  44
ATOM     44  O   UNL     1       5.831  -6.342  25.904  0.00  0.00    -0.452 OA
BRANCH  44  45
ATOM     45  C   UNL     1       4.559  -6.843  25.805  0.00  0.00    +0.344 C 
ATOM     46  O   UNL     1       4.327  -7.855  25.163  0.00  0.00    -0.245 OA
BRANCH  45  47
ATOM     47  C   UNL     1       3.642  -6.130  26.714  0.00  0.00    +0.106 A 
ATOM     48  C   UNL     1       3.535  -6.498  28.078  0.00  0.00    +0.153 A 
ATOM     49  C   UNL     1       2.459  -6.033  28.840  0.00  0.00    +0.126 A 
ATOM     50 CL   UNL     1       2.256  -6.631  30.452  0.00  0.00    -0.076 Cl
ATOM     51  C   UNL     1       1.523  -5.173  28.271  0.00  0.00    +0.157 A 
ATOM     52  C   UNL     1       1.675  -4.716  26.955  0.00  0.00    +0.088 A 
ATOM     53 CL   UNL     1       0.522  -3.568  26.365  0.00  0.00    -0.079 Cl
ATOM     54  C   UNL     1       2.726  -5.200  26.143  0.00  0.00    -0.008 A 
BRANCH  54  55
ATOM     55  C   UNL     1       2.893  -4.664  24.723  0.00  0.00    +0.034 C 
ATOM     56  C   UNL     1       1.706  -4.991  23.831  0.00  0.00    +0.009 C 
ENDBRANCH  54  55
BRANCH  51  57
ATOM     57  O   UNL     1       0.448  -4.772  29.023  0.00  0.00    -0.504 OA
ATOM     58  H   UNL     1      -0.352  -5.198  28.657  0.00  0.00    +0.292 HD
ENDBRANCH  51  57
BRANCH  48  59
ATOM     59  O   UNL     1       4.462  -7.309  28.668  0.00  0.00    -0.504 OA
ATOM     60  H   UNL     1       4.514  -7.081  29.616  0.00  0.00    +0.292 HD
ENDBRANCH  48  59
ENDBRANCH  45  47
ENDBRANCH  44  45
ENDBRANCH  36  44
ENDBRANCH  32  33
ENDBRANCH  31  32
ENDBRANCH  14  31
BRANCH   2  61
ATOM     61  O   UNL     1       1.917   4.951  26.606  0.00  0.00    -0.341 OA
BRANCH  61  62
ATOM     62  C   UNL     1       1.361   4.631  24.878  0.00  0.00    +0.283 C 
ATOM     63  C   UNL     1       1.384   5.902  24.001  0.00  0.00    +0.202 C 
ATOM     64  C   UNL     1       0.736   5.768  22.541  0.00  0.00    +0.191 C 
ATOM     65  C   UNL     1       1.640   5.107  21.492  0.00  0.00    +0.239 C 
ATOM     66  C   UNL     1       1.862   3.642  21.969  0.00  0.00    +0.106 C 
ATOM     67  C   UNL     1       3.090   3.161  21.001  0.00  0.00    +0.045 C 
ATOM     68  C   UNL     1       0.757   2.691  21.351  0.00  0.00    +0.045 C 
ATOM     69  O   UNL     1       2.106   3.554  23.672  0.00  0.00    -0.339 OA
BRANCH  64  70
ATOM     70  O   UNL     1       0.479   7.100  22.078  0.00  0.00    -0.385 OA
ATOM     71  H   UNL     1       0.839   7.162  21.174  0.00  0.00    +0.210 HD
ENDBRANCH  64  70
BRANCH  63  72
ATOM     72  O   UNL     1       2.780   6.261  23.849  0.00  0.00    -0.384 OA
ATOM     73  H   UNL     1       2.830   7.144  23.451  0.00  0.00    +0.210 HD
ENDBRANCH  63  72
BRANCH  65  74
ATOM     74  O   UNL     1       1.336   5.402  19.967  0.00  0.00    -0.456 OA
BRANCH  74  75
ATOM     75  C   UNL     1       1.432   4.561  18.896  0.00  0.00    +0.310 C 
ATOM     76  O   UNL     1       0.927   3.443  18.942  0.00  0.00    -0.251 OA
BRANCH  75  77
ATOM     77  C   UNL     1       2.132   5.056  17.562  0.00  0.00    +0.092 C 
ATOM     78  C   UNL     1       2.375   6.536  17.260  0.00  0.00    +0.019 C 
ATOM     79  C   UNL     1       1.478   4.448  16.305  0.00  0.00    +0.019 C 
ENDBRANCH  75  77
ENDBRANCH  74  75
ENDBRANCH  65  74
ENDBRANCH  61  62
ENDBRANCH   2  61
TORSDOF 22
ENDMDL
MODEL 5
REMARK VINA RESULT:      -1.7      2.461      7.718
REMARK  Name = 
REMARK  34 active torsions:
REMARK  status: ('A' for Active; 'I' for Inactive)
REMARK    1  A    between atoms: C_1  and  C_2
REMARK    2  A    between atoms: C_2  and  C_3
REMARK    3  A    between atoms: C_6  and  C_7
REMARK    4  A    between atoms: C_8  and  O_10
REMARK    5  A    between atoms: C_15  and  C_16
REMARK    6  A    between atoms: C_16  and  O_17
REMARK    7  A    between atoms: O_17  and  C_18
REMARK    8  A    between atoms: C_21  and  C_23
REMARK    9  A    between atoms: C_24  and  O_26
REMARK   10  A    between atoms: O_26  and  C_27
REMARK   11  A    between atoms: C_27  and  C_29
REMARK   12  A    between atoms: C_30  and  C_31
REMARK   13  A    between atoms: C_31  and  C_32
REMARK   14  A    between atoms: C_35  and  O_36
REMARK   15  A    between atoms: C_39  and  O_40
REMARK   16  A    between atoms: C_41  and  O_43
REMARK   17  A    between atoms: C_44  and  O_46
REMARK   18  A    between atoms: O_46  and  C_47
REMARK   19  A    between atoms: C_51  and  C_82
REMARK   20  A    between atoms: C_54  and  C_55
REMARK   21  A    between atoms: C_57  and  C_58
REMARK   22  A    between atoms: C_59  and  O_61
REMARK   23  A    between atoms: O_61  and  C_62
REMARK   24  A    between atoms: C_65  and  C_66
REMARK   25  A    between atoms: C_65  and  C_67
REMARK   26  A    between atoms: C_68  and  O_70
REMARK   27  A    between atoms: O_70  and  C_71
REMARK   28  A    between atoms: C_71  and  C_73
REMARK   29  A    between atoms: C_73  and  C_74
REMARK   30  A    between atoms: C_73  and  C_75
REMARK   31  A    between atoms: C_76  and  O_78
REMARK   32  A    between atoms: C_79  and  O_81
REMARK   33  A    between atoms: C_82  and  C_84
REMARK   34  A    between atoms: C_82  and  O_85
REMARK                            x       y       z     vdW  Elec       q    Type
REMARK                         _______ _______ _______ _____ _____    ______ ____
ROOT
ATOM      1  C   UNL     1      10.743  -0.240  22.926  0.00  0.00    +0.045 C 
ATOM      2  C   UNL     1       9.902   0.446  24.499  0.00  0.00    +0.154 C 
ATOM      3  C   UNL     1       9.297   2.401  24.619  0.00  0.00    -0.043 C 
ATOM      4  C   UNL     1      10.501   3.317  24.169  0.00  0.00    +0.042 C 
ATOM      5  C   UNL     1       8.089   3.548  24.801  0.00  0.00    +0.004 C 
ATOM      6  C   UNL     1       7.083   5.149  24.650  0.00  0.00    -0.054 C 
ATOM      7  C   UNL     1       7.297   6.445  23.751  0.00  0.00    +0.043 C 
ATOM      8  C   UNL     1       6.076   5.657  25.567  0.00  0.00    -0.020 C 
ATOM      9  C   UNL     1       4.670   6.781  25.499  0.00  0.00    +0.074 C 
ATOM     10  C   UNL     1       3.331   6.509  26.481  0.00  0.00    +0.209 C 
ATOM     11  O   UNL     1       3.003   5.147  26.231  0.00  0.00    -0.455 OA
ATOM     12  C   UNL     1       3.857   4.282  26.796  0.00  0.00    +0.338 C 
ATOM     13  O   UNL     1       4.506   4.462  27.810  0.00  0.00    -0.245 OA
ATOM     14  C   UNL     1       4.101   3.316  25.746  0.00  0.00    +0.062 C 
ATOM     15  C   UNL     1       5.340   2.878  25.546  0.00  0.00    +0.012 C 
ATOM     16  C   UNL     1       5.615   2.266  24.291  0.00  0.00    -0.004 C 
ATOM     17  C   UNL     1       6.539   1.344  24.160  0.00  0.00    -0.024 C 
ATOM     18  C   UNL     1       6.706   0.758  22.823  0.00  0.00    +0.063 C 
ATOM     19  C   UNL     1       7.942   1.258  22.093  0.00  0.00    +0.144 C 
ATOM     20  C   UNL     1       8.825   0.138  21.700  0.00  0.00    -0.048 C 
ATOM     21  C   UNL     1       8.232  -1.272  21.964  0.00  0.00    +0.041 C 
ATOM     22  C   UNL     1      10.115   0.508  21.840  0.00  0.00    -0.019 C 
ENDROOT
BRANCH  19  23
ATOM     23  O   UNL     1       7.890   2.272  21.111  0.00  0.00    -0.387 OA
ATOM     24  H   UNL     1       8.706   2.144  20.579  0.00  0.00    +0.210 HD
ENDBRANCH  19  23
BRANCH   1  26
ATOM     25  C   UNL     1       9.907  -2.848  21.432  0.00  0.00    +0.004 C 
ATOM     26  C   UNL     1      11.031  -1.629  21.858  0.00  0.00    +0.007 C 
ENDBRANCH   1  26
BRANCH  10  27
ATOM     27  C   UNL     1       1.843   7.108  26.443  0.00  0.00    +0.152 C 
ATOM     28  C   UNL     1       0.968   6.962  25.200  0.00  0.00    +0.041 C 
BRANCH  27  29
ATOM     29  O   UNL     1       1.054   6.803  27.596  0.00  0.00    -0.388 OA
ATOM     30  H   UNL     1       1.478   7.258  28.351  0.00  0.00    +0.210 HD
ENDBRANCH  27  29
ENDBRANCH  10  27
BRANCH  14  31
ATOM     31  C   UNL     1       2.997   2.839  24.899  0.00  0.00    +0.205 C 
BRANCH  31  32
ATOM     32  O   UNL     1       2.182   2.225  25.892  0.00  0.00    -0.344 OA
BRANCH  32  33
ATOM     33  C   UNL     1       2.820   1.277  26.703  0.00  0.00    +0.282 C 
ATOM     34  C   UNL     1       2.506   1.701  28.139  0.00  0.00    +0.206 C 
ATOM     35  C   UNL     1       3.115   0.663  29.073  0.00  0.00    +0.191 C 
ATOM     36  C   UNL     1       2.524  -0.745  28.725  0.00  0.00    +0.236 C 
ATOM     37  C   UNL     1       2.968  -1.048  27.260  0.00  0.00    +0.162 C 
ATOM     38  C   UNL     1       2.462  -2.384  26.750  0.00  0.00    +0.042 C 
ATOM     39  O   UNL     1       2.452  -0.057  26.361  0.00  0.00    -0.342 OA
BRANCH  35  40
ATOM     40  O   UNL     1       2.936   1.034  30.453  0.00  0.00    -0.385 OA
ATOM     41  H   UNL     1       2.081   0.824  30.690  0.00  0.00    +0.210 HD
ENDBRANCH  35  40
BRANCH  34  42
ATOM     42  O   UNL     1       1.069   1.744  28.303  0.00  0.00    -0.372 OA
ATOM     43  C   UNL     1       0.539   3.041  28.494  0.00  0.00    +0.194 C 
ENDBRANCH  34  42
BRANCH  36  44
ATOM     44  O   UNL     1       2.792  -1.785  29.733  0.00  0.00    -0.452 OA
BRANCH  44  45
ATOM     45  C   UNL     1       1.875  -2.800  29.811  0.00  0.00    +0.344 C 
ATOM     46  O   UNL     1       0.675  -2.571  29.781  0.00  0.00    -0.245 OA
BRANCH  45  47
ATOM     47  C   UNL     1       2.537  -4.114  29.721  0.00  0.00    +0.106 A 
ATOM     48  C   UNL     1       1.779  -5.309  29.639  0.00  0.00    +0.153 A 
ATOM     49  C   UNL     1       2.399  -6.541  29.865  0.00  0.00    +0.126 A 
ATOM     50 CL   UNL     1       1.423  -7.970  29.929  0.00  0.00    -0.076 Cl
ATOM     51  C   UNL     1       3.767  -6.595  30.122  0.00  0.00    +0.157 A 
ATOM     52  C   UNL     1       4.548  -5.433  30.100  0.00  0.00    +0.088 A 
ATOM     53 CL   UNL     1       6.255  -5.607  30.326  0.00  0.00    -0.079 Cl
ATOM     54  C   UNL     1       3.946  -4.166  29.919  0.00  0.00    -0.008 A 
BRANCH  54  55
ATOM     55  C   UNL     1       4.820  -2.915  29.864  0.00  0.00    +0.034 C 
ATOM     56  C   UNL     1       5.527  -2.754  28.527  0.00  0.00    +0.009 C 
ENDBRANCH  54  55
BRANCH  51  57
ATOM     57  O   UNL     1       4.344  -7.811  30.392  0.00  0.00    -0.504 OA
ATOM     58  H   UNL     1       4.138  -8.044  31.318  0.00  0.00    +0.292 HD
ENDBRANCH  51  57
BRANCH  48  59
ATOM     59  O   UNL     1       0.445  -5.283  29.351  0.00  0.00    -0.504 OA
ATOM     60  H   UNL     1       0.112  -6.201  29.343  0.00  0.00    +0.292 HD
ENDBRANCH  48  59
ENDBRANCH  45  47
ENDBRANCH  44  45
ENDBRANCH  36  44
ENDBRANCH  32  33
ENDBRANCH  31  32
ENDBRANCH  14  31
BRANCH   2  61
ATOM     61  O   UNL     1       9.438  -1.107  25.353  0.00  0.00    -0.341 OA
BRANCH  61  62
ATOM     62  C   UNL     1       8.763  -2.713  24.753  0.00  0.00    +0.283 C 
ATOM     63  C   UNL     1       8.120  -3.547  25.884  0.00  0.00    +0.202 C 
ATOM     64  C   UNL     1       7.679  -5.039  25.502  0.00  0.00    +0.191 C 
ATOM     65  C   UNL     1       6.344  -5.146  24.753  0.00  0.00    +0.239 C 
ATOM     66  C   UNL     1       6.551  -4.426  23.388  0.00  0.00    +0.106 C 
ATOM     67  C   UNL     1       5.013  -4.290  22.848  0.00  0.00    +0.045 C 
ATOM     68  C   UNL     1       7.040  -5.460  22.292  0.00  0.00    +0.045 C 
ATOM     69  O   UNL     1       7.468  -2.978  23.562  0.00  0.00    -0.339 OA
BRANCH  64  70
ATOM     70  O   UNL     1       7.513  -5.752  26.735  0.00  0.00    -0.385 OA
ATOM     71  H   UNL     1       7.925  -6.627  26.617  0.00  0.00    +0.210 HD
ENDBRANCH  64  70
BRANCH  63  72
ATOM     72  O   UNL     1       6.941  -2.815  26.302  0.00  0.00    -0.384 OA
ATOM     73  H   UNL     1       6.723  -2.164  25.617  0.00  0.00    +0.210 HD
ENDBRANCH  63  72
BRANCH  65  74
ATOM     74  O   UNL     1       5.578  -6.530  24.806  0.00  0.00    -0.456 OA
BRANCH  74  75
ATOM     75  C   UNL     1       4.560  -6.914  25.631  0.00  0.00    +0.310 C 
ATOM     76  O   UNL     1       4.776  -7.122  26.822  0.00  0.00    -0.251 OA
BRANCH  75  77
ATOM     77  C   UNL     1       3.082  -7.020  25.067  0.00  0.00    +0.092 C 
ATOM     78  C   UNL     1       2.001  -5.987  25.391  0.00  0.00    +0.019 C 
ATOM     79  C   UNL     1       2.461  -8.408  25.324  0.00  0.00    +0.019 C 
ENDBRANCH  75  77
ENDBRANCH  74  75
ENDBRANCH  65  74
ENDBRANCH  61  62
ENDBRANCH   2  61
TORSDOF 22
ENDMDL
MODEL 6
REMARK VINA RESULT:      -0.4      2.248      7.589
REMARK  Name = 
REMARK  34 active torsions:
REMARK  status: ('A' for Active; 'I' for Inactive)
REMARK    1  A    between atoms: C_1  and  C_2
REMARK    2  A    between atoms: C_2  and  C_3
REMARK    3  A    between atoms: C_6  and  C_7
REMARK    4  A    between atoms: C_8  and  O_10
REMARK    5  A    between atoms: C_15  and  C_16
REMARK    6  A    between atoms: C_16  and  O_17
REMARK    7  A    between atoms: O_17  and  C_18
REMARK    8  A    between atoms: C_21  and  C_23
REMARK    9  A    between atoms: C_24  and  O_26
REMARK   10  A    between atoms: O_26  and  C_27
REMARK   11  A    between atoms: C_27  and  C_29
REMARK   12  A    between atoms: C_30  and  C_31
REMARK   13  A    between atoms: C_31  and  C_32
REMARK   14  A    between atoms: C_35  and  O_36
REMARK   15  A    between atoms: C_39  and  O_40
REMARK   16  A    between atoms: C_41  and  O_43
REMARK   17  A    between atoms: C_44  and  O_46
REMARK   18  A    between atoms: O_46  and  C_47
REMARK   19  A    between atoms: C_51  and  C_82
REMARK   20  A    between atoms: C_54  and  C_55
REMARK   21  A    between atoms: C_57  and  C_58
REMARK   22  A    between atoms: C_59  and  O_61
REMARK   23  A    between atoms: O_61  and  C_62
REMARK   24  A    between atoms: C_65  and  C_66
REMARK   25  A    between atoms: C_65  and  C_67
REMARK   26  A    between atoms: C_68  and  O_70
REMARK   27  A    between atoms: O_70  and  C_71
REMARK   28  A    between atoms: C_71  and  C_73
REMARK   29  A    between atoms: C_73  and  C_74
REMARK   30  A    between atoms: C_73  and  C_75
REMARK   31  A    between atoms: C_76  and  O_78
REMARK   32  A    between atoms: C_79  and  O_81
REMARK   33  A    between atoms: C_82  and  C_84
REMARK   34  A    between atoms: C_82  and  O_85
REMARK                            x       y       z     vdW  Elec       q    Type
REMARK                         _______ _______ _______ _____ _____    ______ ____
ROOT
ATOM      1  C   UNL     1      10.715  -0.299  22.952  0.00  0.00    +0.045 C 
ATOM      2  C   UNL     1       9.889   0.353  24.547  0.00  0.00    +0.154 C 
ATOM      3  C   UNL     1       9.322   2.315  24.729  0.00  0.00    -0.043 C 
ATOM      4  C   UNL     1      10.544   3.221  24.307  0.00  0.00    +0.042 C 
ATOM      5  C   UNL     1       8.138   3.479  24.949  0.00  0.00    +0.004 C 
ATOM      6  C   UNL     1       7.163   5.104  24.849  0.00  0.00    -0.054 C 
ATOM      7  C   UNL     1       7.402   6.423  23.991  0.00  0.00    +0.043 C 
ATOM      8  C   UNL     1       6.167   5.602  25.784  0.00  0.00    -0.020 C 
ATOM      9  C   UNL     1       4.784   6.755  25.753  0.00  0.00    +0.074 C 
ATOM     10  C   UNL     1       3.441   6.479  26.727  0.00  0.00    +0.209 C 
ATOM     11  O   UNL     1       3.085   5.132  26.434  0.00  0.00    -0.455 OA
ATOM     12  C   UNL     1       3.922   4.233  26.971  0.00  0.00    +0.338 C 
ATOM     13  O   UNL     1       4.575   4.368  27.990  0.00  0.00    -0.245 OA
ATOM     14  C   UNL     1       4.147   3.296  25.891  0.00  0.00    +0.062 C 
ATOM     15  C   UNL     1       5.377   2.840  25.675  0.00  0.00    +0.012 C 
ATOM     16  C   UNL     1       5.638   2.263  24.401  0.00  0.00    -0.004 C 
ATOM     17  C   UNL     1       6.544   1.327  24.240  0.00  0.00    -0.024 C 
ATOM     18  C   UNL     1       6.699   0.781  22.885  0.00  0.00    +0.063 C 
ATOM     19  C   UNL     1       7.944   1.279  22.170  0.00  0.00    +0.144 C 
ATOM     20  C   UNL     1       8.805   0.155  21.740  0.00  0.00    -0.048 C 
ATOM     21  C   UNL     1       8.184  -1.251  21.960  0.00  0.00    +0.041 C 
ATOM     22  C   UNL     1      10.101   0.494  21.891  0.00  0.00    -0.019 C 
ENDROOT
BRANCH  19  23
ATOM     23  O   UNL     1       7.911   2.324  21.221  0.00  0.00    -0.387 OA
ATOM     24  H   UNL     1       8.813   2.714  21.249  0.00  0.00    +0.210 HD
ENDBRANCH  19  23
BRANCH   1  26
ATOM     25  C   UNL     1      12.474  -2.216  21.229  0.00  0.00    +0.004 C 
ATOM     26  C   UNL     1      10.975  -1.659  21.840  0.00  0.00    +0.007 C 
ENDBRANCH   1  26
BRANCH  10  27
ATOM     27  C   UNL     1       1.965   7.108  26.710  0.00  0.00    +0.152 C 
ATOM     28  C   UNL     1       1.029   6.889  25.523  0.00  0.00    +0.041 C 
BRANCH  27  29
ATOM     29  O   UNL     1       1.224   6.910  27.918  0.00  0.00    -0.388 OA
ATOM     30  H   UNL     1       0.539   7.609  27.941  0.00  0.00    +0.210 HD
ENDBRANCH  27  29
ENDBRANCH  10  27
BRANCH  14  31
ATOM     31  C   UNL     1       3.033   2.868  25.030  0.00  0.00    +0.205 C 
BRANCH  31  32
ATOM     32  O   UNL     1       2.175   2.299  26.014  0.00  0.00    -0.344 OA
BRANCH  32  33
ATOM     33  C   UNL     1       2.712   1.233  26.747  0.00  0.00    +0.282 C 
ATOM     34  C   UNL     1       2.483   1.600  28.215  0.00  0.00    +0.206 C 
ATOM     35  C   UNL     1       2.983   0.439  29.067  0.00  0.00    +0.191 C 
ATOM     36  C   UNL     1       2.219  -0.863  28.652  0.00  0.00    +0.236 C 
ATOM     37  C   UNL     1       2.591  -1.124  27.159  0.00  0.00    +0.162 C 
ATOM     38  C   UNL     1       1.917  -2.355  26.585  0.00  0.00    +0.042 C 
ATOM     39  O   UNL     1       2.178  -0.023  26.337  0.00  0.00    -0.342 OA
BRANCH  35  40
ATOM     40  O   UNL     1       2.881   0.741  30.471  0.00  0.00    -0.385 OA
ATOM     41  H   UNL     1       1.996   0.801  30.680  0.00  0.00    +0.210 HD
ENDBRANCH  35  40
BRANCH  34  42
ATOM     42  O   UNL     1       1.066   1.802  28.424  0.00  0.00    -0.372 OA
ATOM     43  C   UNL     1       0.576   3.044  27.958  0.00  0.00    +0.194 C 
ENDBRANCH  34  42
BRANCH  36  44
ATOM     44  O   UNL     1       2.382  -1.990  29.587  0.00  0.00    -0.452 OA
BRANCH  44  45
ATOM     45  C   UNL     1       1.706  -3.139  29.271  0.00  0.00    +0.344 C 
ATOM     46  O   UNL     1       0.487  -3.155  29.198  0.00  0.00    -0.245 OA
BRANCH  45  47
ATOM     47  C   UNL     1       2.641  -4.200  28.854  0.00  0.00    +0.106 A 
ATOM     48  C   UNL     1       4.026  -3.938  28.714  0.00  0.00    +0.153 A 
ATOM     49  C   UNL     1       4.839  -4.848  28.031  0.00  0.00    +0.126 A 
ATOM     50 CL   UNL     1       6.490  -4.427  27.723  0.00  0.00    -0.076 Cl
ATOM     51  C   UNL     1       4.295  -6.030  27.534  0.00  0.00    +0.157 A 
ATOM     52  C   UNL     1       2.951  -6.352  27.759  0.00  0.00    +0.088 A 
ATOM     53 CL   UNL     1       2.387  -7.889  27.196  0.00  0.00    -0.079 Cl
ATOM     54  C   UNL     1       2.090  -5.435  28.406  0.00  0.00    -0.008 A 
BRANCH  54  55
ATOM     55  C   UNL     1       0.637  -5.820  28.672  0.00  0.00    +0.034 C 
ATOM     56  C   UNL     1       0.508  -6.965  29.665  0.00  0.00    +0.009 C 
ENDBRANCH  54  55
BRANCH  51  57
ATOM     57  O   UNL     1       5.101  -6.883  26.822  0.00  0.00    -0.504 OA
ATOM     58  H   UNL     1       4.602  -7.188  26.041  0.00  0.00    +0.292 HD
ENDBRANCH  51  57
BRANCH  48  59
ATOM     59  O   UNL     1       4.589  -2.804  29.226  0.00  0.00    -0.504 OA
ATOM     60  H   UNL     1       3.973  -2.060  29.080  0.00  0.00    +0.292 HD
ENDBRANCH  48  59
ENDBRANCH  45  47
ENDBRANCH  44  45
ENDBRANCH  36  44
ENDBRANCH  32  33
ENDBRANCH  31  32
ENDBRANCH  14  31
BRANCH   2  61
ATOM     61  O   UNL     1       9.395  -1.217  25.351  0.00  0.00    -0.341 OA
BRANCH  61  62
ATOM     62  C   UNL     1       8.507  -2.712  24.742  0.00  0.00    +0.283 C 
ATOM     63  C   UNL     1       6.976  -2.609  24.921  0.00  0.00    +0.202 C 
ATOM     64  C   UNL     1       6.134  -3.935  24.602  0.00  0.00    +0.191 C 
ATOM     65  C   UNL     1       5.877  -4.193  23.111  0.00  0.00    +0.239 C 
ATOM     66  C   UNL     1       7.272  -4.438  22.465  0.00  0.00    +0.106 C 
ATOM     67  C   UNL     1       6.920  -4.344  20.870  0.00  0.00    +0.045 C 
ATOM     68  C   UNL     1       7.622  -5.982  22.486  0.00  0.00    +0.045 C 
ATOM     69  O   UNL     1       8.462  -3.358  23.084  0.00  0.00    -0.339 OA
BRANCH  64  70
ATOM     70  O   UNL     1       4.849  -3.767  25.214  0.00  0.00    -0.385 OA
ATOM     71  H   UNL     1       4.599  -4.628  25.595  0.00  0.00    +0.210 HD
ENDBRANCH  64  70
BRANCH  63  72
ATOM     72  O   UNL     1       6.537  -1.561  24.021  0.00  0.00    -0.384 OA
ATOM     73  H   UNL     1       7.028  -0.751  24.228  0.00  0.00    +0.210 HD
ENDBRANCH  63  72
BRANCH  65  74
ATOM     74  O   UNL     1       4.655  -5.121  22.724  0.00  0.00    -0.456 OA
BRANCH  74  75
ATOM     75  C   UNL     1       3.985  -6.024  23.500  0.00  0.00    +0.310 C 
ATOM     76  O   UNL     1       4.604  -6.876  24.129  0.00  0.00    -0.251 OA
BRANCH  75  77
ATOM     77  C   UNL     1       2.410  -5.922  23.647  0.00  0.00    +0.092 C 
ATOM     78  C   UNL     1       1.731  -4.866  24.520  0.00  0.00    +0.019 C 
ATOM     79  C   UNL     1       1.774  -7.278  24.016  0.00  0.00    +0.019 C 
ENDBRANCH  75  77
ENDBRANCH  74  75
ENDBRANCH  65  74
ENDBRANCH  61  62
ENDBRANCH   2  61
TORSDOF 22
ENDMDL
