MODEL 1
REMARK VINA RESULT:      -6.3      0.000      0.000
REMARK  Name = 
REMARK  12 active torsions:
REMARK  status: ('A' for Active; 'I' for Inactive)
REMARK    1  A    between atoms: CA_2  and  CB_3
REMARK    2  A    between atoms: CA_2  and  N_4
REMARK    3  A    between atoms: CA_2  and  C_23
REMARK    4  A    between atoms: C_5  and  C_7
REMARK    5  A    between atoms: C_7  and  C_8
REMARK    6  A    between atoms: C_8  and  C_9
REMARK    7  A    between atoms: C_9  and  P_10
REMARK    8  A    between atoms: P_10  and  O_11
REMARK    9  A    between atoms: P_10  and  O_13
REMARK   10  A    between atoms: O_13  and  C_14
REMARK   11  A    between atoms: C_17  and  N_20
REMARK   12  A    between atoms: C_23  and  O_24
REMARK                            x       y       z     vdW  Elec       q    Type
REMARK                         _______ _______ _______ _____ _____    ______ ____
ROOT
ATOM      1  P   UNK A   0       8.745  -4.041  24.500  0.00  0.00    +0.379 P 
ATOM      2  O   UNK A   0       8.635  -5.430  23.953  0.00  0.00    -0.244 OA
ENDROOT
BRANCH   1   3
ATOM      3  O   UNK A   0       7.530  -3.124  23.968  0.00  0.00    -0.315 OA
ATOM      4  H   UNK A   0       7.797  -2.585  23.200  0.00  0.00    +0.221 HD
ENDBRANCH   1   3
BRANCH   1   5
ATOM      5  C   UNK A   0       8.636  -3.881  26.288  0.00  0.00    +0.141 C 
BRANCH   5   6
ATOM      6  C   UNK A   0       7.900  -5.079  26.882  0.00  0.00    +0.022 C 
BRANCH   6   7
ATOM      7  C   UNK A   0       6.393  -4.900  27.068  0.00  0.00    +0.096 C 
BRANCH   7  10
ATOM      8  N   ALA A   1       5.438  -5.136  24.828  0.00  0.00    -0.303 N 
ATOM      9  H   ALA A   1       5.725  -4.179  24.653  0.00  0.00    +0.149 HD
ATOM     10  C   UNK A   0       5.665  -5.747  26.036  0.00  0.00    +0.214 C 
ATOM     11  O   UNK A   0       5.300  -6.898  26.252  0.00  0.00    -0.276 OA
BRANCH   8  12
ATOM     12  CA  ALA A   1       4.771  -5.865  23.752  0.00  0.00    +0.178 C 
ATOM     13  CB  ALA A   1       3.300  -5.488  23.657  0.00  0.00    +0.040 C 
BRANCH  12  14
ATOM     14  C   ALA A   1       5.471  -5.580  22.425  0.00  0.00    +0.325 C 
ATOM     15  OXT ALA A   1       5.517  -4.473  21.906  0.00  0.00    -0.249 OA
BRANCH  14  16
ATOM     16  O   ALA A   1       6.025  -6.676  21.853  0.00  0.00    -0.479 OA
ATOM     17  H   ALA A   1       6.223  -7.401  22.475  0.00  0.00    +0.295 HD
ENDBRANCH  14  16
ENDBRANCH  12  14
ENDBRANCH   8  12
ENDBRANCH   7  10
ENDBRANCH   6   7
ENDBRANCH   5   6
ENDBRANCH   1   5
BRANCH   1  18
ATOM     18  O   UNK A   0      10.024  -3.199  24.000  0.00  0.00    -0.424 OA
BRANCH  18  19
ATOM     19  C   UNK A   0       9.948  -1.890  23.615  0.00  0.00    +0.130 A 
ATOM     20  C   UNK A   0       9.904  -1.503  22.279  0.00  0.00    +0.053 A 
ATOM     21  C   UNK A   0       9.800  -0.151  21.943  0.00  0.00    +0.088 A 
ATOM     22  C   UNK A   0       9.736   0.811  22.959  0.00  0.00    +0.273 A 
ATOM     23  C   UNK A   0       9.809   0.432  24.304  0.00  0.00    +0.088 A 
ATOM     24  C   UNK A   0       9.924  -0.928  24.626  0.00  0.00    +0.053 A 
BRANCH  22  25
ATOM     25  N   UNK A   0       9.574   2.226  22.601  0.00  0.00    +0.080 N 
ATOM     26  O   UNK A   0       8.658   2.523  21.820  0.00  0.00    +0.041 OA
ATOM     27  O   UNK A   0      10.361   3.040  23.105  0.00  0.00    -0.576 OA
ENDBRANCH  22  25
ENDBRANCH  18  19
ENDBRANCH   1  18
TORSDOF 11
ENDMDL
MODEL 2
REMARK VINA RESULT:      -6.3      1.583      3.053
REMARK  Name = 
REMARK  12 active torsions:
REMARK  status: ('A' for Active; 'I' for Inactive)
REMARK    1  A    between atoms: CA_2  and  CB_3
REMARK    2  A    between atoms: CA_2  and  N_4
REMARK    3  A    between atoms: CA_2  and  C_23
REMARK    4  A    between atoms: C_5  and  C_7
REMARK    5  A    between atoms: C_7  and  C_8
REMARK    6  A    between atoms: C_8  and  C_9
REMARK    7  A    between atoms: C_9  and  P_10
REMARK    8  A    between atoms: P_10  and  O_11
REMARK    9  A    between atoms: P_10  and  O_13
REMARK   10  A    between atoms: O_13  and  C_14
REMARK   11  A    between atoms: C_17  and  N_20
REMARK   12  A    between atoms: C_23  and  O_24
REMARK                            x       y       z     vdW  Elec       q    Type
REMARK                         _______ _______ _______ _____ _____    ______ ____
ROOT
ATOM      1  P   UNK A   0       8.777  -4.208  24.560  0.00  0.00    +0.379 P 
ATOM      2  O   UNK A   0       8.303  -3.926  25.951  0.00  0.00    -0.244 OA
ENDROOT
BRANCH   1   3
ATOM      3  O   UNK A   0       9.407  -5.689  24.465  0.00  0.00    -0.315 OA
ATOM      4  H   UNK A   0      10.376  -5.674  24.574  0.00  0.00    +0.221 HD
ENDBRANCH   1   3
BRANCH   1   5
ATOM      5  C   UNK A   0       7.517  -4.208  23.277  0.00  0.00    +0.141 C 
BRANCH   5   6
ATOM      6  C   UNK A   0       7.508  -5.547  22.544  0.00  0.00    +0.022 C 
BRANCH   6   7
ATOM      7  C   UNK A   0       6.215  -5.880  21.798  0.00  0.00    +0.096 C 
BRANCH   7  10
ATOM      8  N   ALA A   1       4.980  -6.740  23.726  0.00  0.00    -0.303 N 
ATOM      9  H   ALA A   1       5.661  -7.491  23.771  0.00  0.00    +0.149 HD
ATOM     10  C   UNK A   0       5.045  -5.765  22.764  0.00  0.00    +0.214 C 
ATOM     11  O   UNK A   0       4.210  -4.869  22.700  0.00  0.00    -0.276 OA
BRANCH   8  12
ATOM     12  CA  ALA A   1       3.914  -6.715  24.725  0.00  0.00    +0.178 C 
ATOM     13  CB  ALA A   1       2.913  -7.836  24.494  0.00  0.00    +0.040 C 
BRANCH  12  14
ATOM     14  C   ALA A   1       4.515  -6.829  26.124  0.00  0.00    +0.325 C 
ATOM     15  OXT ALA A   1       5.683  -6.573  26.384  0.00  0.00    -0.249 OA
BRANCH  14  16
ATOM     16  O   ALA A   1       3.640  -7.265  27.062  0.00  0.00    -0.479 OA
ATOM     17  H   ALA A   1       2.998  -6.593  27.360  0.00  0.00    +0.295 HD
ENDBRANCH  14  16
ENDBRANCH  12  14
ENDBRANCH   8  12
ENDBRANCH   7  10
ENDBRANCH   6   7
ENDBRANCH   5   6
ENDBRANCH   1   5
BRANCH   1  18
ATOM     18  O   UNK A   0      10.008  -3.303  24.051  0.00  0.00    -0.424 OA
BRANCH  18  19
ATOM     19  C   UNK A   0       9.881  -1.975  23.754  0.00  0.00    +0.130 A 
ATOM     20  C   UNK A   0       9.598  -1.014  24.720  0.00  0.00    +0.053 A 
ATOM     21  C   UNK A   0       9.504   0.333  24.363  0.00  0.00    +0.088 A 
ATOM     22  C   UNK A   0       9.702   0.711  23.029  0.00  0.00    +0.273 A 
ATOM     23  C   UNK A   0       9.958  -0.253  22.047  0.00  0.00    +0.088 A 
ATOM     24  C   UNK A   0      10.038  -1.603  22.418  0.00  0.00    +0.053 A 
BRANCH  22  25
ATOM     25  N   UNK A   0       9.654   2.134  22.669  0.00  0.00    +0.080 N 
ATOM     26  O   UNK A   0      10.632   2.837  22.964  0.00  0.00    +0.041 OA
ATOM     27  O   UNK A   0       8.640   2.546  22.089  0.00  0.00    -0.576 OA
ENDBRANCH  22  25
ENDBRANCH  18  19
ENDBRANCH   1  18
TORSDOF 11
ENDMDL
MODEL 3
REMARK VINA RESULT:      -6.2      1.739      3.125
REMARK  Name = 
REMARK  12 active torsions:
REMARK  status: ('A' for Active; 'I' for Inactive)
REMARK    1  A    between atoms: CA_2  and  CB_3
REMARK    2  A    between atoms: CA_2  and  N_4
REMARK    3  A    between atoms: CA_2  and  C_23
REMARK    4  A    between atoms: C_5  and  C_7
REMARK    5  A    between atoms: C_7  and  C_8
REMARK    6  A    between atoms: C_8  and  C_9
REMARK    7  A    between atoms: C_9  and  P_10
REMARK    8  A    between atoms: P_10  and  O_11
REMARK    9  A    between atoms: P_10  and  O_13
REMARK   10  A    between atoms: O_13  and  C_14
REMARK   11  A    between atoms: C_17  and  N_20
REMARK   12  A    between atoms: C_23  and  O_24
REMARK                            x       y       z     vdW  Elec       q    Type
REMARK                         _______ _______ _______ _____ _____    ______ ____
ROOT
ATOM      1  P   UNK A   0       8.404  -3.004  23.736  0.00  0.00    +0.379 P 
ATOM      2  O   UNK A   0       7.706  -2.493  24.958  0.00  0.00    -0.244 OA
ENDROOT
BRANCH   1   3
ATOM      3  O   UNK A   0       8.839  -4.543  23.932  0.00  0.00    -0.315 OA
ATOM      4  H   UNK A   0       9.146  -4.939  23.095  0.00  0.00    +0.221 HD
ENDBRANCH   1   3
BRANCH   1   5
ATOM      5  C   UNK A   0       7.434  -3.034  22.223  0.00  0.00    +0.141 C 
BRANCH   5   6
ATOM      6  C   UNK A   0       5.955  -2.824  22.538  0.00  0.00    +0.022 C 
BRANCH   6   7
ATOM      7  C   UNK A   0       5.123  -4.100  22.672  0.00  0.00    +0.096 C 
BRANCH   7  10
ATOM      8  N   ALA A   1       5.709  -5.136  24.810  0.00  0.00    -0.303 N 
ATOM      9  H   ALA A   1       6.506  -5.551  24.339  0.00  0.00    +0.149 HD
ATOM     10  C   UNK A   0       4.817  -4.335  24.144  0.00  0.00    +0.214 C 
ATOM     11  O   UNK A   0       3.843  -3.849  24.710  0.00  0.00    -0.276 OA
BRANCH   8  12
ATOM     12  CA  ALA A   1       5.530  -5.408  26.234  0.00  0.00    +0.178 C 
ATOM     13  CB  ALA A   1       4.771  -6.707  26.457  0.00  0.00    +0.040 C 
BRANCH  12  14
ATOM     14  C   ALA A   1       6.892  -5.472  26.922  0.00  0.00    +0.325 C 
ATOM     15  OXT ALA A   1       7.931  -5.764  26.345  0.00  0.00    -0.249 OA
BRANCH  14  16
ATOM     16  O   ALA A   1       6.849  -5.196  28.247  0.00  0.00    -0.479 OA
ATOM     17  H   ALA A   1       6.446  -5.897  28.794  0.00  0.00    +0.295 HD
ENDBRANCH  14  16
ENDBRANCH  12  14
ENDBRANCH   8  12
ENDBRANCH   7  10
ENDBRANCH   6   7
ENDBRANCH   5   6
ENDBRANCH   1   5
BRANCH   1  18
ATOM     18  O   UNK A   0       9.820  -2.310  23.408  0.00  0.00    -0.424 OA
BRANCH  18  19
ATOM     19  C   UNK A   0       9.990  -0.954  23.358  0.00  0.00    +0.130 A 
ATOM     20  C   UNK A   0       9.846  -0.223  22.182  0.00  0.00    +0.053 A 
ATOM     21  C   UNK A   0      10.006   1.164  22.195  0.00  0.00    +0.088 A 
ATOM     22  C   UNK A   0      10.306   1.815  23.398  0.00  0.00    +0.273 A 
ATOM     23  C   UNK A   0      10.481   1.084  24.578  0.00  0.00    +0.088 A 
ATOM     24  C   UNK A   0      10.329  -0.310  24.549  0.00  0.00    +0.053 A 
BRANCH  22  25
ATOM     25  N   UNK A   0      10.421   3.279  23.415  0.00  0.00    +0.080 N 
ATOM     26  O   UNK A   0       9.378   3.939  23.532  0.00  0.00    +0.041 OA
ATOM     27  O   UNK A   0      11.556   3.767  23.315  0.00  0.00    -0.576 OA
ENDBRANCH  22  25
ENDBRANCH  18  19
ENDBRANCH   1  18
TORSDOF 11
ENDMDL
MODEL 4
REMARK VINA RESULT:      -6.1      2.709      8.260
REMARK  Name = 
REMARK  12 active torsions:
REMARK  status: ('A' for Active; 'I' for Inactive)
REMARK    1  A    between atoms: CA_2  and  CB_3
REMARK    2  A    between atoms: CA_2  and  N_4
REMARK    3  A    between atoms: CA_2  and  C_23
REMARK    4  A    between atoms: C_5  and  C_7
REMARK    5  A    between atoms: C_7  and  C_8
REMARK    6  A    between atoms: C_8  and  C_9
REMARK    7  A    between atoms: C_9  and  P_10
REMARK    8  A    between atoms: P_10  and  O_11
REMARK    9  A    between atoms: P_10  and  O_13
REMARK   10  A    between atoms: O_13  and  C_14
REMARK   11  A    between atoms: C_17  and  N_20
REMARK   12  A    between atoms: C_23  and  O_24
REMARK                            x       y       z     vdW  Elec       q    Type
REMARK                         _______ _______ _______ _____ _____    ______ ____
ROOT
ATOM      1  P   UNK A   0       9.150  -1.537  22.512  0.00  0.00    +0.379 P 
ATOM      2  O   UNK A   0       8.147  -2.449  21.878  0.00  0.00    -0.244 OA
ENDROOT
BRANCH   1   3
ATOM      3  O   UNK A   0      10.536  -1.557  21.689  0.00  0.00    -0.315 OA
ATOM      4  H   UNK A   0      10.437  -2.009  20.830  0.00  0.00    +0.221 HD
ENDBRANCH   1   3
BRANCH   1   5
ATOM      5  C   UNK A   0       8.719   0.208  22.559  0.00  0.00    +0.141 C 
BRANCH   5   6
ATOM      6  C   UNK A   0       9.973   1.067  22.424  0.00  0.00    +0.022 C 
BRANCH   6   7
ATOM      7  C   UNK A   0      10.427   1.774  23.701  0.00  0.00    +0.096 C 
BRANCH   7  10
ATOM      8  N   ALA A   1       9.458   3.967  23.216  0.00  0.00    -0.303 N 
ATOM      9  H   ALA A   1      10.117   4.039  22.448  0.00  0.00    +0.149 HD
ATOM     10  C   UNK A   0       9.428   2.871  24.039  0.00  0.00    +0.214 C 
ATOM     11  O   UNK A   0       8.643   2.794  24.978  0.00  0.00    -0.276 OA
BRANCH   8  12
ATOM     12  CA  ALA A   1       8.524   5.070  23.428  0.00  0.00    +0.178 C 
ATOM     13  CB  ALA A   1       9.238   6.413  23.401  0.00  0.00    +0.040 C 
BRANCH  12  14
ATOM     14  C   ALA A   1       7.432   5.035  22.362  0.00  0.00    +0.325 C 
ATOM     15  OXT ALA A   1       6.533   4.205  22.338  0.00  0.00    -0.249 OA
BRANCH  14  16
ATOM     16  O   ALA A   1       7.557   5.998  21.418  0.00  0.00    -0.479 OA
ATOM     17  H   ALA A   1       8.014   6.805  21.721  0.00  0.00    +0.295 HD
ENDBRANCH  14  16
ENDBRANCH  12  14
ENDBRANCH   8  12
ENDBRANCH   7  10
ENDBRANCH   6   7
ENDBRANCH   5   6
ENDBRANCH   1   5
BRANCH   1  18
ATOM     18  O   UNK A   0       9.645  -1.968  23.983  0.00  0.00    -0.424 OA
BRANCH  18  19
ATOM     19  C   UNK A   0       8.960  -2.854  24.767  0.00  0.00    +0.130 A 
ATOM     20  C   UNK A   0       7.790  -2.512  25.439  0.00  0.00    +0.053 A 
ATOM     21  C   UNK A   0       7.117  -3.466  26.207  0.00  0.00    +0.088 A 
ATOM     22  C   UNK A   0       7.625  -4.769  26.291  0.00  0.00    +0.273 A 
ATOM     23  C   UNK A   0       8.816  -5.112  25.642  0.00  0.00    +0.088 A 
ATOM     24  C   UNK A   0       9.487  -4.142  24.885  0.00  0.00    +0.053 A 
BRANCH  22  25
ATOM     25  N   UNK A   0       6.886  -5.781  27.056  0.00  0.00    +0.080 N 
ATOM     26  O   UNK A   0       5.953  -6.367  26.488  0.00  0.00    +0.041 OA
ATOM     27  O   UNK A   0       7.240  -5.991  28.225  0.00  0.00    -0.576 OA
ENDBRANCH  22  25
ENDBRANCH  18  19
ENDBRANCH   1  18
TORSDOF 11
ENDMDL
MODEL 5
REMARK VINA RESULT:      -5.9      2.328      3.385
REMARK  Name = 
REMARK  12 active torsions:
REMARK  status: ('A' for Active; 'I' for Inactive)
REMARK    1  A    between atoms: CA_2  and  CB_3
REMARK    2  A    between atoms: CA_2  and  N_4
REMARK    3  A    between atoms: CA_2  and  C_23
REMARK    4  A    between atoms: C_5  and  C_7
REMARK    5  A    between atoms: C_7  and  C_8
REMARK    6  A    between atoms: C_8  and  C_9
REMARK    7  A    between atoms: C_9  and  P_10
REMARK    8  A    between atoms: P_10  and  O_11
REMARK    9  A    between atoms: P_10  and  O_13
REMARK   10  A    between atoms: O_13  and  C_14
REMARK   11  A    between atoms: C_17  and  N_20
REMARK   12  A    between atoms: C_23  and  O_24
REMARK                            x       y       z     vdW  Elec       q    Type
REMARK                         _______ _______ _______ _____ _____    ______ ____
ROOT
ATOM      1  P   UNK A   0       9.420  -1.124  22.504  0.00  0.00    +0.379 P 
ATOM      2  O   UNK A   0      10.716  -1.840  22.281  0.00  0.00    -0.244 OA
ENDROOT
BRANCH   1   3
ATOM      3  O   UNK A   0       8.192  -1.969  21.892  0.00  0.00    -0.315 OA
ATOM      4  H   UNK A   0       7.491  -1.385  21.546  0.00  0.00    +0.221 HD
ENDBRANCH   1   3
BRANCH   1   5
ATOM      5  C   UNK A   0       8.939  -0.872  24.218  0.00  0.00    +0.141 C 
BRANCH   5   6
ATOM      6  C   UNK A   0       8.142  -2.070  24.726  0.00  0.00    +0.022 C 
BRANCH   6   7
ATOM      7  C   UNK A   0       8.963  -3.324  25.033  0.00  0.00    +0.096 C 
BRANCH   7  10
ATOM      8  N   ALA A   1       7.156  -4.271  23.682  0.00  0.00    -0.303 N 
ATOM      9  H   ALA A   1       6.670  -3.388  23.794  0.00  0.00    +0.149 HD
ATOM     10  C   UNK A   0       8.384  -4.494  24.253  0.00  0.00    +0.214 C 
ATOM     11  O   UNK A   0       8.962  -5.570  24.132  0.00  0.00    -0.276 OA
BRANCH   8  12
ATOM     12  CA  ALA A   1       6.516  -5.316  22.886  0.00  0.00    +0.178 C 
ATOM     13  CB  ALA A   1       5.346  -5.940  23.631  0.00  0.00    +0.040 C 
BRANCH  12  14
ATOM     14  C   ALA A   1       6.042  -4.734  21.557  0.00  0.00    +0.325 C 
ATOM     15  OXT ALA A   1       5.671  -3.576  21.417  0.00  0.00    -0.249 OA
BRANCH  14  16
ATOM     16  O   ALA A   1       6.043  -5.625  20.537  0.00  0.00    -0.479 OA
ATOM     17  H   ALA A   1       6.731  -5.468  19.863  0.00  0.00    +0.295 HD
ENDBRANCH  14  16
ENDBRANCH  12  14
ENDBRANCH   8  12
ENDBRANCH   7  10
ENDBRANCH   6   7
ENDBRANCH   5   6
ENDBRANCH   1   5
BRANCH   1  18
ATOM     18  O   UNK A   0       9.263   0.279  21.729  0.00  0.00    -0.424 OA
BRANCH  18  19
ATOM     19  C   UNK A   0       9.340   1.489  22.360  0.00  0.00    +0.130 A 
ATOM     20  C   UNK A   0      10.532   1.994  22.871  0.00  0.00    +0.053 A 
ATOM     21  C   UNK A   0      10.556   3.249  23.484  0.00  0.00    +0.088 A 
ATOM     22  C   UNK A   0       9.376   3.997  23.577  0.00  0.00    +0.273 A 
ATOM     23  C   UNK A   0       8.168   3.483  23.092  0.00  0.00    +0.088 A 
ATOM     24  C   UNK A   0       8.156   2.217  22.489  0.00  0.00    +0.053 A 
BRANCH  22  25
ATOM     25  N   UNK A   0       9.419   5.337  24.174  0.00  0.00    +0.080 N 
ATOM     26  O   UNK A   0       9.000   5.466  25.334  0.00  0.00    +0.041 OA
ATOM     27  O   UNK A   0       9.874   6.260  23.484  0.00  0.00    -0.576 OA
ENDBRANCH  22  25
ENDBRANCH  18  19
ENDBRANCH   1  18
TORSDOF 11
ENDMDL
MODEL 6
REMARK VINA RESULT:      -5.9      1.650      2.049
REMARK  Name = 
REMARK  12 active torsions:
REMARK  status: ('A' for Active; 'I' for Inactive)
REMARK    1  A    between atoms: CA_2  and  CB_3
REMARK    2  A    between atoms: CA_2  and  N_4
REMARK    3  A    between atoms: CA_2  and  C_23
REMARK    4  A    between atoms: C_5  and  C_7
REMARK    5  A    between atoms: C_7  and  C_8
REMARK    6  A    between atoms: C_8  and  C_9
REMARK    7  A    between atoms: C_9  and  P_10
REMARK    8  A    between atoms: P_10  and  O_11
REMARK    9  A    between atoms: P_10  and  O_13
REMARK   10  A    between atoms: O_13  and  C_14
REMARK   11  A    between atoms: C_17  and  N_20
REMARK   12  A    between atoms: C_23  and  O_24
REMARK                            x       y       z     vdW  Elec       q    Type
REMARK                         _______ _______ _______ _____ _____    ______ ____
ROOT
ATOM      1  P   UNK A   0       8.437  -2.599  23.318  0.00  0.00    +0.379 P 
ATOM      2  O   UNK A   0       7.784  -3.691  22.528  0.00  0.00    -0.244 OA
ENDROOT
BRANCH   1   3
ATOM      3  O   UNK A   0       7.411  -1.380  23.556  0.00  0.00    -0.315 OA
ATOM      4  H   UNK A   0       6.483  -1.673  23.488  0.00  0.00    +0.221 HD
ENDBRANCH   1   3
BRANCH   1   5
ATOM      5  C   UNK A   0       8.965  -3.031  24.982  0.00  0.00    +0.141 C 
BRANCH   5   6
ATOM      6  C   UNK A   0       9.114  -4.544  25.114  0.00  0.00    +0.022 C 
BRANCH   6   7
ATOM      7  C   UNK A   0       8.397  -5.174  26.308  0.00  0.00    +0.096 C 
BRANCH   7  10
ATOM      8  N   ALA A   1       6.369  -5.400  24.958  0.00  0.00    -0.303 N 
ATOM      9  H   ALA A   1       6.951  -5.811  24.235  0.00  0.00    +0.149 HD
ATOM     10  C   UNK A   0       6.898  -4.968  26.148  0.00  0.00    +0.214 C 
ATOM     11  O   UNK A   0       6.197  -4.454  27.013  0.00  0.00    -0.276 OA
BRANCH   8  12
ATOM     12  CA  ALA A   1       4.936  -5.278  24.705  0.00  0.00    +0.178 C 
ATOM     13  CB  ALA A   1       4.618  -4.014  23.921  0.00  0.00    +0.040 C 
BRANCH  12  14
ATOM     14  C   ALA A   1       4.440  -6.505  23.943  0.00  0.00    +0.325 C 
ATOM     15  OXT ALA A   1       4.156  -7.568  24.480  0.00  0.00    -0.249 OA
BRANCH  14  16
ATOM     16  O   ALA A   1       4.362  -6.324  22.603  0.00  0.00    -0.479 OA
ATOM     17  H   ALA A   1       4.062  -7.108  22.106  0.00  0.00    +0.295 HD
ENDBRANCH  14  16
ENDBRANCH  12  14
ENDBRANCH   8  12
ENDBRANCH   7  10
ENDBRANCH   6   7
ENDBRANCH   5   6
ENDBRANCH   1   5
BRANCH   1  18
ATOM     18  O   UNK A   0       9.660  -1.851  22.584  0.00  0.00    -0.424 OA
BRANCH  18  19
ATOM     19  C   UNK A   0       9.918  -0.518  22.742  0.00  0.00    +0.130 A 
ATOM     20  C   UNK A   0       9.645   0.421  21.752  0.00  0.00    +0.053 A 
ATOM     21  C   UNK A   0       9.905   1.775  21.978  0.00  0.00    +0.088 A 
ATOM     22  C   UNK A   0      10.438   2.181  23.208  0.00  0.00    +0.273 A 
ATOM     23  C   UNK A   0      10.742   1.239  24.198  0.00  0.00    +0.088 A 
ATOM     24  C   UNK A   0      10.486  -0.118  23.953  0.00  0.00    +0.053 A 
BRANCH  22  25
ATOM     25  N   UNK A   0      10.660   3.610  23.459  0.00  0.00    +0.080 N 
ATOM     26  O   UNK A   0       9.672   4.310  23.728  0.00  0.00    +0.041 OA
ATOM     27  O   UNK A   0      11.823   4.032  23.391  0.00  0.00    -0.576 OA
ENDBRANCH  22  25
ENDBRANCH  18  19
ENDBRANCH   1  18
TORSDOF 11
ENDMDL
MODEL 7
REMARK VINA RESULT:      -5.9      2.060      3.316
REMARK  Name = 
REMARK  12 active torsions:
REMARK  status: ('A' for Active; 'I' for Inactive)
REMARK    1  A    between atoms: CA_2  and  CB_3
REMARK    2  A    between atoms: CA_2  and  N_4
REMARK    3  A    between atoms: CA_2  and  C_23
REMARK    4  A    between atoms: C_5  and  C_7
REMARK    5  A    between atoms: C_7  and  C_8
REMARK    6  A    between atoms: C_8  and  C_9
REMARK    7  A    between atoms: C_9  and  P_10
REMARK    8  A    between atoms: P_10  and  O_11
REMARK    9  A    between atoms: P_10  and  O_13
REMARK   10  A    between atoms: O_13  and  C_14
REMARK   11  A    between atoms: C_17  and  N_20
REMARK   12  A    between atoms: C_23  and  O_24
REMARK                            x       y       z     vdW  Elec       q    Type
REMARK                         _______ _______ _______ _____ _____    ______ ____
ROOT
ATOM      1  P   UNK A   0       8.197  -2.774  23.237  0.00  0.00    +0.379 P 
ATOM      2  O   UNK A   0       7.290  -2.782  22.046  0.00  0.00    -0.244 OA
ENDROOT
BRANCH   1   3
ATOM      3  O   UNK A   0       7.581  -1.861  24.414  0.00  0.00    -0.315 OA
ATOM      4  H   UNK A   0       6.606  -1.888  24.416  0.00  0.00    +0.221 HD
ENDBRANCH   1   3
BRANCH   1   5
ATOM      5  C   UNK A   0       8.467  -4.361  24.039  0.00  0.00    +0.141 C 
BRANCH   5   6
ATOM      6  C   UNK A   0       9.405  -4.199  25.231  0.00  0.00    +0.022 C 
BRANCH   6   7
ATOM      7  C   UNK A   0       8.997  -4.952  26.498  0.00  0.00    +0.096 C 
BRANCH   7  10
ATOM      8  N   ALA A   1       6.766  -5.950  26.603  0.00  0.00    -0.303 N 
ATOM      9  H   ALA A   1       7.203  -6.840  26.389  0.00  0.00    +0.149 HD
ATOM     10  C   UNK A   0       7.498  -4.794  26.704  0.00  0.00    +0.214 C 
ATOM     11  O   UNK A   0       6.966  -3.715  26.944  0.00  0.00    -0.276 OA
BRANCH   8  12
ATOM     12  CA  ALA A   1       5.320  -5.922  26.810  0.00  0.00    +0.178 C 
ATOM     13  CB  ALA A   1       4.599  -6.786  25.786  0.00  0.00    +0.040 C 
BRANCH  12  14
ATOM     14  C   ALA A   1       4.992  -6.399  28.223  0.00  0.00    +0.325 C 
ATOM     15  OXT ALA A   1       4.333  -5.748  29.023  0.00  0.00    -0.249 OA
BRANCH  14  16
ATOM     16  O   ALA A   1       5.517  -7.610  28.528  0.00  0.00    -0.479 OA
ATOM     17  H   ALA A   1       5.743  -7.726  29.470  0.00  0.00    +0.295 HD
ENDBRANCH  14  16
ENDBRANCH  12  14
ENDBRANCH   8  12
ENDBRANCH   7  10
ENDBRANCH   6   7
ENDBRANCH   5   6
ENDBRANCH   1   5
BRANCH   1  18
ATOM     18  O   UNK A   0       9.632  -2.080  23.010  0.00  0.00    -0.424 OA
BRANCH  18  19
ATOM     19  C   UNK A   0       9.842  -0.738  23.169  0.00  0.00    +0.130 A 
ATOM     20  C   UNK A   0      10.301  -0.187  24.362  0.00  0.00    +0.053 A 
ATOM     21  C   UNK A   0      10.522   1.189  24.459  0.00  0.00    +0.088 A 
ATOM     22  C   UNK A   0      10.284   2.008  23.348  0.00  0.00    +0.273 A 
ATOM     23  C   UNK A   0       9.795   1.465  22.155  0.00  0.00    +0.088 A 
ATOM     24  C   UNK A   0       9.567   0.084  22.075  0.00  0.00    +0.053 A 
BRANCH  22  25
ATOM     25  N   UNK A   0      10.568   3.446  23.441  0.00  0.00    +0.080 N 
ATOM     26  O   UNK A   0      11.748   3.810  23.329  0.00  0.00    +0.041 OA
ATOM     27  O   UNK A   0       9.610   4.211  23.622  0.00  0.00    -0.576 OA
ENDBRANCH  22  25
ENDBRANCH  18  19
ENDBRANCH   1  18
TORSDOF 11
ENDMDL
MODEL 8
REMARK VINA RESULT:      -5.8      3.573      8.965
REMARK  Name = 
REMARK  12 active torsions:
REMARK  status: ('A' for Active; 'I' for Inactive)
REMARK    1  A    between atoms: CA_2  and  CB_3
REMARK    2  A    between atoms: CA_2  and  N_4
REMARK    3  A    between atoms: CA_2  and  C_23
REMARK    4  A    between atoms: C_5  and  C_7
REMARK    5  A    between atoms: C_7  and  C_8
REMARK    6  A    between atoms: C_8  and  C_9
REMARK    7  A    between atoms: C_9  and  P_10
REMARK    8  A    between atoms: P_10  and  O_11
REMARK    9  A    between atoms: P_10  and  O_13
REMARK   10  A    between atoms: O_13  and  C_14
REMARK   11  A    between atoms: C_17  and  N_20
REMARK   12  A    between atoms: C_23  and  O_24
REMARK                            x       y       z     vdW  Elec       q    Type
REMARK                         _______ _______ _______ _____ _____    ______ ____
ROOT
ATOM      1  P   UNK A   0       9.162   1.214  21.892  0.00  0.00    +0.379 P 
ATOM      2  O   UNK A   0       9.112   0.075  20.922  0.00  0.00    -0.244 OA
ENDROOT
BRANCH   1   3
ATOM      3  O   UNK A   0      10.338   2.243  21.499  0.00  0.00    -0.315 OA
ATOM      4  H   UNK A   0      11.220   1.869  21.684  0.00  0.00    +0.221 HD
ENDBRANCH   1   3
BRANCH   1   5
ATOM      5  C   UNK A   0       7.701   2.259  21.964  0.00  0.00    +0.141 C 
BRANCH   5   6
ATOM      6  C   UNK A   0       7.676   3.043  23.273  0.00  0.00    +0.022 C 
BRANCH   6   7
ATOM      7  C   UNK A   0       7.052   4.437  23.194  0.00  0.00    +0.096 C 
BRANCH   7  10
ATOM      8  N   ALA A   1       9.269   5.199  23.893  0.00  0.00    -0.303 N 
ATOM      9  H   ALA A   1       9.321   4.369  24.474  0.00  0.00    +0.149 HD
ATOM     10  C   UNK A   0       8.164   5.472  23.126  0.00  0.00    +0.214 C 
ATOM     11  O   UNK A   0       8.095   6.485  22.439  0.00  0.00    -0.276 OA
BRANCH   8  12
ATOM     12  CA  ALA A   1      10.411   6.109  23.884  0.00  0.00    +0.178 C 
ATOM     13  CB  ALA A   1      10.490   6.909  25.175  0.00  0.00    +0.040 C 
BRANCH  12  14
ATOM     14  C   ALA A   1      11.700   5.317  23.678  0.00  0.00    +0.325 C 
ATOM     15  OXT ALA A   1      12.786   5.660  24.126  0.00  0.00    -0.249 OA
BRANCH  14  16
ATOM     16  O   ALA A   1      11.543   4.200  22.929  0.00  0.00    -0.479 OA
ATOM     17  H   ALA A   1      12.082   4.180  22.115  0.00  0.00    +0.295 HD
ENDBRANCH  14  16
ENDBRANCH  12  14
ENDBRANCH   8  12
ENDBRANCH   7  10
ENDBRANCH   6   7
ENDBRANCH   5   6
ENDBRANCH   1   5
BRANCH   1  18
ATOM     18  O   UNK A   0       9.571   0.821  23.400  0.00  0.00    -0.424 OA
BRANCH  18  19
ATOM     19  C   UNK A   0       9.454  -0.447  23.895  0.00  0.00    +0.130 A 
ATOM     20  C   UNK A   0      10.141  -1.530  23.353  0.00  0.00    +0.053 A 
ATOM     21  C   UNK A   0      10.003  -2.801  23.916  0.00  0.00    +0.088 A 
ATOM     22  C   UNK A   0       9.176  -2.978  25.031  0.00  0.00    +0.273 A 
ATOM     23  C   UNK A   0       8.460  -1.899  25.564  0.00  0.00    +0.088 A 
ATOM     24  C   UNK A   0       8.598  -0.631  24.982  0.00  0.00    +0.053 A 
BRANCH  22  25
ATOM     25  N   UNK A   0       9.077  -4.305  25.651  0.00  0.00    +0.080 N 
ATOM     26  O   UNK A   0       9.400  -5.287  24.967  0.00  0.00    +0.041 OA
ATOM     27  O   UNK A   0       8.679  -4.364  26.823  0.00  0.00    -0.576 OA
ENDBRANCH  22  25
ENDBRANCH  18  19
ENDBRANCH   1  18
TORSDOF 11
ENDMDL
MODEL 9
REMARK VINA RESULT:      -5.8      2.161      2.866
REMARK  Name = 
REMARK  12 active torsions:
REMARK  status: ('A' for Active; 'I' for Inactive)
REMARK    1  A    between atoms: CA_2  and  CB_3
REMARK    2  A    between atoms: CA_2  and  N_4
REMARK    3  A    between atoms: CA_2  and  C_23
REMARK    4  A    between atoms: C_5  and  C_7
REMARK    5  A    between atoms: C_7  and  C_8
REMARK    6  A    between atoms: C_8  and  C_9
REMARK    7  A    between atoms: C_9  and  P_10
REMARK    8  A    between atoms: P_10  and  O_11
REMARK    9  A    between atoms: P_10  and  O_13
REMARK   10  A    between atoms: O_13  and  C_14
REMARK   11  A    between atoms: C_17  and  N_20
REMARK   12  A    between atoms: C_23  and  O_24
REMARK                            x       y       z     vdW  Elec       q    Type
REMARK                         _______ _______ _______ _____ _____    ______ ____
ROOT
ATOM      1  P   UNK A   0       9.698  -1.811  23.547  0.00  0.00    +0.379 P 
ATOM      2  O   UNK A   0      10.638  -1.819  22.382  0.00  0.00    -0.244 OA
ENDROOT
BRANCH   1   3
ATOM      3  O   UNK A   0       8.212  -1.405  23.075  0.00  0.00    -0.315 OA
ATOM      4  H   UNK A   0       7.557  -2.083  23.329  0.00  0.00    +0.221 HD
ENDBRANCH   1   3
BRANCH   1   5
ATOM      5  C   UNK A   0       9.456  -3.386  24.381  0.00  0.00    +0.141 C 
BRANCH   5   6
ATOM      6  C   UNK A   0       8.613  -3.194  25.639  0.00  0.00    +0.022 C 
BRANCH   6   7
ATOM      7  C   UNK A   0       7.465  -4.187  25.820  0.00  0.00    +0.096 C 
BRANCH   7  10
ATOM      8  N   ALA A   1       6.424  -5.257  23.881  0.00  0.00    -0.303 N 
ATOM      9  H   ALA A   1       6.931  -6.100  24.130  0.00  0.00    +0.149 HD
ATOM     10  C   UNK A   0       6.545  -4.102  24.611  0.00  0.00    +0.214 C 
ATOM     11  O   UNK A   0       5.945  -3.079  24.298  0.00  0.00    -0.276 OA
BRANCH   8  12
ATOM     12  CA  ALA A   1       5.545  -5.300  22.715  0.00  0.00    +0.178 C 
ATOM     13  CB  ALA A   1       6.230  -5.963  21.531  0.00  0.00    +0.040 C 
BRANCH  12  14
ATOM     14  C   ALA A   1       4.260  -6.048  23.064  0.00  0.00    +0.325 C 
ATOM     15  OXT ALA A   1       3.139  -5.616  22.832  0.00  0.00    -0.249 OA
BRANCH  14  16
ATOM     16  O   ALA A   1       4.468  -7.235  23.682  0.00  0.00    -0.479 OA
ATOM     17  H   ALA A   1       5.368  -7.597  23.571  0.00  0.00    +0.295 HD
ENDBRANCH  14  16
ENDBRANCH  12  14
ENDBRANCH   8  12
ENDBRANCH   7  10
ENDBRANCH   6   7
ENDBRANCH   5   6
ENDBRANCH   1   5
BRANCH   1  18
ATOM     18  O   UNK A   0       9.995  -0.693  24.668  0.00  0.00    -0.424 OA
BRANCH  18  19
ATOM     19  C   UNK A   0       9.738   0.636  24.478  0.00  0.00    +0.130 A 
ATOM     20  C   UNK A   0       8.635   1.274  25.037  0.00  0.00    +0.053 A 
ATOM     21  C   UNK A   0       8.437   2.641  24.830  0.00  0.00    +0.088 A 
ATOM     22  C   UNK A   0       9.357   3.366  24.062  0.00  0.00    +0.273 A 
ATOM     23  C   UNK A   0      10.453   2.724  23.473  0.00  0.00    +0.088 A 
ATOM     24  C   UNK A   0      10.634   1.350  23.679  0.00  0.00    +0.053 A 
BRANCH  22  25
ATOM     25  N   UNK A   0       9.172   4.812  23.892  0.00  0.00    +0.080 N 
ATOM     26  O   UNK A   0       8.260   5.194  23.143  0.00  0.00    +0.041 OA
ATOM     27  O   UNK A   0       9.936   5.566  24.511  0.00  0.00    -0.576 OA
ENDBRANCH  22  25
ENDBRANCH  18  19
ENDBRANCH   1  18
TORSDOF 11
ENDMDL
