MODEL 1
REMARK VINA RESULT:      -4.4      0.000      0.000
REMARK  Name = 
REMARK  4 active torsions:
REMARK  status: ('A' for Active; 'I' for Inactive)
REMARK    1  A    between atoms: C_1  and  C_2
REMARK    2  A    between atoms: N_4  and  C_5
REMARK    3  A    between atoms: C_5  and  C_6
REMARK    4  A    between atoms: C_6  and  C_7
REMARK                            x       y       z     vdW  Elec       q    Type
REMARK                         _______ _______ _______ _____ _____    ______ ____
ROOT
ATOM      1  C   UNL     1       9.464   0.014  21.261  0.00  0.00    +0.073 C 
ENDROOT
BRANCH   1   2
ATOM      2  C   UNL     1       9.315  -1.104  22.231  0.00  0.00    +0.037 A 
ATOM      3  N   UNL     1      10.134  -1.263  23.323  0.00  0.00    -0.348 N 
ATOM      4  H   UNL     1      10.906  -0.667  23.588  0.00  0.00    +0.166 HD
ATOM      5  C   UNL     1       9.711  -2.376  23.994  0.00  0.00    +0.196 A 
ATOM      6  N   UNL     1       8.681  -2.933  23.404  0.00  0.00    -0.244 NA
ATOM      7  C   UNL     1       8.425  -2.155  22.304  0.00  0.00    +0.133 A 
ENDBRANCH   1   2
BRANCH   1   8
ATOM      8  C   UNL     1       8.795   1.294  21.770  0.00  0.00    +0.110 C 
BRANCH   8  11
ATOM      9  C   UNL     1      11.323   3.670  23.280  0.00  0.00    +0.109 C 
ATOM     10  C   UNL     1      10.371   2.505  23.232  0.00  0.00    +0.210 C 
ATOM     11  N   UNL     1       9.753   2.356  22.012  0.00  0.00    -0.315 N 
ATOM     12  H   UNL     1      10.041   2.937  21.236  0.00  0.00    +0.149 HD
ATOM     13  O   UNL     1      10.174   1.768  24.192  0.00  0.00    -0.276 OA
ENDBRANCH   8  11
ENDBRANCH   1   8
TORSDOF 3
ENDMDL
MODEL 2
REMARK VINA RESULT:      -4.3      2.009      4.775
REMARK  Name = 
REMARK  4 active torsions:
REMARK  status: ('A' for Active; 'I' for Inactive)
REMARK    1  A    between atoms: C_1  and  C_2
REMARK    2  A    between atoms: N_4  and  C_5
REMARK    3  A    between atoms: C_5  and  C_6
REMARK    4  A    between atoms: C_6  and  C_7
REMARK                            x       y       z     vdW  Elec       q    Type
REMARK                         _______ _______ _______ _____ _____    ______ ____
ROOT
ATOM      1  C   UNL     1       9.385  -0.118  21.387  0.00  0.00    +0.073 C 
ENDROOT
BRANCH   1   2
ATOM      2  C   UNL     1       9.933   0.944  22.272  0.00  0.00    +0.037 A 
ATOM      3  N   UNL     1      10.130   2.238  21.856  0.00  0.00    -0.348 N 
ATOM      4  H   UNL     1       9.936   2.610  20.936  0.00  0.00    +0.166 HD
ATOM      5  C   UNL     1      10.631   2.939  22.916  0.00  0.00    +0.196 A 
ATOM      6  N   UNL     1      10.766   2.179  23.976  0.00  0.00    -0.244 NA
ATOM      7  C   UNL     1      10.339   0.935  23.590  0.00  0.00    +0.133 A 
ENDBRANCH   1   2
BRANCH   1   8
ATOM      8  C   UNL     1       9.737  -1.517  21.902  0.00  0.00    +0.110 C 
BRANCH   8  11
ATOM      9  C   UNL     1       7.575  -3.529  24.268  0.00  0.00    +0.109 C 
ATOM     10  C   UNL     1       8.848  -2.993  23.668  0.00  0.00    +0.210 C 
ATOM     11  N   UNL     1       8.635  -2.133  22.616  0.00  0.00    -0.315 N 
ATOM     12  H   UNL     1       7.690  -1.847  22.392  0.00  0.00    +0.149 HD
ATOM     13  O   UNL     1       9.959  -3.299  24.086  0.00  0.00    -0.276 OA
ENDBRANCH   8  11
ENDBRANCH   1   8
TORSDOF 3
ENDMDL
MODEL 3
REMARK VINA RESULT:      -4.2      2.814      5.642
REMARK  Name = 
REMARK  4 active torsions:
REMARK  status: ('A' for Active; 'I' for Inactive)
REMARK    1  A    between atoms: C_1  and  C_2
REMARK    2  A    between atoms: N_4  and  C_5
REMARK    3  A    between atoms: C_5  and  C_6
REMARK    4  A    between atoms: C_6  and  C_7
REMARK                            x       y       z     vdW  Elec       q    Type
REMARK                         _______ _______ _______ _____ _____    ______ ____
ROOT
ATOM      1  C   UNL     1       9.755  -2.843  24.022  0.00  0.00    +0.073 C 
ENDROOT
BRANCH   1   2
ATOM      2  C   UNL     1       9.780  -1.620  23.177  0.00  0.00    +0.037 A 
ATOM      3  N   UNL     1       9.236  -1.569  21.917  0.00  0.00    -0.348 N 
ATOM      4  H   UNL     1       8.774  -2.325  21.430  0.00  0.00    +0.166 HD
ATOM      5  C   UNL     1       9.427  -0.304  21.437  0.00  0.00    +0.196 A 
ATOM      6  N   UNL     1      10.055   0.452  22.307  0.00  0.00    -0.244 NA
ATOM      7  C   UNL     1      10.284  -0.354  23.392  0.00  0.00    +0.133 A 
ENDBRANCH   1   2
BRANCH   1   8
ATOM      8  C   UNL     1       8.323  -3.314  24.290  0.00  0.00    +0.110 C 
BRANCH   8  11
ATOM      9  C   UNL     1       7.032  -5.892  21.840  0.00  0.00    +0.109 C 
ATOM     10  C   UNL     1       7.258  -4.522  22.420  0.00  0.00    +0.210 C 
ATOM     11  N   UNL     1       8.003  -4.536  23.577  0.00  0.00    -0.315 N 
ATOM     12  H   UNL     1       8.420  -5.403  23.887  0.00  0.00    +0.149 HD
ATOM     13  O   UNL     1       6.816  -3.501  21.904  0.00  0.00    -0.276 OA
ENDBRANCH   8  11
ENDBRANCH   1   8
TORSDOF 3
ENDMDL
MODEL 4
REMARK VINA RESULT:      -4.1      1.849      2.675
REMARK  Name = 
REMARK  4 active torsions:
REMARK  status: ('A' for Active; 'I' for Inactive)
REMARK    1  A    between atoms: C_1  and  C_2
REMARK    2  A    between atoms: N_4  and  C_5
REMARK    3  A    between atoms: C_5  and  C_6
REMARK    4  A    between atoms: C_6  and  C_7
REMARK                            x       y       z     vdW  Elec       q    Type
REMARK                         _______ _______ _______ _____ _____    ______ ____
ROOT
ATOM      1  C   UNL     1      10.487   1.531  24.084  0.00  0.00    +0.073 C 
ENDROOT
BRANCH   1   2
ATOM      2  C   UNL     1      10.203   0.130  23.672  0.00  0.00    +0.037 A 
ATOM      3  N   UNL     1      10.194  -0.278  22.361  0.00  0.00    -0.348 N 
ATOM      4  H   UNL     1      10.371   0.300  21.550  0.00  0.00    +0.166 HD
ATOM      5  C   UNL     1       9.909  -1.614  22.347  0.00  0.00    +0.196 A 
ATOM      6  N   UNL     1       9.736  -2.082  23.561  0.00  0.00    -0.244 NA
ATOM      7  C   UNL     1       9.912  -1.008  24.395  0.00  0.00    +0.133 A 
ENDBRANCH   1   2
BRANCH   1   8
ATOM      8  C   UNL     1      10.356   2.502  22.907  0.00  0.00    +0.110 C 
BRANCH   8  11
ATOM      9  C   UNL     1       6.785   3.514  22.173  0.00  0.00    +0.109 C 
ATOM     10  C   UNL     1       8.044   2.696  22.067  0.00  0.00    +0.210 C 
ATOM     11  N   UNL     1       9.061   3.153  22.873  0.00  0.00    -0.315 N 
ATOM     12  H   UNL     1       8.875   3.901  23.529  0.00  0.00    +0.149 HD
ATOM     13  O   UNL     1       8.142   1.720  21.331  0.00  0.00    -0.276 OA
ENDBRANCH   8  11
ENDBRANCH   1   8
TORSDOF 3
ENDMDL
MODEL 5
REMARK VINA RESULT:      -4.1      2.642      3.758
REMARK  Name = 
REMARK  4 active torsions:
REMARK  status: ('A' for Active; 'I' for Inactive)
REMARK    1  A    between atoms: C_1  and  C_2
REMARK    2  A    between atoms: N_4  and  C_5
REMARK    3  A    between atoms: C_5  and  C_6
REMARK    4  A    between atoms: C_6  and  C_7
REMARK                            x       y       z     vdW  Elec       q    Type
REMARK                         _______ _______ _______ _____ _____    ______ ____
ROOT
ATOM      1  C   UNL     1      10.507   3.240  23.404  0.00  0.00    +0.073 C 
ENDROOT
BRANCH   1   2
ATOM      2  C   UNL     1      10.118   1.952  22.771  0.00  0.00    +0.037 A 
ATOM      3  N   UNL     1       9.441   1.878  21.577  0.00  0.00    -0.348 N 
ATOM      4  H   UNL     1       9.137   2.657  21.009  0.00  0.00    +0.166 HD
ATOM      5  C   UNL     1       9.256   0.555  21.290  0.00  0.00    +0.196 A 
ATOM      6  N   UNL     1       9.769  -0.216  22.219  0.00  0.00    -0.244 NA
ATOM      7  C   UNL     1      10.305   0.638  23.148  0.00  0.00    +0.133 A 
ENDBRANCH   1   2
BRANCH   1   8
ATOM      8  C   UNL     1       9.318   3.908  24.099  0.00  0.00    +0.110 C 
BRANCH   8  11
ATOM      9  C   UNL     1       7.362   6.220  21.830  0.00  0.00    +0.109 C 
ATOM     10  C   UNL     1       7.723   4.931  22.518  0.00  0.00    +0.210 C 
ATOM     11  N   UNL     1       8.812   5.043  23.351  0.00  0.00    -0.315 N 
ATOM     12  H   UNL     1       9.213   5.956  23.523  0.00  0.00    +0.149 HD
ATOM     13  O   UNL     1       7.099   3.889  22.347  0.00  0.00    -0.276 OA
ENDBRANCH   8  11
ENDBRANCH   1   8
TORSDOF 3
ENDMDL
MODEL 6
REMARK VINA RESULT:      -4.0      2.890      5.569
REMARK  Name = 
REMARK  4 active torsions:
REMARK  status: ('A' for Active; 'I' for Inactive)
REMARK    1  A    between atoms: C_1  and  C_2
REMARK    2  A    between atoms: N_4  and  C_5
REMARK    3  A    between atoms: C_5  and  C_6
REMARK    4  A    between atoms: C_6  and  C_7
REMARK                            x       y       z     vdW  Elec       q    Type
REMARK                         _______ _______ _______ _____ _____    ______ ____
ROOT
ATOM      1  C   UNL     1       9.191  -1.605  21.763  0.00  0.00    +0.073 C 
ENDROOT
BRANCH   1   2
ATOM      2  C   UNL     1       9.617  -0.254  22.214  0.00  0.00    +0.037 A 
ATOM      3  N   UNL     1       9.484   0.872  21.438  0.00  0.00    -0.348 N 
ATOM      4  H   UNL     1       9.097   0.917  20.505  0.00  0.00    +0.166 HD
ATOM      5  C   UNL     1       9.964   1.928  22.160  0.00  0.00    +0.196 A 
ATOM      6  N   UNL     1      10.394   1.550  23.340  0.00  0.00    -0.244 NA
ATOM      7  C   UNL     1      10.188   0.196  23.387  0.00  0.00    +0.133 A 
ENDBRANCH   1   2
BRANCH   1   8
ATOM      8  C   UNL     1       7.887  -2.039  22.438  0.00  0.00    +0.110 C 
BRANCH   8  11
ATOM      9  C   UNL     1       6.463  -5.502  21.898  0.00  0.00    +0.109 C 
ATOM     10  C   UNL     1       6.484  -3.997  21.903  0.00  0.00    +0.210 C 
ATOM     11  N   UNL     1       7.673  -3.471  22.353  0.00  0.00    -0.315 N 
ATOM     12  H   UNL     1       8.451  -4.090  22.538  0.00  0.00    +0.149 HD
ATOM     13  O   UNL     1       5.530  -3.318  21.540  0.00  0.00    -0.276 OA
ENDBRANCH   8  11
ENDBRANCH   1   8
TORSDOF 3
ENDMDL
MODEL 7
REMARK VINA RESULT:      -4.0      2.553      3.654
REMARK  Name = 
REMARK  4 active torsions:
REMARK  status: ('A' for Active; 'I' for Inactive)
REMARK    1  A    between atoms: C_1  and  C_2
REMARK    2  A    between atoms: N_4  and  C_5
REMARK    3  A    between atoms: C_5  and  C_6
REMARK    4  A    between atoms: C_6  and  C_7
REMARK                            x       y       z     vdW  Elec       q    Type
REMARK                         _______ _______ _______ _____ _____    ______ ____
ROOT
ATOM      1  C   UNL     1       8.513   3.792  23.072  0.00  0.00    +0.073 C 
ENDROOT
BRANCH   1   2
ATOM      2  C   UNL     1       8.842   2.381  22.737  0.00  0.00    +0.037 A 
ATOM      3  N   UNL     1       9.213   1.978  21.477  0.00  0.00    -0.348 N 
ATOM      4  H   UNL     1       9.301   2.565  20.659  0.00  0.00    +0.166 HD
ATOM      5  C   UNL     1       9.449   0.633  21.529  0.00  0.00    +0.196 A 
ATOM      6  N   UNL     1       9.253   0.155  22.735  0.00  0.00    -0.244 NA
ATOM      7  C   UNL     1       8.872   1.230  23.496  0.00  0.00    +0.133 A 
ENDBRANCH   1   2
BRANCH   1   8
ATOM      8  C   UNL     1       9.579   4.421  23.974  0.00  0.00    +0.110 C 
BRANCH   8  11
ATOM      9  C   UNL     1      13.094   5.257  22.854  0.00  0.00    +0.109 C 
ATOM     10  C   UNL     1      11.799   5.430  23.600  0.00  0.00    +0.210 C 
ATOM     11  N   UNL     1      10.889   4.428  23.353  0.00  0.00    -0.315 N 
ATOM     12  H   UNL     1      11.171   3.628  22.802  0.00  0.00    +0.149 HD
ATOM     13  O   UNL     1      11.587   6.375  24.352  0.00  0.00    -0.276 OA
ENDBRANCH   8  11
ENDBRANCH   1   8
TORSDOF 3
ENDMDL
MODEL 8
REMARK VINA RESULT:      -3.9      1.842      2.469
REMARK  Name = 
REMARK  4 active torsions:
REMARK  status: ('A' for Active; 'I' for Inactive)
REMARK    1  A    between atoms: C_1  and  C_2
REMARK    2  A    between atoms: N_4  and  C_5
REMARK    3  A    between atoms: C_5  and  C_6
REMARK    4  A    between atoms: C_6  and  C_7
REMARK                            x       y       z     vdW  Elec       q    Type
REMARK                         _______ _______ _______ _____ _____    ______ ____
ROOT
ATOM      1  C   UNL     1      10.458   1.474  24.075  0.00  0.00    +0.073 C 
ENDROOT
BRANCH   1   2
ATOM      2  C   UNL     1      10.152   0.111  23.565  0.00  0.00    +0.037 A 
ATOM      3  N   UNL     1      10.019  -0.177  22.229  0.00  0.00    -0.348 N 
ATOM      4  H   UNL     1      10.108   0.476  21.461  0.00  0.00    +0.166 HD
ATOM      5  C   UNL     1       9.751  -1.512  22.120  0.00  0.00    +0.196 A 
ATOM      6  N   UNL     1       9.704  -2.091  23.296  0.00  0.00    -0.244 NA
ATOM      7  C   UNL     1       9.948  -1.094  24.205  0.00  0.00    +0.133 A 
ENDBRANCH   1   2
BRANCH   1   8
ATOM      8  C   UNL     1      10.485   2.506  22.944  0.00  0.00    +0.110 C 
BRANCH   8  11
ATOM      9  C   UNL     1      10.833   6.101  24.070  0.00  0.00    +0.109 C 
ATOM     10  C   UNL     1      11.280   4.762  23.549  0.00  0.00    +0.210 C 
ATOM     11  N   UNL     1      10.254   3.854  23.424  0.00  0.00    -0.315 N 
ATOM     12  H   UNL     1       9.301   4.159  23.579  0.00  0.00    +0.149 HD
ATOM     13  O   UNL     1      12.448   4.515  23.265  0.00  0.00    -0.276 OA
ENDBRANCH   8  11
ENDBRANCH   1   8
TORSDOF 3
ENDMDL
MODEL 9
REMARK VINA RESULT:      -3.9      1.649      2.215
REMARK  Name = 
REMARK  4 active torsions:
REMARK  status: ('A' for Active; 'I' for Inactive)
REMARK    1  A    between atoms: C_1  and  C_2
REMARK    2  A    between atoms: N_4  and  C_5
REMARK    3  A    between atoms: C_5  and  C_6
REMARK    4  A    between atoms: C_6  and  C_7
REMARK                            x       y       z     vdW  Elec       q    Type
REMARK                         _______ _______ _______ _____ _____    ______ ____
ROOT
ATOM      1  C   UNL     1       8.554  -1.799  22.354  0.00  0.00    +0.073 C 
ENDROOT
BRANCH   1   2
ATOM      2  C   UNL     1       8.610  -2.952  23.292  0.00  0.00    +0.037 A 
ATOM      3  N   UNL     1       9.564  -3.075  24.273  0.00  0.00    -0.348 N 
ATOM      4  H   UNL     1      10.313  -2.425  24.468  0.00  0.00    +0.166 HD
ATOM      5  C   UNL     1       9.314  -4.237  24.947  0.00  0.00    +0.196 A 
ATOM      6  N   UNL     1       8.267  -4.860  24.461  0.00  0.00    -0.244 NA
ATOM      7  C   UNL     1       7.821  -4.075  23.429  0.00  0.00    +0.133 A 
ENDBRANCH   1   2
BRANCH   1   8
ATOM      8  C   UNL     1       9.950  -1.234  22.073  0.00  0.00    +0.110 C 
BRANCH   8  11
ATOM      9  C   UNL     1      10.403   2.098  23.806  0.00  0.00    +0.109 C 
ATOM     10  C   UNL     1      10.357   0.600  23.672  0.00  0.00    +0.210 C 
ATOM     11  N   UNL     1      10.048   0.175  22.401  0.00  0.00    -0.315 N 
ATOM     12  H   UNL     1       9.981   0.854  21.654  0.00  0.00    +0.149 HD
ATOM     13  O   UNL     1      10.577  -0.158  24.611  0.00  0.00    -0.276 OA
ENDBRANCH   8  11
ENDBRANCH   1   8
TORSDOF 3
ENDMDL
