MODEL 1
REMARK VINA RESULT:      -6.6      0.000      0.000
REMARK  Name = 
REMARK  8 active torsions:
REMARK  status: ('A' for Active; 'I' for Inactive)
REMARK    1  A    between atoms: N_10  and  C_11
REMARK    2  A    between atoms: C_14  and  C_16
REMARK    3  A    between atoms: C_16  and  O_17
REMARK    4  A    between atoms: O_17  and  P_18
REMARK    5  A    between atoms: P_18  and  S_19
REMARK    6  A    between atoms: P_18  and  S_20
REMARK    7  A    between atoms: C_22  and  O_24
REMARK    8  A    between atoms: C_25  and  O_27
REMARK                            x       y       z     vdW  Elec       q    Type
REMARK                         _______ _______ _______ _____ _____    ______ ____
ROOT
ATOM      1  C   UNL     1       9.237  -3.249  24.275  0.00  0.00    +0.253 C 
ATOM      2  C   UNL     1       8.491  -3.160  25.614  0.00  0.00    +0.195 C 
ATOM      3  C   UNL     1       7.055  -3.581  25.288  0.00  0.00    +0.178 C 
ATOM      4  C   UNL     1       7.130  -4.108  23.851  0.00  0.00    +0.178 C 
ATOM      5  O   UNL     1       8.528  -4.314  23.571  0.00  0.00    -0.346 OA
ENDROOT
BRANCH   1  13
ATOM      6  N   UNL     1       9.959   2.105  21.508  0.00  0.00    -0.341 N 
ATOM      7  H   UNL     1       9.922   1.622  20.618  0.00  0.00    +0.144 HD
ATOM      8  H   UNL     1      10.590   2.892  21.593  0.00  0.00    +0.144 HD
ATOM      9  C   UNL     1      10.041   1.248  22.599  0.00  0.00    +0.147 A 
ATOM     10  C   UNL     1       9.645  -0.099  22.554  0.00  0.00    +0.147 A 
ATOM     11  N   UNL     1       9.148  -0.883  21.536  0.00  0.00    -0.231 NA
ATOM     12  C   UNL     1       8.976  -2.067  22.080  0.00  0.00    +0.203 A 
ATOM     13  N   UNL     1       9.293  -2.078  23.419  0.00  0.00    -0.286 N 
ATOM     14  C   UNL     1       9.782  -0.835  23.722  0.00  0.00    +0.167 A 
ATOM     15  N   UNL     1      10.289  -0.401  24.885  0.00  0.00    -0.216 NA
ATOM     16  C   UNL     1      10.636   0.902  24.811  0.00  0.00    +0.225 A 
ATOM     17  N   UNL     1      10.551   1.733  23.753  0.00  0.00    -0.219 NA
ENDBRANCH   1  13
BRANCH   2  18
ATOM     18  O   UNL     1       9.050  -4.117  26.545  0.00  0.00    -0.385 OA
ATOM     19  H   UNL     1       9.265  -3.655  27.374  0.00  0.00    +0.210 HD
ENDBRANCH   2  18
BRANCH   3  20
ATOM     20  O   UNL     1       6.178  -2.465  25.368  0.00  0.00    -0.386 OA
ATOM     21  H   UNL     1       6.224  -1.981  24.522  0.00  0.00    +0.210 HD
ENDBRANCH   3  20
BRANCH   4  22
ATOM     22  C   UNL     1       6.332  -5.393  23.610  0.00  0.00    +0.203 C 
BRANCH  22  23
ATOM     23  O   UNL     1       5.045  -5.282  24.207  0.00  0.00    -0.310 OA
BRANCH  23  24
ATOM     24  P   UNL     1       4.197  -6.771  24.439  0.00  0.00    +0.309 P 
ATOM     25  O   UNL     1       3.437  -8.105  24.646  0.00  0.00    -0.267 OA
BRANCH  24  26
ATOM     26  S   UNL     1       2.532  -5.982  23.276  0.00  0.00    -0.077 S 
ATOM     27  H   UNL     1       2.540  -4.801  23.904  0.00  0.00    +0.112 HD
ENDBRANCH  24  26
BRANCH  24  28
ATOM     28  S   UNL     1       3.798  -6.182  26.495  0.00  0.00    -0.077 S 
ATOM     29  H   UNL     1       4.219  -4.924  26.328  0.00  0.00    +0.112 HD
ENDBRANCH  24  28
ENDBRANCH  23  24
ENDBRANCH  22  23
ENDBRANCH   4  22
TORSDOF 8
ENDMDL
MODEL 2
REMARK VINA RESULT:      -6.4      1.290      1.995
REMARK  Name = 
REMARK  8 active torsions:
REMARK  status: ('A' for Active; 'I' for Inactive)
REMARK    1  A    between atoms: N_10  and  C_11
REMARK    2  A    between atoms: C_14  and  C_16
REMARK    3  A    between atoms: C_16  and  O_17
REMARK    4  A    between atoms: O_17  and  P_18
REMARK    5  A    between atoms: P_18  and  S_19
REMARK    6  A    between atoms: P_18  and  S_20
REMARK    7  A    between atoms: C_22  and  O_24
REMARK    8  A    between atoms: C_25  and  O_27
REMARK                            x       y       z     vdW  Elec       q    Type
REMARK                         _______ _______ _______ _____ _____    ______ ____
ROOT
ATOM      1  C   UNL     1       9.268  -3.864  24.517  0.00  0.00    +0.253 C 
ATOM      2  C   UNL     1       9.164  -4.676  25.815  0.00  0.00    +0.195 C 
ATOM      3  C   UNL     1       7.662  -4.905  26.011  0.00  0.00    +0.178 C 
ATOM      4  C   UNL     1       7.030  -4.421  24.702  0.00  0.00    +0.178 C 
ATOM      5  O   UNL     1       8.107  -4.310  23.752  0.00  0.00    -0.346 OA
ENDROOT
BRANCH   1  13
ATOM      6  N   UNL     1       9.292   2.159  23.767  0.00  0.00    -0.341 N 
ATOM      7  H   UNL     1       8.784   2.246  24.639  0.00  0.00    +0.144 HD
ATOM      8  H   UNL     1       9.063   2.803  23.021  0.00  0.00    +0.144 HD
ATOM      9  C   UNL     1       9.397   0.850  23.314  0.00  0.00    +0.147 A 
ATOM     10  C   UNL     1       9.257  -0.270  24.152  0.00  0.00    +0.147 A 
ATOM     11  N   UNL     1       8.980  -0.390  25.496  0.00  0.00    -0.231 NA
ATOM     12  C   UNL     1       8.956  -1.686  25.716  0.00  0.00    +0.203 A 
ATOM     13  N   UNL     1       9.253  -2.415  24.588  0.00  0.00    -0.286 N 
ATOM     14  C   UNL     1       9.389  -1.518  23.560  0.00  0.00    +0.167 A 
ATOM     15  N   UNL     1       9.602  -1.768  22.261  0.00  0.00    -0.216 NA
ATOM     16  C   UNL     1       9.718  -0.623  21.555  0.00  0.00    +0.225 A 
ATOM     17  N   UNL     1       9.621   0.647  21.997  0.00  0.00    -0.219 NA
ENDBRANCH   1  13
BRANCH   2  18
ATOM     18  O   UNL     1       9.804  -5.961  25.636  0.00  0.00    -0.385 OA
ATOM     19  H   UNL     1      10.124  -6.274  26.501  0.00  0.00    +0.210 HD
ENDBRANCH   2  18
BRANCH   3  20
ATOM     20  O   UNL     1       7.181  -4.143  27.112  0.00  0.00    -0.386 OA
ATOM     21  H   UNL     1       7.672  -3.301  27.136  0.00  0.00    +0.210 HD
ENDBRANCH   3  20
BRANCH   4  22
ATOM     22  C   UNL     1       5.922  -5.333  24.164  0.00  0.00    +0.203 C 
BRANCH  22  23
ATOM     23  O   UNL     1       5.185  -5.888  25.247  0.00  0.00    -0.310 OA
BRANCH  23  24
ATOM     24  P   UNL     1       4.023  -7.096  24.819  0.00  0.00    +0.309 P 
ATOM     25  O   UNL     1       2.982  -8.177  24.436  0.00  0.00    -0.267 OA
BRANCH  24  26
ATOM     26  S   UNL     1       3.244  -5.773  23.273  0.00  0.00    -0.077 S 
ATOM     27  H   UNL     1       1.970  -5.954  23.638  0.00  0.00    +0.112 HD
ENDBRANCH  24  26
BRANCH  24  28
ATOM     28  S   UNL     1       2.904  -6.604  26.620  0.00  0.00    -0.077 S 
ATOM     29  H   UNL     1       2.145  -5.679  26.023  0.00  0.00    +0.112 HD
ENDBRANCH  24  28
ENDBRANCH  23  24
ENDBRANCH  22  23
ENDBRANCH   4  22
TORSDOF 8
ENDMDL
MODEL 3
REMARK VINA RESULT:      -6.3      5.267      7.215
REMARK  Name = 
REMARK  8 active torsions:
REMARK  status: ('A' for Active; 'I' for Inactive)
REMARK    1  A    between atoms: N_10  and  C_11
REMARK    2  A    between atoms: C_14  and  C_16
REMARK    3  A    between atoms: C_16  and  O_17
REMARK    4  A    between atoms: O_17  and  P_18
REMARK    5  A    between atoms: P_18  and  S_19
REMARK    6  A    between atoms: P_18  and  S_20
REMARK    7  A    between atoms: C_22  and  O_24
REMARK    8  A    between atoms: C_25  and  O_27
REMARK                            x       y       z     vdW  Elec       q    Type
REMARK                         _______ _______ _______ _____ _____    ______ ____
ROOT
ATOM      1  C   UNL     1       8.922  -2.376  23.095  0.00  0.00    +0.253 C 
ATOM      2  C   UNL     1       8.470  -1.419  21.983  0.00  0.00    +0.195 C 
ATOM      3  C   UNL     1       7.972  -0.173  22.720  0.00  0.00    +0.178 C 
ATOM      4  C   UNL     1       8.389  -0.400  24.177  0.00  0.00    +0.178 C 
ATOM      5  O   UNL     1       9.354  -1.470  24.156  0.00  0.00    -0.346 OA
ENDROOT
BRANCH   1  13
ATOM      6  N   UNL     1       5.589  -6.376  26.214  0.00  0.00    -0.341 N 
ATOM      7  H   UNL     1       4.770  -6.042  25.720  0.00  0.00    +0.144 HD
ATOM      8  H   UNL     1       5.481  -6.636  27.186  0.00  0.00    +0.144 HD
ATOM      9  C   UNL     1       6.719  -5.595  26.004  0.00  0.00    +0.147 A 
ATOM     10  C   UNL     1       6.873  -4.743  24.897  0.00  0.00    +0.147 A 
ATOM     11  N   UNL     1       6.043  -4.441  23.840  0.00  0.00    -0.231 NA
ATOM     12  C   UNL     1       6.717  -3.565  23.127  0.00  0.00    +0.203 A 
ATOM     13  N   UNL     1       7.968  -3.320  23.645  0.00  0.00    -0.286 N 
ATOM     14  C   UNL     1       8.058  -4.024  24.817  0.00  0.00    +0.167 A 
ATOM     15  N   UNL     1       9.059  -4.033  25.708  0.00  0.00    -0.216 NA
ATOM     16  C   UNL     1       8.801  -4.882  26.725  0.00  0.00    +0.225 A 
ATOM     17  N   UNL     1       7.706  -5.643  26.925  0.00  0.00    -0.219 NA
ENDBRANCH   1  13
BRANCH   2  18
ATOM     18  O   UNL     1       9.609  -1.047  21.171  0.00  0.00    -0.385 OA
ATOM     19  H   UNL     1      10.103  -1.853  20.938  0.00  0.00    +0.210 HD
ENDBRANCH   2  18
BRANCH   3  20
ATOM     20  O   UNL     1       6.557  -0.064  22.614  0.00  0.00    -0.386 OA
ATOM     21  H   UNL     1       6.185  -0.965  22.591  0.00  0.00    +0.210 HD
ENDBRANCH   3  20
BRANCH   4  22
ATOM     22  C   UNL     1       8.966   0.840  24.866  0.00  0.00    +0.203 C 
BRANCH  22  23
ATOM     23  O   UNL     1       8.064   1.932  24.730  0.00  0.00    -0.310 OA
BRANCH  23  24
ATOM     24  P   UNL     1       8.790   3.461  24.373  0.00  0.00    +0.309 P 
ATOM     25  O   UNL     1       9.438   4.830  24.053  0.00  0.00    -0.267 OA
BRANCH  24  26
ATOM     26  S   UNL     1       7.474   3.661  22.648  0.00  0.00    -0.077 S 
ATOM     27  H   UNL     1       8.387   4.311  21.918  0.00  0.00    +0.112 HD
ENDBRANCH  24  26
BRANCH  24  28
ATOM     28  S   UNL     1      10.551   2.414  23.641  0.00  0.00    -0.077 S 
ATOM     29  H   UNL     1       9.872   1.667  22.762  0.00  0.00    +0.112 HD
ENDBRANCH  24  28
ENDBRANCH  23  24
ENDBRANCH  22  23
ENDBRANCH   4  22
TORSDOF 8
ENDMDL
MODEL 4
REMARK VINA RESULT:      -6.3      5.179      7.588
REMARK  Name = 
REMARK  8 active torsions:
REMARK  status: ('A' for Active; 'I' for Inactive)
REMARK    1  A    between atoms: N_10  and  C_11
REMARK    2  A    between atoms: C_14  and  C_16
REMARK    3  A    between atoms: C_16  and  O_17
REMARK    4  A    between atoms: O_17  and  P_18
REMARK    5  A    between atoms: P_18  and  S_19
REMARK    6  A    between atoms: P_18  and  S_20
REMARK    7  A    between atoms: C_22  and  O_24
REMARK    8  A    between atoms: C_25  and  O_27
REMARK                            x       y       z     vdW  Elec       q    Type
REMARK                         _______ _______ _______ _____ _____    ______ ____
ROOT
ATOM      1  C   UNL     1       8.215  -3.702  24.486  0.00  0.00    +0.253 C 
ATOM      2  C   UNL     1       7.283  -3.056  23.452  0.00  0.00    +0.195 C 
ATOM      3  C   UNL     1       6.936  -1.687  24.043  0.00  0.00    +0.178 C 
ATOM      4  C   UNL     1       7.872  -1.544  25.248  0.00  0.00    +0.178 C 
ATOM      5  O   UNL     1       8.886  -2.555  25.090  0.00  0.00    -0.346 OA
ENDROOT
BRANCH   1  13
ATOM      6  N   UNL     1       5.101  -7.381  28.175  0.00  0.00    -0.341 N 
ATOM      7  H   UNL     1       5.948  -7.516  28.715  0.00  0.00    +0.144 HD
ATOM      8  H   UNL     1       4.481  -8.173  28.063  0.00  0.00    +0.144 HD
ATOM      9  C   UNL     1       5.310  -6.707  26.978  0.00  0.00    +0.147 A 
ATOM     10  C   UNL     1       6.427  -5.889  26.738  0.00  0.00    +0.147 A 
ATOM     11  N   UNL     1       7.525  -5.574  27.508  0.00  0.00    -0.231 NA
ATOM     12  C   UNL     1       8.245  -4.777  26.750  0.00  0.00    +0.203 A 
ATOM     13  N   UNL     1       7.643  -4.518  25.540  0.00  0.00    -0.286 N 
ATOM     14  C   UNL     1       6.502  -5.276  25.495  0.00  0.00    +0.167 A 
ATOM     15  N   UNL     1       5.633  -5.412  24.483  0.00  0.00    -0.216 NA
ATOM     16  C   UNL     1       4.606  -6.219  24.826  0.00  0.00    +0.225 A 
ATOM     17  N   UNL     1       4.403  -6.869  25.990  0.00  0.00    -0.219 NA
ENDBRANCH   1  13
BRANCH   2  18
ATOM     18  O   UNL     1       8.000  -2.852  22.212  0.00  0.00    -0.385 OA
ATOM     19  H   UNL     1       7.765  -3.566  21.594  0.00  0.00    +0.210 HD
ENDBRANCH   2  18
BRANCH   3  20
ATOM     20  O   UNL     1       5.575  -1.653  24.459  0.00  0.00    -0.386 OA
ATOM     21  H   UNL     1       5.412  -0.795  24.892  0.00  0.00    +0.210 HD
ENDBRANCH   3  20
BRANCH   4  22
ATOM     22  C   UNL     1       8.504  -0.156  25.392  0.00  0.00    +0.203 C 
BRANCH  22  23
ATOM     23  O   UNL     1       9.818  -0.165  24.849  0.00  0.00    -0.310 OA
BRANCH  23  24
ATOM     24  P   UNL     1      10.317   1.297  24.071  0.00  0.00    +0.309 P 
ATOM     25  O   UNL     1      10.764   2.606  23.375  0.00  0.00    -0.267 OA
BRANCH  24  26
ATOM     26  S   UNL     1       8.527   2.285  24.823  0.00  0.00    -0.077 S 
ATOM     27  H   UNL     1       7.975   2.398  23.610  0.00  0.00    +0.112 HD
ENDBRANCH  24  26
BRANCH  24  28
ATOM     28  S   UNL     1       9.742   0.433  22.158  0.00  0.00    -0.077 S 
ATOM     29  H   UNL     1      10.742   1.005  21.479  0.00  0.00    +0.112 HD
ENDBRANCH  24  28
ENDBRANCH  23  24
ENDBRANCH  22  23
ENDBRANCH   4  22
TORSDOF 8
ENDMDL
MODEL 5
REMARK VINA RESULT:      -6.2      5.152      7.329
REMARK  Name = 
REMARK  8 active torsions:
REMARK  status: ('A' for Active; 'I' for Inactive)
REMARK    1  A    between atoms: N_10  and  C_11
REMARK    2  A    between atoms: C_14  and  C_16
REMARK    3  A    between atoms: C_16  and  O_17
REMARK    4  A    between atoms: O_17  and  P_18
REMARK    5  A    between atoms: P_18  and  S_19
REMARK    6  A    between atoms: P_18  and  S_20
REMARK    7  A    between atoms: C_22  and  O_24
REMARK    8  A    between atoms: C_25  and  O_27
REMARK                            x       y       z     vdW  Elec       q    Type
REMARK                         _______ _______ _______ _____ _____    ______ ____
ROOT
ATOM      1  C   UNL     1       9.539  -2.540  23.601  0.00  0.00    +0.253 C 
ATOM      2  C   UNL     1       8.983  -1.857  22.343  0.00  0.00    +0.195 C 
ATOM      3  C   UNL     1       8.358  -0.555  22.852  0.00  0.00    +0.178 C 
ATOM      4  C   UNL     1       8.803  -0.466  24.316  0.00  0.00    +0.178 C 
ATOM      5  O   UNL     1       9.876  -1.415  24.468  0.00  0.00    -0.346 OA
ENDROOT
BRANCH   1  13
ATOM      6  N   UNL     1       5.386  -6.369  25.821  0.00  0.00    -0.341 N 
ATOM      7  H   UNL     1       6.101  -6.757  26.425  0.00  0.00    +0.144 HD
ATOM      8  H   UNL     1       4.697  -7.003  25.437  0.00  0.00    +0.144 HD
ATOM      9  C   UNL     1       5.883  -5.493  24.864  0.00  0.00    +0.147 A 
ATOM     10  C   UNL     1       7.121  -4.839  24.986  0.00  0.00    +0.147 A 
ATOM     11  N   UNL     1       8.101  -4.886  25.954  0.00  0.00    -0.231 NA
ATOM     12  C   UNL     1       9.037  -4.073  25.519  0.00  0.00    +0.203 A 
ATOM     13  N   UNL     1       8.692  -3.461  24.336  0.00  0.00    -0.286 N 
ATOM     14  C   UNL     1       7.488  -3.990  23.951  0.00  0.00    +0.167 A 
ATOM     15  N   UNL     1       6.798  -3.756  22.827  0.00  0.00    -0.216 NA
ATOM     16  C   UNL     1       5.632  -4.437  22.818  0.00  0.00    +0.225 A 
ATOM     17  N   UNL     1       5.148  -5.283  23.751  0.00  0.00    -0.219 NA
ENDBRANCH   1  13
BRANCH   2  18
ATOM     18  O   UNL     1      10.072  -1.525  21.450  0.00  0.00    -0.385 OA
ATOM     19  H   UNL     1      10.914  -1.701  21.906  0.00  0.00    +0.210 HD
ENDBRANCH   2  18
BRANCH   3  20
ATOM     20  O   UNL     1       6.940  -0.614  22.762  0.00  0.00    -0.386 OA
ATOM     21  H   UNL     1       6.589  -0.845  23.643  0.00  0.00    +0.210 HD
ENDBRANCH   3  20
BRANCH   4  22
ATOM     22  C   UNL     1       9.248   0.933  24.753  0.00  0.00    +0.203 C 
BRANCH  22  23
ATOM     23  O   UNL     1       8.198   1.866  24.530  0.00  0.00    -0.310 OA
BRANCH  23  24
ATOM     24  P   UNL     1       8.697   3.467  24.103  0.00  0.00    +0.309 P 
ATOM     25  O   UNL     1       9.144   4.899  23.721  0.00  0.00    -0.267 OA
BRANCH  24  26
ATOM     26  S   UNL     1       7.385   3.392  22.366  0.00  0.00    -0.077 S 
ATOM     27  H   UNL     1       6.268   3.431  23.100  0.00  0.00    +0.112 HD
ENDBRANCH  24  26
BRANCH  24  28
ATOM     28  S   UNL     1      10.600   2.654  23.428  0.00  0.00    -0.077 S 
ATOM     29  H   UNL     1      11.220   3.839  23.409  0.00  0.00    +0.112 HD
ENDBRANCH  24  28
ENDBRANCH  23  24
ENDBRANCH  22  23
ENDBRANCH   4  22
TORSDOF 8
ENDMDL
MODEL 6
REMARK VINA RESULT:      -6.2      2.167      3.008
REMARK  Name = 
REMARK  8 active torsions:
REMARK  status: ('A' for Active; 'I' for Inactive)
REMARK    1  A    between atoms: N_10  and  C_11
REMARK    2  A    between atoms: C_14  and  C_16
REMARK    3  A    between atoms: C_16  and  O_17
REMARK    4  A    between atoms: O_17  and  P_18
REMARK    5  A    between atoms: P_18  and  S_19
REMARK    6  A    between atoms: P_18  and  S_20
REMARK    7  A    between atoms: C_22  and  O_24
REMARK    8  A    between atoms: C_25  and  O_27
REMARK                            x       y       z     vdW  Elec       q    Type
REMARK                         _______ _______ _______ _____ _____    ______ ____
ROOT
ATOM      1  C   UNL     1       7.261  -2.863  23.036  0.00  0.00    +0.253 C 
ATOM      2  C   UNL     1       7.822  -4.288  23.145  0.00  0.00    +0.195 C 
ATOM      3  C   UNL     1       8.303  -4.407  24.593  0.00  0.00    +0.178 C 
ATOM      4  C   UNL     1       7.774  -3.141  25.275  0.00  0.00    +0.178 C 
ATOM      5  O   UNL     1       6.781  -2.591  24.388  0.00  0.00    -0.346 OA
ENDROOT
BRANCH   1  13
ATOM      6  N   UNL     1      10.170   2.274  21.625  0.00  0.00    -0.341 N 
ATOM      7  H   UNL     1      11.047   1.784  21.754  0.00  0.00    +0.144 HD
ATOM      8  H   UNL     1      10.123   3.243  21.914  0.00  0.00    +0.144 HD
ATOM      9  C   UNL     1       9.063   1.548  22.048  0.00  0.00    +0.147 A 
ATOM     10  C   UNL     1       9.065   0.150  22.188  0.00  0.00    +0.147 A 
ATOM     11  N   UNL     1      10.049  -0.797  22.002  0.00  0.00    -0.231 NA
ATOM     12  C   UNL     1       9.472  -1.939  22.301  0.00  0.00    +0.203 A 
ATOM     13  N   UNL     1       8.144  -1.786  22.628  0.00  0.00    -0.286 N 
ATOM     14  C   UNL     1       7.885  -0.441  22.618  0.00  0.00    +0.167 A 
ATOM     15  N   UNL     1       6.750   0.191  22.948  0.00  0.00    -0.216 NA
ATOM     16  C   UNL     1       6.865   1.525  22.777  0.00  0.00    +0.225 A 
ATOM     17  N   UNL     1       7.938   2.228  22.362  0.00  0.00    -0.219 NA
ENDBRANCH   1  13
BRANCH   2  18
ATOM     18  O   UNL     1       6.757  -5.245  22.935  0.00  0.00    -0.385 OA
ATOM     19  H   UNL     1       7.095  -6.136  23.135  0.00  0.00    +0.210 HD
ENDBRANCH   2  18
BRANCH   3  20
ATOM     20  O   UNL     1       9.724  -4.448  24.645  0.00  0.00    -0.386 OA
ATOM     21  H   UNL     1       9.990  -4.585  25.573  0.00  0.00    +0.210 HD
ENDBRANCH   3  20
BRANCH   4  22
ATOM     22  C   UNL     1       7.186  -3.377  26.670  0.00  0.00    +0.203 C 
BRANCH  22  23
ATOM     23  O   UNL     1       7.231  -4.763  26.985  0.00  0.00    -0.310 OA
BRANCH  23  24
ATOM     24  P   UNL     1       5.862  -5.381  27.843  0.00  0.00    +0.309 P 
ATOM     25  O   UNL     1       4.636  -5.934  28.611  0.00  0.00    -0.267 OA
BRANCH  24  26
ATOM     26  S   UNL     1       5.191  -6.370  26.022  0.00  0.00    -0.077 S 
ATOM     27  H   UNL     1       6.433  -6.550  25.559  0.00  0.00    +0.112 HD
ENDBRANCH  24  26
BRANCH  24  28
ATOM     28  S   UNL     1       4.975  -3.394  27.783  0.00  0.00    -0.077 S 
ATOM     29  H   UNL     1       3.810  -3.814  27.278  0.00  0.00    +0.112 HD
ENDBRANCH  24  28
ENDBRANCH  23  24
ENDBRANCH  22  23
ENDBRANCH   4  22
TORSDOF 8
ENDMDL
MODEL 7
REMARK VINA RESULT:      -6.2      2.018      3.088
REMARK  Name = 
REMARK  8 active torsions:
REMARK  status: ('A' for Active; 'I' for Inactive)
REMARK    1  A    between atoms: N_10  and  C_11
REMARK    2  A    between atoms: C_14  and  C_16
REMARK    3  A    between atoms: C_16  and  O_17
REMARK    4  A    between atoms: O_17  and  P_18
REMARK    5  A    between atoms: P_18  and  S_19
REMARK    6  A    between atoms: P_18  and  S_20
REMARK    7  A    between atoms: C_22  and  O_24
REMARK    8  A    between atoms: C_25  and  O_27
REMARK                            x       y       z     vdW  Elec       q    Type
REMARK                         _______ _______ _______ _____ _____    ______ ____
ROOT
ATOM      1  C   UNL     1       7.586  -3.255  24.247  0.00  0.00    +0.253 C 
ATOM      2  C   UNL     1       8.278  -4.511  23.699  0.00  0.00    +0.195 C 
ATOM      3  C   UNL     1       8.762  -5.263  24.942  0.00  0.00    +0.178 C 
ATOM      4  C   UNL     1       8.114  -4.518  26.114  0.00  0.00    +0.178 C 
ATOM      5  O   UNL     1       7.077  -3.696  25.543  0.00  0.00    -0.346 OA
ENDROOT
BRANCH   1  13
ATOM      6  N   UNL     1      10.795   1.891  23.996  0.00  0.00    -0.341 N 
ATOM      7  H   UNL     1      10.505   2.090  24.947  0.00  0.00    +0.144 HD
ATOM      8  H   UNL     1      10.877   2.670  23.355  0.00  0.00    +0.144 HD
ATOM      9  C   UNL     1      10.127   0.814  23.427  0.00  0.00    +0.147 A 
ATOM     10  C   UNL     1       9.488  -0.184  24.183  0.00  0.00    +0.147 A 
ATOM     11  N   UNL     1       9.326  -0.355  25.540  0.00  0.00    -0.231 NA
ATOM     12  C   UNL     1       8.627  -1.462  25.656  0.00  0.00    +0.203 A 
ATOM     13  N   UNL     1       8.366  -2.046  24.438  0.00  0.00    -0.286 N 
ATOM     14  C   UNL     1       8.861  -1.202  23.478  0.00  0.00    +0.167 A 
ATOM     15  N   UNL     1       8.773  -1.315  22.145  0.00  0.00    -0.216 NA
ATOM     16  C   UNL     1       9.419  -0.304  21.526  0.00  0.00    +0.225 A 
ATOM     17  N   UNL     1      10.071   0.739  22.079  0.00  0.00    -0.219 NA
ENDBRANCH   1  13
BRANCH   2  18
ATOM     18  O   UNL     1       7.309  -5.337  23.011  0.00  0.00    -0.385 OA
ATOM     19  H   UNL     1       7.746  -6.160  22.729  0.00  0.00    +0.210 HD
ENDBRANCH   2  18
BRANCH   3  20
ATOM     20  O   UNL     1      10.180  -5.209  25.037  0.00  0.00    -0.386 OA
ATOM     21  H   UNL     1      10.480  -5.987  25.542  0.00  0.00    +0.210 HD
ENDBRANCH   3  20
BRANCH   4  22
ATOM     22  C   UNL     1       7.545  -5.433  27.202  0.00  0.00    +0.203 C 
BRANCH  22  23
ATOM     23  O   UNL     1       6.331  -6.022  26.753  0.00  0.00    -0.310 OA
BRANCH  23  24
ATOM     24  P   UNL     1       5.292  -6.637  27.993  0.00  0.00    +0.309 P 
ATOM     25  O   UNL     1       4.363  -7.187  29.102  0.00  0.00    -0.267 OA
BRANCH  24  26
ATOM     26  S   UNL     1       3.699  -6.857  26.523  0.00  0.00    -0.077 S 
ATOM     27  H   UNL     1       2.896  -7.516  27.366  0.00  0.00    +0.112 HD
ENDBRANCH  24  26
BRANCH  24  28
ATOM     28  S   UNL     1       5.087  -4.615  28.771  0.00  0.00    -0.077 S 
ATOM     29  H   UNL     1       3.893  -4.839  29.332  0.00  0.00    +0.112 HD
ENDBRANCH  24  28
ENDBRANCH  23  24
ENDBRANCH  22  23
ENDBRANCH   4  22
TORSDOF 8
ENDMDL
MODEL 8
REMARK VINA RESULT:      -6.2      5.463      7.720
REMARK  Name = 
REMARK  8 active torsions:
REMARK  status: ('A' for Active; 'I' for Inactive)
REMARK    1  A    between atoms: N_10  and  C_11
REMARK    2  A    between atoms: C_14  and  C_16
REMARK    3  A    between atoms: C_16  and  O_17
REMARK    4  A    between atoms: O_17  and  P_18
REMARK    5  A    between atoms: P_18  and  S_19
REMARK    6  A    between atoms: P_18  and  S_20
REMARK    7  A    between atoms: C_22  and  O_24
REMARK    8  A    between atoms: C_25  and  O_27
REMARK                            x       y       z     vdW  Elec       q    Type
REMARK                         _______ _______ _______ _____ _____    ______ ____
ROOT
ATOM      1  C   UNL     1       8.429  -5.150  26.156  0.00  0.00    +0.253 C 
ATOM      2  C   UNL     1       9.057  -4.959  24.768  0.00  0.00    +0.195 C 
ATOM      3  C   UNL     1       8.745  -3.507  24.396  0.00  0.00    +0.178 C 
ATOM      4  C   UNL     1       8.175  -2.899  25.682  0.00  0.00    +0.178 C 
ATOM      5  O   UNL     1       8.510  -3.815  26.742  0.00  0.00    -0.346 OA
ENDROOT
BRANCH   1  13
ATOM      6  N   UNL     1       2.880  -7.142  27.599  0.00  0.00    -0.341 N 
ATOM      7  H   UNL     1       2.537  -6.736  26.736  0.00  0.00    +0.144 HD
ATOM      8  H   UNL     1       2.279  -7.102  28.411  0.00  0.00    +0.144 HD
ATOM      9  C   UNL     1       4.189  -6.781  27.898  0.00  0.00    +0.147 A 
ATOM     10  C   UNL     1       5.101  -6.319  26.935  0.00  0.00    +0.147 A 
ATOM     11  N   UNL     1       4.979  -6.085  25.582  0.00  0.00    -0.231 NA
ATOM     12  C   UNL     1       6.160  -5.642  25.213  0.00  0.00    +0.203 A 
ATOM     13  N   UNL     1       7.061  -5.622  26.253  0.00  0.00    -0.286 N 
ATOM     14  C   UNL     1       6.376  -5.997  27.379  0.00  0.00    +0.167 A 
ATOM     15  N   UNL     1       6.818  -6.049  28.643  0.00  0.00    -0.216 NA
ATOM     16  C   UNL     1       5.859  -6.503  29.478  0.00  0.00    +0.225 A 
ATOM     17  N   UNL     1       4.591  -6.857  29.185  0.00  0.00    -0.219 NA
ENDBRANCH   1  13
BRANCH   2  18
ATOM     18  O   UNL     1      10.493  -5.111  24.860  0.00  0.00    -0.385 OA
ATOM     19  H   UNL     1      10.830  -4.490  25.530  0.00  0.00    +0.210 HD
ENDBRANCH   2  18
BRANCH   3  20
ATOM     20  O   UNL     1       7.784  -3.456  23.348  0.00  0.00    -0.386 OA
ATOM     21  H   UNL     1       8.131  -3.967  22.594  0.00  0.00    +0.210 HD
ENDBRANCH   3  20
BRANCH   4  22
ATOM     22  C   UNL     1       8.693  -1.492  25.995  0.00  0.00    +0.203 C 
BRANCH  22  23
ATOM     23  O   UNL     1       8.607  -0.676  24.834  0.00  0.00    -0.310 OA
BRANCH  23  24
ATOM     24  P   UNL     1      10.024   0.243  24.458  0.00  0.00    +0.309 P 
ATOM     25  O   UNL     1      11.292   1.066  24.123  0.00  0.00    -0.267 OA
BRANCH  24  26
ATOM     26  S   UNL     1       8.828   2.064  24.485  0.00  0.00    -0.077 S 
ATOM     27  H   UNL     1       9.886   2.865  24.317  0.00  0.00    +0.112 HD
ENDBRANCH  24  26
BRANCH  24  28
ATOM     28  S   UNL     1       9.915  -0.492  22.413  0.00  0.00    -0.077 S 
ATOM     29  H   UNL     1      11.212  -0.812  22.346  0.00  0.00    +0.112 HD
ENDBRANCH  24  28
ENDBRANCH  23  24
ENDBRANCH  22  23
ENDBRANCH   4  22
TORSDOF 8
ENDMDL
MODEL 9
REMARK VINA RESULT:      -6.1      4.947      7.325
REMARK  Name = 
REMARK  8 active torsions:
REMARK  status: ('A' for Active; 'I' for Inactive)
REMARK    1  A    between atoms: N_10  and  C_11
REMARK    2  A    between atoms: C_14  and  C_16
REMARK    3  A    between atoms: C_16  and  O_17
REMARK    4  A    between atoms: O_17  and  P_18
REMARK    5  A    between atoms: P_18  and  S_19
REMARK    6  A    between atoms: P_18  and  S_20
REMARK    7  A    between atoms: C_22  and  O_24
REMARK    8  A    between atoms: C_25  and  O_27
REMARK                            x       y       z     vdW  Elec       q    Type
REMARK                         _______ _______ _______ _____ _____    ______ ____
ROOT
ATOM      1  C   UNL     1       7.951  -5.137  23.692  0.00  0.00    +0.253 C 
ATOM      2  C   UNL     1       6.819  -5.199  22.657  0.00  0.00    +0.195 C 
ATOM      3  C   UNL     1       6.460  -3.735  22.385  0.00  0.00    +0.178 C 
ATOM      4  C   UNL     1       7.558  -2.936  23.093  0.00  0.00    +0.178 C 
ATOM      5  O   UNL     1       8.614  -3.873  23.383  0.00  0.00    -0.346 OA
ENDROOT
BRANCH   1  13
ATOM      6  N   UNL     1       5.628  -5.604  29.280  0.00  0.00    -0.341 N 
ATOM      7  H   UNL     1       6.572  -5.680  29.640  0.00  0.00    +0.144 HD
ATOM      8  H   UNL     1       4.906  -6.155  29.728  0.00  0.00    +0.144 HD
ATOM      9  C   UNL     1       5.556  -5.674  27.894  0.00  0.00    +0.147 A 
ATOM     10  C   UNL     1       6.647  -5.402  27.051  0.00  0.00    +0.147 A 
ATOM     11  N   UNL     1       7.955  -5.058  27.312  0.00  0.00    -0.231 NA
ATOM     12  C   UNL     1       8.513  -4.948  26.127  0.00  0.00    +0.203 A 
ATOM     13  N   UNL     1       7.617  -5.158  25.104  0.00  0.00    -0.286 N 
ATOM     14  C   UNL     1       6.427  -5.511  25.684  0.00  0.00    +0.167 A 
ATOM     15  N   UNL     1       5.287  -5.883  25.085  0.00  0.00    -0.216 NA
ATOM     16  C   UNL     1       4.314  -6.120  25.991  0.00  0.00    +0.225 A 
ATOM     17  N   UNL     1       4.384  -6.047  27.335  0.00  0.00    -0.219 NA
ENDBRANCH   1  13
BRANCH   2  18
ATOM     18  O   UNL     1       7.315  -5.785  21.430  0.00  0.00    -0.385 OA
ATOM     19  H   UNL     1       6.816  -6.601  21.250  0.00  0.00    +0.210 HD
ENDBRANCH   2  18
BRANCH   3  20
ATOM     20  O   UNL     1       5.183  -3.425  22.930  0.00  0.00    -0.386 OA
ATOM     21  H   UNL     1       4.660  -2.976  22.240  0.00  0.00    +0.210 HD
ENDBRANCH   3  20
BRANCH   4  22
ATOM     22  C   UNL     1       8.092  -1.748  22.286  0.00  0.00    +0.203 C 
BRANCH  22  23
ATOM     23  O   UNL     1       9.283  -1.253  22.885  0.00  0.00    -0.310 OA
BRANCH  23  24
ATOM     24  P   UNL     1       9.769   0.331  22.386  0.00  0.00    +0.309 P 
ATOM     25  O   UNL     1      10.204   1.748  21.940  0.00  0.00    -0.267 OA
BRANCH  24  26
ATOM     26  S   UNL     1      10.684   0.644  24.338  0.00  0.00    -0.077 S 
ATOM     27  H   UNL     1      11.664   1.414  23.852  0.00  0.00    +0.112 HD
ENDBRANCH  24  26
BRANCH  24  28
ATOM     28  S   UNL     1       7.707   0.991  22.600  0.00  0.00    -0.077 S 
ATOM     29  H   UNL     1       7.396   0.786  21.316  0.00  0.00    +0.112 HD
ENDBRANCH  24  28
ENDBRANCH  23  24
ENDBRANCH  22  23
ENDBRANCH   4  22
TORSDOF 8
ENDMDL
