MODEL 1
REMARK VINA RESULT:      -7.3      0.000      0.000
REMARK  Name = 
REMARK  11 active torsions:
REMARK  status: ('A' for Active; 'I' for Inactive)
REMARK    1  A    between atoms: CA_2  and  C_3
REMARK    2  A    between atoms: CA_2  and  C_5
REMARK    3  A    between atoms: CA_2  and  N_7
REMARK    4  A    between atoms: C_3  and  C_4
REMARK    5  A    between atoms: C_5  and  O_6
REMARK    6  A    between atoms: C_8  and  C_10
REMARK    7  A    between atoms: C_10  and  C_11
REMARK    8  A    between atoms: C_12  and  C_13
REMARK    9  A    between atoms: C_15  and  C_17
REMARK   10  A    between atoms: C_27  and  O_28
REMARK   11  A    between atoms: O_28  and  C_29
REMARK                            x       y       z     vdW  Elec       q    Type
REMARK                         _______ _______ _______ _____ _____    ______ ____
ROOT
ATOM      1  C   UNL     1       8.700   0.169  23.204  0.00  0.00    -0.010 A 
ATOM      2  C   UNL     1       7.503   0.111  23.977  0.00  0.00    +0.008 A 
ATOM      3  C   UNL     1       6.482   1.050  24.255  0.00  0.00    +0.056 A 
ATOM      4  C   UNL     1       5.396   0.710  25.070  0.00  0.00    +0.121 A 
ATOM      5  C   UNL     1       5.352  -0.547  25.655  0.00  0.00    +0.048 A 
ATOM      6  C   UNL     1       6.375  -1.476  25.435  0.00  0.00    +0.030 A 
ATOM      7  C   UNL     1       7.423  -1.162  24.545  0.00  0.00    +0.057 A 
ATOM      8  N   UNL     1       8.511  -1.914  24.075  0.00  0.00    -0.280 N 
ATOM      9  C   UNL     1       8.743  -3.303  24.301  0.00  0.00    +0.263 C 
ATOM     10  O   UNL     1       9.898  -3.719  24.214  0.00  0.00    -0.267 OA
ATOM     11  C   UNL     1       9.323  -1.066  23.314  0.00  0.00    +0.028 A 
ATOM     12  C   UNL     1      10.596  -1.539  22.687  0.00  0.00    +0.064 C 
ENDROOT
BRANCH   9  13
ATOM     13  C   UNL     1       7.688  -4.292  24.619  0.00  0.00    +0.040 A 
ATOM     14  C   UNL     1       7.583  -4.783  25.925  0.00  0.00    +0.015 A 
ATOM     15  C   UNL     1       6.528  -5.634  26.261  0.00  0.00    +0.021 A 
ATOM     16  C   UNL     1       5.591  -5.996  25.291  0.00  0.00    +0.041 A 
ATOM     17 CL   UNL     1       4.242  -6.968  25.725  0.00  0.00    -0.084 Cl
ATOM     18  C   UNL     1       5.732  -5.560  23.974  0.00  0.00    +0.021 A 
ATOM     19  C   UNL     1       6.799  -4.731  23.629  0.00  0.00    +0.015 A 
ENDBRANCH   9  13
BRANCH   4  20
ATOM     20  O   UNL     1       4.461   1.697  25.226  0.00  0.00    -0.495 OA
ATOM     21  C   UNL     1       4.648   2.885  24.464  0.00  0.00    +0.277 C 
ENDBRANCH   4  20
BRANCH   1  22
ATOM     22  C   UNL     1       9.160   1.357  22.414  0.00  0.00    +0.133 C 
BRANCH  22  25
ATOM     23  N   UNL     1       9.664   3.665  22.996  0.00  0.00    -0.310 N 
ATOM     24  H   UNL     1       9.023   3.885  22.248  0.00  0.00    +0.149 HD
ATOM     25  C   UNL     1       9.930   2.341  23.274  0.00  0.00    +0.218 C 
ATOM     26  O   UNL     1      10.721   1.980  24.140  0.00  0.00    -0.275 OA
BRANCH  23  27
ATOM     27  CA  UNL     1      10.246   4.790  23.724  0.00  0.00    +0.098 C 
BRANCH  27  28
ATOM     28  C   UNL     1      11.736   4.991  23.421  0.00  0.00    +0.021 C 
ATOM     29  C   UNL     1      12.349   6.147  24.203  0.00  0.00    +0.006 C 
ENDBRANCH  27  28
BRANCH  27  30
ATOM     30  C   UNL     1       9.447   6.092  23.517  0.00  0.00    +0.178 C 
BRANCH  30  31
ATOM     31  O   UNL     1       8.547   5.946  22.417  0.00  0.00    -0.393 OA
ATOM     32  H   UNL     1       8.535   4.993  22.212  0.00  0.00    +0.209 HD
ENDBRANCH  30  31
ENDBRANCH  27  30
ENDBRANCH  23  27
ENDBRANCH  22  25
ENDBRANCH   1  22
TORSDOF 8
ENDMDL
MODEL 2
REMARK VINA RESULT:      -7.2      2.123      2.686
REMARK  Name = 
REMARK  11 active torsions:
REMARK  status: ('A' for Active; 'I' for Inactive)
REMARK    1  A    between atoms: CA_2  and  C_3
REMARK    2  A    between atoms: CA_2  and  C_5
REMARK    3  A    between atoms: CA_2  and  N_7
REMARK    4  A    between atoms: C_3  and  C_4
REMARK    5  A    between atoms: C_5  and  O_6
REMARK    6  A    between atoms: C_8  and  C_10
REMARK    7  A    between atoms: C_10  and  C_11
REMARK    8  A    between atoms: C_12  and  C_13
REMARK    9  A    between atoms: C_15  and  C_17
REMARK   10  A    between atoms: C_27  and  O_28
REMARK   11  A    between atoms: O_28  and  C_29
REMARK                            x       y       z     vdW  Elec       q    Type
REMARK                         _______ _______ _______ _____ _____    ______ ____
ROOT
ATOM      1  C   UNL     1       9.398   0.632  23.716  0.00  0.00    -0.010 A 
ATOM      2  C   UNL     1       8.600   0.685  24.897  0.00  0.00    +0.008 A 
ATOM      3  C   UNL     1       7.966   1.741  25.592  0.00  0.00    +0.056 A 
ATOM      4  C   UNL     1       7.229   1.495  26.757  0.00  0.00    +0.121 A 
ATOM      5  C   UNL     1       7.167   0.205  27.261  0.00  0.00    +0.048 A 
ATOM      6  C   UNL     1       7.826  -0.849  26.619  0.00  0.00    +0.030 A 
ATOM      7  C   UNL     1       8.496  -0.614  25.400  0.00  0.00    +0.057 A 
ATOM      8  N   UNL     1       9.153  -1.476  24.510  0.00  0.00    -0.280 N 
ATOM      9  C   UNL     1       9.178  -2.901  24.571  0.00  0.00    +0.263 C 
ATOM     10  O   UNL     1      10.107  -3.488  24.019  0.00  0.00    -0.267 OA
ATOM     11  C   UNL     1       9.763  -0.693  23.523  0.00  0.00    +0.028 A 
ATOM     12  C   UNL     1      10.581  -1.295  22.426  0.00  0.00    +0.064 C 
ENDROOT
BRANCH   9  13
ATOM     13  C   UNL     1       8.153  -3.732  25.242  0.00  0.00    +0.040 A 
ATOM     14  C   UNL     1       6.893  -3.874  24.649  0.00  0.00    +0.015 A 
ATOM     15  C   UNL     1       5.955  -4.740  25.217  0.00  0.00    +0.021 A 
ATOM     16  C   UNL     1       6.277  -5.450  26.374  0.00  0.00    +0.041 A 
ATOM     17 CL   UNL     1       5.158  -6.584  27.021  0.00  0.00    -0.084 Cl
ATOM     18  C   UNL     1       7.507  -5.261  27.002  0.00  0.00    +0.021 A 
ATOM     19  C   UNL     1       8.437  -4.378  26.453  0.00  0.00    +0.015 A 
ENDBRANCH   9  13
BRANCH   4  20
ATOM     20  O   UNL     1       6.637   2.598  27.307  0.00  0.00    -0.495 OA
ATOM     21  C   UNL     1       6.919   2.863  28.677  0.00  0.00    +0.277 C 
ENDBRANCH   4  20
BRANCH   1  22
ATOM     22  C   UNL     1       9.745   1.809  22.855  0.00  0.00    +0.133 C 
BRANCH  22  25
ATOM     23  N   UNL     1       8.300   3.757  22.661  0.00  0.00    -0.310 N 
ATOM     24  H   UNL     1       8.940   4.170  23.324  0.00  0.00    +0.149 HD
ATOM     25  C   UNL     1       8.508   2.454  22.259  0.00  0.00    +0.218 C 
ATOM     26  O   UNL     1       7.762   1.860  21.488  0.00  0.00    -0.275 OA
BRANCH  23  27
ATOM     27  CA  UNL     1       7.205   4.598  22.185  0.00  0.00    +0.098 C 
BRANCH  27  28
ATOM     28  C   UNL     1       5.896   4.366  22.949  0.00  0.00    +0.021 C 
ATOM     29  C   UNL     1       5.998   4.732  24.425  0.00  0.00    +0.006 C 
ENDBRANCH  27  28
BRANCH  27  30
ATOM     30  C   UNL     1       7.588   6.091  22.161  0.00  0.00    +0.178 C 
BRANCH  30  31
ATOM     31  O   UNL     1       6.867   6.766  21.128  0.00  0.00    -0.393 OA
ATOM     32  H   UNL     1       7.066   6.279  20.308  0.00  0.00    +0.209 HD
ENDBRANCH  30  31
ENDBRANCH  27  30
ENDBRANCH  23  27
ENDBRANCH  22  25
ENDBRANCH   1  22
TORSDOF 8
ENDMDL
MODEL 3
REMARK VINA RESULT:      -7.0      3.388      7.789
REMARK  Name = 
REMARK  11 active torsions:
REMARK  status: ('A' for Active; 'I' for Inactive)
REMARK    1  A    between atoms: CA_2  and  C_3
REMARK    2  A    between atoms: CA_2  and  C_5
REMARK    3  A    between atoms: CA_2  and  N_7
REMARK    4  A    between atoms: C_3  and  C_4
REMARK    5  A    between atoms: C_5  and  O_6
REMARK    6  A    between atoms: C_8  and  C_10
REMARK    7  A    between atoms: C_10  and  C_11
REMARK    8  A    between atoms: C_12  and  C_13
REMARK    9  A    between atoms: C_15  and  C_17
REMARK   10  A    between atoms: C_27  and  O_28
REMARK   11  A    between atoms: O_28  and  C_29
REMARK                            x       y       z     vdW  Elec       q    Type
REMARK                         _______ _______ _______ _____ _____    ______ ____
ROOT
ATOM      1  C   UNL     1       8.841  -2.073  24.332  0.00  0.00    -0.010 A 
ATOM      2  C   UNL     1       7.751  -1.377  24.931  0.00  0.00    +0.008 A 
ATOM      3  C   UNL     1       6.869  -1.687  25.993  0.00  0.00    +0.056 A 
ATOM      4  C   UNL     1       5.863  -0.793  26.376  0.00  0.00    +0.121 A 
ATOM      5  C   UNL     1       5.698   0.389  25.669  0.00  0.00    +0.048 A 
ATOM      6  C   UNL     1       6.526   0.696  24.584  0.00  0.00    +0.030 A 
ATOM      7  C   UNL     1       7.593  -0.166  24.254  0.00  0.00    +0.057 A 
ATOM      8  N   UNL     1       8.614  -0.070  23.296  0.00  0.00    -0.280 N 
ATOM      9  C   UNL     1       8.903   1.059  22.475  0.00  0.00    +0.263 C 
ATOM     10  O   UNL     1       9.508   0.869  21.421  0.00  0.00    -0.267 OA
ATOM     11  C   UNL     1       9.326  -1.275  23.304  0.00  0.00    +0.028 A 
ATOM     12  C   UNL     1      10.469  -1.526  22.374  0.00  0.00    +0.064 C 
ENDROOT
BRANCH   9  13
ATOM     13  C   UNL     1       8.541   2.456  22.806  0.00  0.00    +0.040 A 
ATOM     14  C   UNL     1       9.228   3.115  23.833  0.00  0.00    +0.015 A 
ATOM     15  C   UNL     1       8.968   4.464  24.083  0.00  0.00    +0.021 A 
ATOM     16  C   UNL     1       8.021   5.144  23.315  0.00  0.00    +0.041 A 
ATOM     17 CL   UNL     1       7.767   6.826  23.561  0.00  0.00    -0.084 Cl
ATOM     18  C   UNL     1       7.290   4.472  22.336  0.00  0.00    +0.021 A 
ATOM     19  C   UNL     1       7.527   3.118  22.101  0.00  0.00    +0.015 A 
ENDBRANCH   9  13
BRANCH   4  20
ATOM     20  O   UNL     1       5.106  -1.199  27.441  0.00  0.00    -0.495 OA
ATOM     21  C   UNL     1       4.890  -2.600  27.579  0.00  0.00    +0.277 C 
ENDBRANCH   4  20
BRANCH   1  22
ATOM     22  C   UNL     1       9.355  -3.412  24.767  0.00  0.00    +0.133 C 
BRANCH  22  25
ATOM     23  N   UNL     1       7.690  -4.496  23.364  0.00  0.00    -0.310 N 
ATOM     24  H   UNL     1       7.937  -3.780  22.696  0.00  0.00    +0.149 HD
ATOM     25  C   UNL     1       8.312  -4.498  24.595  0.00  0.00    +0.218 C 
ATOM     26  O   UNL     1       8.048  -5.305  25.481  0.00  0.00    -0.275 OA
BRANCH  23  27
ATOM     27  CA  UNL     1       6.688  -5.473  22.948  0.00  0.00    +0.098 C 
BRANCH  27  28
ATOM     28  C   UNL     1       5.264  -5.084  23.365  0.00  0.00    +0.021 C 
ATOM     29  C   UNL     1       5.015  -3.582  23.294  0.00  0.00    +0.006 C 
ENDBRANCH  27  28
BRANCH  27  30
ATOM     30  C   UNL     1       6.770  -5.784  21.440  0.00  0.00    +0.178 C 
BRANCH  30  31
ATOM     31  O   UNL     1       5.503  -6.243  20.964  0.00  0.00    -0.393 OA
ATOM     32  H   UNL     1       5.701  -6.992  20.373  0.00  0.00    +0.209 HD
ENDBRANCH  30  31
ENDBRANCH  27  30
ENDBRANCH  23  27
ENDBRANCH  22  25
ENDBRANCH   1  22
TORSDOF 8
ENDMDL
MODEL 4
REMARK VINA RESULT:      -6.7      3.770      8.024
REMARK  Name = 
REMARK  11 active torsions:
REMARK  status: ('A' for Active; 'I' for Inactive)
REMARK    1  A    between atoms: CA_2  and  C_3
REMARK    2  A    between atoms: CA_2  and  C_5
REMARK    3  A    between atoms: CA_2  and  N_7
REMARK    4  A    between atoms: C_3  and  C_4
REMARK    5  A    between atoms: C_5  and  O_6
REMARK    6  A    between atoms: C_8  and  C_10
REMARK    7  A    between atoms: C_10  and  C_11
REMARK    8  A    between atoms: C_12  and  C_13
REMARK    9  A    between atoms: C_15  and  C_17
REMARK   10  A    between atoms: C_27  and  O_28
REMARK   11  A    between atoms: O_28  and  C_29
REMARK                            x       y       z     vdW  Elec       q    Type
REMARK                         _______ _______ _______ _____ _____    ______ ____
ROOT
ATOM      1  C   UNL     1       7.135  -3.729  26.473  0.00  0.00    -0.010 A 
ATOM      2  C   UNL     1       6.493  -2.497  26.154  0.00  0.00    +0.008 A 
ATOM      3  C   UNL     1       5.296  -1.885  26.596  0.00  0.00    +0.056 A 
ATOM      4  C   UNL     1       4.900  -0.639  26.097  0.00  0.00    +0.121 A 
ATOM      5  C   UNL     1       5.666  -0.024  25.117  0.00  0.00    +0.048 A 
ATOM      6  C   UNL     1       6.826  -0.632  24.628  0.00  0.00    +0.030 A 
ATOM      7  C   UNL     1       7.270  -1.846  25.193  0.00  0.00    +0.057 A 
ATOM      8  N   UNL     1       8.418  -2.621  24.970  0.00  0.00    -0.280 N 
ATOM      9  C   UNL     1       9.538  -2.263  24.163  0.00  0.00    +0.263 C 
ATOM     10  O   UNL     1      10.243  -3.167  23.716  0.00  0.00    -0.267 OA
ATOM     11  C   UNL     1       8.288  -3.805  25.704  0.00  0.00    +0.028 A 
ATOM     12  C   UNL     1       9.327  -4.880  25.666  0.00  0.00    +0.064 C 
ENDROOT
BRANCH   9  13
ATOM     13  C   UNL     1       9.930  -0.874  23.835  0.00  0.00    +0.040 A 
ATOM     14  C   UNL     1       9.791  -0.417  22.519  0.00  0.00    +0.015 A 
ATOM     15  C   UNL     1      10.057   0.921  22.219  0.00  0.00    +0.021 A 
ATOM     16  C   UNL     1      10.466   1.791  23.230  0.00  0.00    +0.041 A 
ATOM     17 CL   UNL     1      10.704   3.458  22.881  0.00  0.00    -0.084 Cl
ATOM     18  C   UNL     1      10.667   1.323  24.529  0.00  0.00    +0.021 A 
ATOM     19  C   UNL     1      10.429  -0.018  24.826  0.00  0.00    +0.015 A 
ENDBRANCH   9  13
BRANCH   4  20
ATOM     20  O   UNL     1       3.744  -0.143  26.637  0.00  0.00    -0.495 OA
ATOM     21  C   UNL     1       3.862   1.018  27.453  0.00  0.00    +0.277 C 
ENDBRANCH   4  20
BRANCH   1  22
ATOM     22  C   UNL     1       6.638  -4.729  27.474  0.00  0.00    +0.133 C 
BRANCH  22  25
ATOM     23  N   UNL     1       4.936  -5.459  25.898  0.00  0.00    -0.310 N 
ATOM     24  H   UNL     1       5.682  -5.395  25.220  0.00  0.00    +0.149 HD
ATOM     25  C   UNL     1       5.198  -5.122  27.209  0.00  0.00    +0.218 C 
ATOM     26  O   UNL     1       4.344  -5.134  28.090  0.00  0.00    -0.275 OA
BRANCH  23  27
ATOM     27  CA  UNL     1       3.636  -5.917  25.411  0.00  0.00    +0.098 C 
BRANCH  27  28
ATOM     28  C   UNL     1       3.205  -5.221  24.114  0.00  0.00    +0.021 C 
ATOM     29  C   UNL     1       4.168  -4.121  23.683  0.00  0.00    +0.006 C 
ENDBRANCH  27  28
BRANCH  27  30
ATOM     30  C   UNL     1       3.573  -7.451  25.276  0.00  0.00    +0.178 C 
BRANCH  30  31
ATOM     31  O   UNL     1       3.895  -7.840  23.939  0.00  0.00    -0.393 OA
ATOM     32  H   UNL     1       3.534  -7.138  23.368  0.00  0.00    +0.209 HD
ENDBRANCH  30  31
ENDBRANCH  27  30
ENDBRANCH  23  27
ENDBRANCH  22  25
ENDBRANCH   1  22
TORSDOF 8
ENDMDL
MODEL 5
REMARK VINA RESULT:      -6.5      1.699      2.167
REMARK  Name = 
REMARK  11 active torsions:
REMARK  status: ('A' for Active; 'I' for Inactive)
REMARK    1  A    between atoms: CA_2  and  C_3
REMARK    2  A    between atoms: CA_2  and  C_5
REMARK    3  A    between atoms: CA_2  and  N_7
REMARK    4  A    between atoms: C_3  and  C_4
REMARK    5  A    between atoms: C_5  and  O_6
REMARK    6  A    between atoms: C_8  and  C_10
REMARK    7  A    between atoms: C_10  and  C_11
REMARK    8  A    between atoms: C_12  and  C_13
REMARK    9  A    between atoms: C_15  and  C_17
REMARK   10  A    between atoms: C_27  and  O_28
REMARK   11  A    between atoms: O_28  and  C_29
REMARK                            x       y       z     vdW  Elec       q    Type
REMARK                         _______ _______ _______ _____ _____    ______ ____
ROOT
ATOM      1  C   UNL     1       7.748   1.785  23.137  0.00  0.00    -0.010 A 
ATOM      2  C   UNL     1       6.830   1.263  24.095  0.00  0.00    +0.008 A 
ATOM      3  C   UNL     1       5.882   1.863  24.956  0.00  0.00    +0.056 A 
ATOM      4  C   UNL     1       5.097   1.085  25.815  0.00  0.00    +0.121 A 
ATOM      5  C   UNL     1       5.293  -0.287  25.858  0.00  0.00    +0.048 A 
ATOM      6  C   UNL     1       6.258  -0.899  25.052  0.00  0.00    +0.030 A 
ATOM      7  C   UNL     1       6.987  -0.125  24.126  0.00  0.00    +0.057 A 
ATOM      8  N   UNL     1       7.933  -0.474  23.150  0.00  0.00    -0.280 N 
ATOM      9  C   UNL     1       8.297  -1.795  22.755  0.00  0.00    +0.263 C 
ATOM     10  O   UNL     1       9.398  -1.962  22.234  0.00  0.00    -0.267 OA
ATOM     11  C   UNL     1       8.444   0.709  22.604  0.00  0.00    +0.028 A 
ATOM     12  C   UNL     1       9.507   0.702  21.551  0.00  0.00    +0.064 C 
ENDROOT
BRANCH   9  13
ATOM     13  C   UNL     1       7.434  -2.988  22.913  0.00  0.00    +0.040 A 
ATOM     14  C   UNL     1       7.819  -3.998  23.802  0.00  0.00    +0.015 A 
ATOM     15  C   UNL     1       6.963  -5.075  24.038  0.00  0.00    +0.021 A 
ATOM     16  C   UNL     1       5.734  -5.143  23.380  0.00  0.00    +0.041 A 
ATOM     17 CL   UNL     1       4.641  -6.421  23.738  0.00  0.00    -0.084 Cl
ATOM     18  C   UNL     1       5.377  -4.172  22.444  0.00  0.00    +0.021 A 
ATOM     19  C   UNL     1       6.241  -3.108  22.187  0.00  0.00    +0.015 A 
ENDBRANCH   9  13
BRANCH   4  20
ATOM     20  O   UNL     1       4.194   1.788  26.565  0.00  0.00    -0.495 OA
ATOM     21  C   UNL     1       3.302   2.645  25.861  0.00  0.00    +0.277 C 
ENDBRANCH   4  20
BRANCH   1  22
ATOM     22  C   UNL     1       7.896   3.234  22.783  0.00  0.00    +0.133 C 
BRANCH  22  25
ATOM     23  N   UNL     1       9.370   5.146  23.077  0.00  0.00    -0.310 N 
ATOM     24  H   UNL     1       8.844   5.539  22.310  0.00  0.00    +0.149 HD
ATOM     25  C   UNL     1       9.060   3.875  23.513  0.00  0.00    +0.218 C 
ATOM     26  O   UNL     1       9.669   3.305  24.412  0.00  0.00    -0.275 OA
BRANCH  23  27
ATOM     27  CA  UNL     1      10.418   5.982  23.659  0.00  0.00    +0.098 C 
BRANCH  27  28
ATOM     28  C   UNL     1      10.131   6.373  25.114  0.00  0.00    +0.021 C 
ATOM     29  C   UNL     1       8.806   7.107  25.280  0.00  0.00    +0.006 C 
ENDBRANCH  27  28
BRANCH  27  30
ATOM     30  C   UNL     1      11.816   5.350  23.509  0.00  0.00    +0.178 C 
BRANCH  30  31
ATOM     31  O   UNL     1      12.746   6.006  24.372  0.00  0.00    -0.393 OA
ATOM     32  H   UNL     1      12.400   6.909  24.493  0.00  0.00    +0.209 HD
ENDBRANCH  30  31
ENDBRANCH  27  30
ENDBRANCH  23  27
ENDBRANCH  22  25
ENDBRANCH   1  22
TORSDOF 8
ENDMDL
MODEL 6
REMARK VINA RESULT:      -6.4      1.873      2.568
REMARK  Name = 
REMARK  11 active torsions:
REMARK  status: ('A' for Active; 'I' for Inactive)
REMARK    1  A    between atoms: CA_2  and  C_3
REMARK    2  A    between atoms: CA_2  and  C_5
REMARK    3  A    between atoms: CA_2  and  N_7
REMARK    4  A    between atoms: C_3  and  C_4
REMARK    5  A    between atoms: C_5  and  O_6
REMARK    6  A    between atoms: C_8  and  C_10
REMARK    7  A    between atoms: C_10  and  C_11
REMARK    8  A    between atoms: C_12  and  C_13
REMARK    9  A    between atoms: C_15  and  C_17
REMARK   10  A    between atoms: C_27  and  O_28
REMARK   11  A    between atoms: O_28  and  C_29
REMARK                            x       y       z     vdW  Elec       q    Type
REMARK                         _______ _______ _______ _____ _____    ______ ____
ROOT
ATOM      1  C   UNL     1       9.224  -0.072  24.695  0.00  0.00    -0.010 A 
ATOM      2  C   UNL     1       8.123  -0.079  25.601  0.00  0.00    +0.008 A 
ATOM      3  C   UNL     1       7.543   0.912  26.428  0.00  0.00    +0.056 A 
ATOM      4  C   UNL     1       6.440   0.616  27.238  0.00  0.00    +0.121 A 
ATOM      5  C   UNL     1       5.947  -0.680  27.268  0.00  0.00    +0.048 A 
ATOM      6  C   UNL     1       6.534  -1.688  26.496  0.00  0.00    +0.030 A 
ATOM      7  C   UNL     1       7.589  -1.369  25.617  0.00  0.00    +0.057 A 
ATOM      8  N   UNL     1       8.295  -2.139  24.680  0.00  0.00    -0.280 N 
ATOM      9  C   UNL     1       7.994  -3.475  24.281  0.00  0.00    +0.263 C 
ATOM     10  O   UNL     1       8.902  -4.157  23.808  0.00  0.00    -0.267 OA
ATOM     11  C   UNL     1       9.339  -1.355  24.177  0.00  0.00    +0.028 A 
ATOM     12  C   UNL     1      10.314  -1.882  23.173  0.00  0.00    +0.064 C 
ENDROOT
BRANCH   9  13
ATOM     13  C   UNL     1       6.656  -4.102  24.380  0.00  0.00    +0.040 A 
ATOM     14  C   UNL     1       6.454  -5.140  25.296  0.00  0.00    +0.015 A 
ATOM     15  C   UNL     1       5.173  -5.666  25.473  0.00  0.00    +0.021 A 
ATOM     16  C   UNL     1       4.105  -5.160  24.731  0.00  0.00    +0.041 A 
ATOM     17 CL   UNL     1       2.513  -5.744  25.013  0.00  0.00    -0.084 Cl
ATOM     18  C   UNL     1       4.316  -4.171  23.770  0.00  0.00    +0.021 A 
ATOM     19  C   UNL     1       5.599  -3.661  23.572  0.00  0.00    +0.015 A 
ENDBRANCH   9  13
BRANCH   4  20
ATOM     20  O   UNL     1       5.953   1.673  27.958  0.00  0.00    -0.495 OA
ATOM     21  C   UNL     1       6.908   2.489  28.628  0.00  0.00    +0.277 C 
ENDBRANCH   4  20
BRANCH   1  22
ATOM     22  C   UNL     1      10.069   1.123  24.371  0.00  0.00    +0.133 C 
BRANCH  22  25
ATOM     23  N   UNL     1       8.461   2.723  23.493  0.00  0.00    -0.310 N 
ATOM     24  H   UNL     1       8.112   2.737  24.441  0.00  0.00    +0.149 HD
ATOM     25  C   UNL     1       9.520   1.895  23.187  0.00  0.00    +0.218 C 
ATOM     26  O   UNL     1       9.985   1.786  22.057  0.00  0.00    -0.275 OA
BRANCH  23  27
ATOM     27  CA  UNL     1       7.799   3.601  22.531  0.00  0.00    +0.098 C 
BRANCH  27  28
ATOM     28  C   UNL     1       6.338   3.211  22.272  0.00  0.00    +0.021 C 
ATOM     29  C   UNL     1       5.785   2.255  23.323  0.00  0.00    +0.006 C 
ENDBRANCH  27  28
BRANCH  27  30
ATOM     30  C   UNL     1       7.927   5.088  22.917  0.00  0.00    +0.178 C 
BRANCH  30  31
ATOM     31  O   UNL     1       9.303   5.433  23.090  0.00  0.00    -0.393 OA
ATOM     32  H   UNL     1       9.404   5.641  24.037  0.00  0.00    +0.209 HD
ENDBRANCH  30  31
ENDBRANCH  27  30
ENDBRANCH  23  27
ENDBRANCH  22  25
ENDBRANCH   1  22
TORSDOF 8
ENDMDL
MODEL 7
REMARK VINA RESULT:      -6.4      2.717      4.772
REMARK  Name = 
REMARK  11 active torsions:
REMARK  status: ('A' for Active; 'I' for Inactive)
REMARK    1  A    between atoms: CA_2  and  C_3
REMARK    2  A    between atoms: CA_2  and  C_5
REMARK    3  A    between atoms: CA_2  and  N_7
REMARK    4  A    between atoms: C_3  and  C_4
REMARK    5  A    between atoms: C_5  and  O_6
REMARK    6  A    between atoms: C_8  and  C_10
REMARK    7  A    between atoms: C_10  and  C_11
REMARK    8  A    between atoms: C_12  and  C_13
REMARK    9  A    between atoms: C_15  and  C_17
REMARK   10  A    between atoms: C_27  and  O_28
REMARK   11  A    between atoms: O_28  and  C_29
REMARK                            x       y       z     vdW  Elec       q    Type
REMARK                         _______ _______ _______ _____ _____    ______ ____
ROOT
ATOM      1  C   UNL     1       8.433  -2.294  24.503  0.00  0.00    -0.010 A 
ATOM      2  C   UNL     1       7.314  -2.864  23.827  0.00  0.00    +0.008 A 
ATOM      3  C   UNL     1       7.169  -3.541  22.594  0.00  0.00    +0.056 A 
ATOM      4  C   UNL     1       5.916  -4.001  22.170  0.00  0.00    +0.121 A 
ATOM      5  C   UNL     1       4.798  -3.739  22.946  0.00  0.00    +0.048 A 
ATOM      6  C   UNL     1       4.908  -3.028  24.146  0.00  0.00    +0.030 A 
ATOM      7  C   UNL     1       6.181  -2.641  24.613  0.00  0.00    +0.057 A 
ATOM      8  N   UNL     1       6.594  -2.011  25.797  0.00  0.00    -0.280 N 
ATOM      9  C   UNL     1       5.780  -1.720  26.931  0.00  0.00    +0.263 C 
ATOM     10  O   UNL     1       6.138  -0.814  27.684  0.00  0.00    -0.267 OA
ATOM     11  C   UNL     1       7.962  -1.738  25.685  0.00  0.00    +0.028 A 
ATOM     12  C   UNL     1       8.722  -1.035  26.764  0.00  0.00    +0.064 C 
ENDROOT
BRANCH   9  13
ATOM     13  C   UNL     1       4.536  -2.442  27.282  0.00  0.00    +0.040 A 
ATOM     14  C   UNL     1       3.304  -1.795  27.130  0.00  0.00    +0.015 A 
ATOM     15  C   UNL     1       2.120  -2.500  27.356  0.00  0.00    +0.021 A 
ATOM     16  C   UNL     1       2.173  -3.841  27.741  0.00  0.00    +0.041 A 
ATOM     17 CL   UNL     1       0.717  -4.735  27.931  0.00  0.00    -0.084 Cl
ATOM     18  C   UNL     1       3.400  -4.468  27.956  0.00  0.00    +0.021 A 
ATOM     19  C   UNL     1       4.584  -3.759  27.756  0.00  0.00    +0.015 A 
ENDBRANCH   9  13
BRANCH   4  20
ATOM     20  O   UNL     1       5.923  -4.674  20.978  0.00  0.00    -0.495 OA
ATOM     21  C   UNL     1       6.189  -6.071  21.030  0.00  0.00    +0.277 C 
ENDBRANCH   4  20
BRANCH   1  22
ATOM     22  C   UNL     1       9.847  -2.324  24.008  0.00  0.00    +0.133 C 
BRANCH  22  25
ATOM     23  N   UNL     1       9.860   0.033  23.407  0.00  0.00    -0.310 N 
ATOM     24  H   UNL     1       9.512   0.168  24.346  0.00  0.00    +0.149 HD
ATOM     25  C   UNL     1      10.102  -1.251  22.967  0.00  0.00    +0.218 C 
ATOM     26  O   UNL     1      10.489  -1.512  21.832  0.00  0.00    -0.275 OA
BRANCH  23  27
ATOM     27  CA  UNL     1      10.079   1.232  22.603  0.00  0.00    +0.098 C 
BRANCH  27  28
ATOM     28  C   UNL     1       8.851   1.628  21.773  0.00  0.00    +0.021 C 
ATOM     29  C   UNL     1       7.540   1.169  22.398  0.00  0.00    +0.006 C 
ENDBRANCH  27  28
BRANCH  27  30
ATOM     30  C   UNL     1      10.593   2.414  23.449  0.00  0.00    +0.178 C 
BRANCH  30  31
ATOM     31  O   UNL     1      10.182   3.651  22.864  0.00  0.00    -0.393 OA
ATOM     32  H   UNL     1       9.754   4.151  23.583  0.00  0.00    +0.209 HD
ENDBRANCH  30  31
ENDBRANCH  27  30
ENDBRANCH  23  27
ENDBRANCH  22  25
ENDBRANCH   1  22
TORSDOF 8
ENDMDL
MODEL 8
REMARK VINA RESULT:      -6.4      4.082      9.143
REMARK  Name = 
REMARK  11 active torsions:
REMARK  status: ('A' for Active; 'I' for Inactive)
REMARK    1  A    between atoms: CA_2  and  C_3
REMARK    2  A    between atoms: CA_2  and  C_5
REMARK    3  A    between atoms: CA_2  and  N_7
REMARK    4  A    between atoms: C_3  and  C_4
REMARK    5  A    between atoms: C_5  and  O_6
REMARK    6  A    between atoms: C_8  and  C_10
REMARK    7  A    between atoms: C_10  and  C_11
REMARK    8  A    between atoms: C_12  and  C_13
REMARK    9  A    between atoms: C_15  and  C_17
REMARK   10  A    between atoms: C_27  and  O_28
REMARK   11  A    between atoms: O_28  and  C_29
REMARK                            x       y       z     vdW  Elec       q    Type
REMARK                         _______ _______ _______ _____ _____    ______ ____
ROOT
ATOM      1  C   UNL     1       4.638  -2.564  25.516  0.00  0.00    -0.010 A 
ATOM      2  C   UNL     1       5.423  -2.721  24.336  0.00  0.00    +0.008 A 
ATOM      3  C   UNL     1       5.233  -3.441  23.133  0.00  0.00    +0.056 A 
ATOM      4  C   UNL     1       6.198  -3.415  22.120  0.00  0.00    +0.121 A 
ATOM      5  C   UNL     1       7.379  -2.716  22.324  0.00  0.00    +0.048 A 
ATOM      6  C   UNL     1       7.612  -2.037  23.524  0.00  0.00    +0.030 A 
ATOM      7  C   UNL     1       6.603  -1.993  24.508  0.00  0.00    +0.057 A 
ATOM      8  N   UNL     1       6.525  -1.330  25.742  0.00  0.00    -0.280 N 
ATOM      9  C   UNL     1       7.455  -0.378  26.254  0.00  0.00    +0.263 C 
ATOM     10  O   UNL     1       7.504  -0.213  27.472  0.00  0.00    -0.267 OA
ATOM     11  C   UNL     1       5.351  -1.746  26.381  0.00  0.00    +0.028 A 
ATOM     12  C   UNL     1       4.972  -1.255  27.742  0.00  0.00    +0.064 C 
ENDROOT
BRANCH   9  13
ATOM     13  C   UNL     1       8.362   0.444  25.421  0.00  0.00    +0.040 A 
ATOM     14  C   UNL     1       7.863   1.592  24.796  0.00  0.00    +0.015 A 
ATOM     15  C   UNL     1       8.732   2.432  24.096  0.00  0.00    +0.021 A 
ATOM     16  C   UNL     1      10.089   2.117  24.017  0.00  0.00    +0.041 A 
ATOM     17 CL   UNL     1      11.175   3.196  23.234  0.00  0.00    -0.084 Cl
ATOM     18  C   UNL     1      10.577   0.939  24.584  0.00  0.00    +0.021 A 
ATOM     19  C   UNL     1       9.707   0.085  25.262  0.00  0.00    +0.015 A 
ENDBRANCH   9  13
BRANCH   4  20
ATOM     20  O   UNL     1       5.871  -4.122  20.995  0.00  0.00    -0.495 OA
ATOM     21  C   UNL     1       6.149  -5.518  21.010  0.00  0.00    +0.277 C 
ENDBRANCH   4  20
BRANCH   1  22
ATOM     22  C   UNL     1       3.285  -3.171  25.740  0.00  0.00    +0.133 C 
BRANCH  22  25
ATOM     23  N   UNL     1       2.651  -5.511  25.549  0.00  0.00    -0.310 N 
ATOM     24  H   UNL     1       2.091  -5.190  24.773  0.00  0.00    +0.149 HD
ATOM     25  C   UNL     1       3.386  -4.590  26.265  0.00  0.00    +0.218 C 
ATOM     26  O   UNL     1       4.064  -4.884  27.244  0.00  0.00    -0.275 OA
BRANCH  23  27
ATOM     27  CA  UNL     1       2.628  -6.944  25.834  0.00  0.00    +0.098 C 
BRANCH  27  28
ATOM     28  C   UNL     1       1.360  -7.386  26.575  0.00  0.00    +0.021 C 
ATOM     29  C   UNL     1       1.505  -7.316  28.091  0.00  0.00    +0.006 C 
ENDBRANCH  27  28
BRANCH  27  30
ATOM     30  C   UNL     1       2.868  -7.792  24.569  0.00  0.00    +0.178 C 
BRANCH  30  31
ATOM     31  O   UNL     1       4.180  -7.551  24.058  0.00  0.00    -0.393 OA
ATOM     32  H   UNL     1       4.150  -7.818  23.122  0.00  0.00    +0.209 HD
ENDBRANCH  30  31
ENDBRANCH  27  30
ENDBRANCH  23  27
ENDBRANCH  22  25
ENDBRANCH   1  22
TORSDOF 8
ENDMDL
MODEL 9
REMARK VINA RESULT:      -6.3      2.245      3.126
REMARK  Name = 
REMARK  11 active torsions:
REMARK  status: ('A' for Active; 'I' for Inactive)
REMARK    1  A    between atoms: CA_2  and  C_3
REMARK    2  A    between atoms: CA_2  and  C_5
REMARK    3  A    between atoms: CA_2  and  N_7
REMARK    4  A    between atoms: C_3  and  C_4
REMARK    5  A    between atoms: C_5  and  O_6
REMARK    6  A    between atoms: C_8  and  C_10
REMARK    7  A    between atoms: C_10  and  C_11
REMARK    8  A    between atoms: C_12  and  C_13
REMARK    9  A    between atoms: C_15  and  C_17
REMARK   10  A    between atoms: C_27  and  O_28
REMARK   11  A    between atoms: O_28  and  C_29
REMARK                            x       y       z     vdW  Elec       q    Type
REMARK                         _______ _______ _______ _____ _____    ______ ____
ROOT
ATOM      1  C   UNL     1       8.344  -1.508  25.817  0.00  0.00    -0.010 A 
ATOM      2  C   UNL     1       7.078  -1.534  26.472  0.00  0.00    +0.008 A 
ATOM      3  C   UNL     1       6.381  -0.599  27.272  0.00  0.00    +0.056 A 
ATOM      4  C   UNL     1       5.120  -0.902  27.799  0.00  0.00    +0.121 A 
ATOM      5  C   UNL     1       4.574  -2.157  27.575  0.00  0.00    +0.048 A 
ATOM      6  C   UNL     1       5.265  -3.117  26.828  0.00  0.00    +0.030 A 
ATOM      7  C   UNL     1       6.496  -2.780  26.227  0.00  0.00    +0.057 A 
ATOM      8  N   UNL     1       7.348  -3.493  25.370  0.00  0.00    -0.280 N 
ATOM      9  C   UNL     1       7.078  -4.756  24.765  0.00  0.00    +0.263 C 
ATOM     10  O   UNL     1       8.034  -5.445  24.411  0.00  0.00    -0.267 OA
ATOM     11  C   UNL     1       8.508  -2.734  25.186  0.00  0.00    +0.028 A 
ATOM     12  C   UNL     1       9.649  -3.218  24.350  0.00  0.00    +0.064 C 
ENDROOT
BRANCH   9  13
ATOM     13  C   UNL     1       5.723  -5.297  24.514  0.00  0.00    +0.040 A 
ATOM     14  C   UNL     1       4.948  -4.750  23.485  0.00  0.00    +0.015 A 
ATOM     15  C   UNL     1       3.713  -5.322  23.171  0.00  0.00    +0.021 A 
ATOM     16  C   UNL     1       3.256  -6.427  23.889  0.00  0.00    +0.041 A 
ATOM     17 CL   UNL     1       1.779  -7.187  23.444  0.00  0.00    -0.084 Cl
ATOM     18  C   UNL     1       3.996  -6.933  24.958  0.00  0.00    +0.021 A 
ATOM     19  C   UNL     1       5.218  -6.349  25.291  0.00  0.00    +0.015 A 
ENDBRANCH   9  13
BRANCH   4  20
ATOM     20  O   UNL     1       4.541   0.105  28.523  0.00  0.00    -0.495 OA
ATOM     21  C   UNL     1       4.042  -0.235  29.812  0.00  0.00    +0.277 C 
ENDBRANCH   4  20
BRANCH   1  22
ATOM     22  C   UNL     1       9.292  -0.346  25.815  0.00  0.00    +0.133 C 
BRANCH  22  25
ATOM     23  N   UNL     1       9.374   1.889  24.859  0.00  0.00    -0.310 N 
ATOM     24  H   UNL     1       9.695   2.158  25.778  0.00  0.00    +0.149 HD
ATOM     25  C   UNL     1       9.059   0.567  24.626  0.00  0.00    +0.218 C 
ATOM     26  O   UNL     1       8.627   0.156  23.554  0.00  0.00    -0.275 OA
BRANCH  23  27
ATOM     27  CA  UNL     1       9.280   2.945  23.854  0.00  0.00    +0.098 C 
BRANCH  27  28
ATOM     28  C   UNL     1       9.007   4.326  24.462  0.00  0.00    +0.021 C 
ATOM     29  C   UNL     1      10.017   5.378  24.019  0.00  0.00    +0.006 C 
ENDBRANCH  27  28
BRANCH  27  30
ATOM     30  C   UNL     1      10.507   2.970  22.921  0.00  0.00    +0.178 C 
BRANCH  30  31
ATOM     31  O   UNL     1      10.229   2.241  21.725  0.00  0.00    -0.393 OA
ATOM     32  H   UNL     1      10.066   1.323  22.009  0.00  0.00    +0.209 HD
ENDBRANCH  30  31
ENDBRANCH  27  30
ENDBRANCH  23  27
ENDBRANCH  22  25
ENDBRANCH   1  22
TORSDOF 8
ENDMDL
