MODEL 1
REMARK VINA RESULT:      -7.8      0.000      0.000
REMARK  Name = 
REMARK  6 active torsions:
REMARK  status: ('A' for Active; 'I' for Inactive)
REMARK    1  A    between atoms: C_10  and  C_23
REMARK    2  A    between atoms: C_16  and  O_17
REMARK    3  A    between atoms: C_19  and  C_20
REMARK    4  A    between atoms: C_20  and  O_21
REMARK    5  A    between atoms: O_21  and  C_22
REMARK    6  A    between atoms: C_26  and  O_27
REMARK                            x       y       z     vdW  Elec       q    Type
REMARK                         _______ _______ _______ _____ _____    ______ ____
ROOT
ATOM      1  C   UNL     1       5.041  -4.275  23.197  0.00  0.00    +0.035 C 
ATOM      2  C   UNL     1       5.600  -4.692  24.538  0.00  0.00    +0.002 A 
ATOM      3  C   UNL     1       5.018  -5.766  25.234  0.00  0.00    +0.053 A 
ATOM      4  C   UNL     1       5.563  -6.196  26.438  0.00  0.00    +0.118 A 
ATOM      5  C   UNL     1       6.675  -5.568  26.975  0.00  0.00    +0.055 A 
ATOM      6  C   UNL     1       7.257  -4.474  26.315  0.00  0.00    +0.023 A 
ATOM      7  C   UNL     1       6.690  -4.018  25.114  0.00  0.00    +0.130 A 
ATOM      8  O   UNL     1       7.291  -2.938  24.515  0.00  0.00    -0.483 OA
ATOM      9  C   UNL     1       6.488  -2.256  23.542  0.00  0.00    +0.207 C 
ATOM     10  C   UNL     1       5.926  -3.232  22.507  0.00  0.00    +0.048 C 
ATOM     11  C   UNL     1       6.984  -4.075  21.779  0.00  0.00    +0.083 C 
ATOM     12  C   UNL     1       6.238  -5.317  21.346  0.00  0.00    +0.250 C 
ATOM     13  F   UNL     1       7.005  -6.416  21.514  0.00  0.00    -0.206 F 
ATOM     14  F   UNL     1       5.928  -5.244  20.030  0.00  0.00    -0.206 F 
ATOM     15  C   UNL     1       4.961  -5.410  22.165  0.00  0.00    +0.084 C 
ENDROOT
BRANCH   9  16
ATOM     16  C   UNL     1       7.301  -1.161  22.866  0.00  0.00    -0.007 A 
ATOM     17  C   UNL     1       6.877   0.178  22.865  0.00  0.00    +0.011 A 
ATOM     18  C   UNL     1       7.681   1.182  22.321  0.00  0.00    +0.046 A 
ATOM     19  C   UNL     1       8.914   0.856  21.774  0.00  0.00    +0.117 A 
ATOM     20  C   UNL     1       9.350  -0.464  21.739  0.00  0.00    +0.046 A 
ATOM     21  C   UNL     1       8.545  -1.469  22.286  0.00  0.00    +0.011 A 
BRANCH  19  22
ATOM     22  O   UNL     1       9.680   1.871  21.283  0.00  0.00    -0.507 OA
ATOM     23  H   UNL     1       9.867   1.696  20.347  0.00  0.00    +0.292 HD
ENDBRANCH  19  22
ENDBRANCH   9  16
BRANCH   4  24
ATOM     24  O   UNL     1       5.041  -7.257  27.117  0.00  0.00    -0.507 OA
ATOM     25  H   UNL     1       4.184  -7.001  27.496  0.00  0.00    +0.292 HD
ENDBRANCH   4  24
BRANCH   6  26
ATOM     26  C   UNL     1       8.499  -3.849  26.905  0.00  0.00    +0.198 C 
BRANCH  26  27
ATOM     27  O   UNL     1       9.632  -4.718  26.797  0.00  0.00    -0.378 OA
ATOM     28  C   UNL     1       9.981  -4.998  25.445  0.00  0.00    +0.194 C 
ENDBRANCH  26  27
ENDBRANCH   6  26
TORSDOF 5
ENDMDL
MODEL 2
REMARK VINA RESULT:      -7.4      3.720      7.452
REMARK  Name = 
REMARK  6 active torsions:
REMARK  status: ('A' for Active; 'I' for Inactive)
REMARK    1  A    between atoms: C_10  and  C_23
REMARK    2  A    between atoms: C_16  and  O_17
REMARK    3  A    between atoms: C_19  and  C_20
REMARK    4  A    between atoms: C_20  and  O_21
REMARK    5  A    between atoms: O_21  and  C_22
REMARK    6  A    between atoms: C_26  and  O_27
REMARK                            x       y       z     vdW  Elec       q    Type
REMARK                         _______ _______ _______ _____ _____    ______ ____
ROOT
ATOM      1  C   UNL     1      10.133   1.387  23.484  0.00  0.00    +0.035 C 
ATOM      2  C   UNL     1       9.327   2.344  24.331  0.00  0.00    +0.002 A 
ATOM      3  C   UNL     1       9.485   3.731  24.160  0.00  0.00    +0.053 A 
ATOM      4  C   UNL     1       8.704   4.618  24.891  0.00  0.00    +0.118 A 
ATOM      5  C   UNL     1       7.772   4.153  25.804  0.00  0.00    +0.055 A 
ATOM      6  C   UNL     1       7.615   2.774  26.016  0.00  0.00    +0.023 A 
ATOM      7  C   UNL     1       8.425   1.875  25.301  0.00  0.00    +0.130 A 
ATOM      8  O   UNL     1       8.239   0.538  25.553  0.00  0.00    -0.483 OA
ATOM      9  C   UNL     1       9.313  -0.315  25.133  0.00  0.00    +0.207 C 
ATOM     10  C   UNL     1       9.679  -0.065  23.669  0.00  0.00    +0.048 C 
ATOM     11  C   UNL     1       8.509  -0.210  22.683  0.00  0.00    +0.083 C 
ATOM     12  C   UNL     1       8.902   0.659  21.509  0.00  0.00    +0.250 C 
ATOM     13  F   UNL     1       7.833   1.336  21.038  0.00  0.00    -0.206 F 
ATOM     14  F   UNL     1       9.369  -0.106  20.494  0.00  0.00    -0.206 F 
ATOM     15  C   UNL     1       9.994   1.611  21.970  0.00  0.00    +0.084 C 
ENDROOT
BRANCH   9  16
ATOM     16  C   UNL     1       8.940  -1.774  25.355  0.00  0.00    -0.007 A 
ATOM     17  C   UNL     1       9.537  -2.809  24.616  0.00  0.00    +0.011 A 
ATOM     18  C   UNL     1       9.250  -4.146  24.898  0.00  0.00    +0.046 A 
ATOM     19  C   UNL     1       8.365  -4.459  25.920  0.00  0.00    +0.117 A 
ATOM     20  C   UNL     1       7.740  -3.457  26.652  0.00  0.00    +0.046 A 
ATOM     21  C   UNL     1       8.029  -2.118  26.370  0.00  0.00    +0.011 A 
BRANCH  19  22
ATOM     22  O   UNL     1       8.138  -5.778  26.182  0.00  0.00    -0.507 OA
ATOM     23  H   UNL     1       8.799  -6.087  26.822  0.00  0.00    +0.292 HD
ENDBRANCH  19  22
ENDBRANCH   9  16
BRANCH   4  24
ATOM     24  O   UNL     1       8.810   5.967  24.721  0.00  0.00    -0.507 OA
ATOM     25  H   UNL     1       9.206   6.357  25.517  0.00  0.00    +0.292 HD
ENDBRANCH   4  24
BRANCH   6  26
ATOM     26  C   UNL     1       6.553   2.305  26.981  0.00  0.00    +0.198 C 
BRANCH  26  27
ATOM     27  O   UNL     1       6.975   2.442  28.342  0.00  0.00    -0.378 OA
ATOM     28  C   UNL     1       7.183   1.186  28.981  0.00  0.00    +0.194 C 
ENDBRANCH  26  27
ENDBRANCH   6  26
TORSDOF 5
ENDMDL
MODEL 3
REMARK VINA RESULT:      -7.3      4.033      7.976
REMARK  Name = 
REMARK  6 active torsions:
REMARK  status: ('A' for Active; 'I' for Inactive)
REMARK    1  A    between atoms: C_10  and  C_23
REMARK    2  A    between atoms: C_16  and  O_17
REMARK    3  A    between atoms: C_19  and  C_20
REMARK    4  A    between atoms: C_20  and  O_21
REMARK    5  A    between atoms: O_21  and  C_22
REMARK    6  A    between atoms: C_26  and  O_27
REMARK                            x       y       z     vdW  Elec       q    Type
REMARK                         _______ _______ _______ _____ _____    ______ ____
ROOT
ATOM      1  C   UNL     1      10.200   1.527  23.460  0.00  0.00    +0.035 C 
ATOM      2  C   UNL     1       9.637   2.791  24.067  0.00  0.00    +0.002 A 
ATOM      3  C   UNL     1      10.148   4.041  23.678  0.00  0.00    +0.053 A 
ATOM      4  C   UNL     1       9.595   5.211  24.184  0.00  0.00    +0.118 A 
ATOM      5  C   UNL     1       8.545   5.163  25.086  0.00  0.00    +0.055 A 
ATOM      6  C   UNL     1       8.035   3.927  25.516  0.00  0.00    +0.023 A 
ATOM      7  C   UNL     1       8.613   2.743  25.028  0.00  0.00    +0.130 A 
ATOM      8  O   UNL     1       8.085   1.561  25.488  0.00  0.00    -0.483 OA
ATOM      9  C   UNL     1       8.919   0.409  25.304  0.00  0.00    +0.207 C 
ATOM     10  C   UNL     1       9.385   0.290  23.852  0.00  0.00    +0.048 C 
ATOM     11  C   UNL     1       8.251   0.257  22.816  0.00  0.00    +0.083 C 
ATOM     12  C   UNL     1       8.891   0.773  21.546  0.00  0.00    +0.250 C 
ATOM     13  F   UNL     1       8.045   1.592  20.885  0.00  0.00    -0.206 F 
ATOM     14  F   UNL     1       9.181  -0.256  20.714  0.00  0.00    -0.206 F 
ATOM     15  C   UNL     1      10.173   1.497  21.924  0.00  0.00    +0.084 C 
ENDROOT
BRANCH   9  16
ATOM     16  C   UNL     1       8.180  -0.848  25.739  0.00  0.00    -0.007 A 
ATOM     17  C   UNL     1       8.761  -2.122  25.625  0.00  0.00    +0.011 A 
ATOM     18  C   UNL     1       8.105  -3.253  26.115  0.00  0.00    +0.046 A 
ATOM     19  C   UNL     1       6.864  -3.120  26.723  0.00  0.00    +0.117 A 
ATOM     20  C   UNL     1       6.253  -1.876  26.827  0.00  0.00    +0.046 A 
ATOM     21  C   UNL     1       6.912  -0.743  26.338  0.00  0.00    +0.011 A 
BRANCH  19  22
ATOM     22  O   UNL     1       6.273  -4.246  27.215  0.00  0.00    -0.507 OA
ATOM     23  H   UNL     1       5.931  -4.769  26.472  0.00  0.00    +0.292 HD
ENDBRANCH  19  22
ENDBRANCH   9  16
BRANCH   4  24
ATOM     24  O   UNL     1      10.046   6.438  23.797  0.00  0.00    -0.507 OA
ATOM     25  H   UNL     1      10.830   6.667  24.322  0.00  0.00    +0.292 HD
ENDBRANCH   4  24
BRANCH   6  26
ATOM     26  C   UNL     1       6.857   3.917  26.460  0.00  0.00    +0.198 C 
BRANCH  26  27
ATOM     27  O   UNL     1       7.274   3.960  27.829  0.00  0.00    -0.378 OA
ATOM     28  C   UNL     1       6.838   2.825  28.570  0.00  0.00    +0.194 C 
ENDBRANCH  26  27
ENDBRANCH   6  26
TORSDOF 5
ENDMDL
MODEL 4
REMARK VINA RESULT:      -7.1      2.569      3.687
REMARK  Name = 
REMARK  6 active torsions:
REMARK  status: ('A' for Active; 'I' for Inactive)
REMARK    1  A    between atoms: C_10  and  C_23
REMARK    2  A    between atoms: C_16  and  O_17
REMARK    3  A    between atoms: C_19  and  C_20
REMARK    4  A    between atoms: C_20  and  O_21
REMARK    5  A    between atoms: O_21  and  C_22
REMARK    6  A    between atoms: C_26  and  O_27
REMARK                            x       y       z     vdW  Elec       q    Type
REMARK                         _______ _______ _______ _____ _____    ______ ____
ROOT
ATOM      1  C   UNL     1       7.516  -5.001  24.179  0.00  0.00    +0.035 C 
ATOM      2  C   UNL     1       6.280  -4.717  25.000  0.00  0.00    +0.002 A 
ATOM      3  C   UNL     1       5.624  -5.769  25.662  0.00  0.00    +0.053 A 
ATOM      4  C   UNL     1       4.523  -5.509  26.469  0.00  0.00    +0.118 A 
ATOM      5  C   UNL     1       4.049  -4.216  26.623  0.00  0.00    +0.055 A 
ATOM      6  C   UNL     1       4.668  -3.150  25.950  0.00  0.00    +0.023 A 
ATOM      7  C   UNL     1       5.762  -3.415  25.109  0.00  0.00    +0.130 A 
ATOM      8  O   UNL     1       6.324  -2.340  24.466  0.00  0.00    -0.483 OA
ATOM      9  C   UNL     1       7.148  -2.667  23.339  0.00  0.00    +0.207 C 
ATOM     10  C   UNL     1       8.201  -3.713  23.708  0.00  0.00    +0.048 C 
ATOM     11  C   UNL     1       9.102  -3.326  24.891  0.00  0.00    +0.083 C 
ATOM     12  C   UNL     1       9.562  -4.650  25.459  0.00  0.00    +0.250 C 
ATOM     13  F   UNL     1       9.569  -4.613  26.809  0.00  0.00    -0.206 F 
ATOM     14  F   UNL     1      10.828  -4.917  25.061  0.00  0.00    -0.206 F 
ATOM     15  C   UNL     1       8.629  -5.734  24.944  0.00  0.00    +0.084 C 
ENDROOT
BRANCH   9  16
ATOM     16  C   UNL     1       7.806  -1.409  22.788  0.00  0.00    -0.007 A 
ATOM     17  C   UNL     1       7.391  -0.126  23.182  0.00  0.00    +0.011 A 
ATOM     18  C   UNL     1       8.067   1.011  22.737  0.00  0.00    +0.046 A 
ATOM     19  C   UNL     1       9.163   0.876  21.896  0.00  0.00    +0.117 A 
ATOM     20  C   UNL     1       9.582  -0.379  21.470  0.00  0.00    +0.046 A 
ATOM     21  C   UNL     1       8.905  -1.518  21.917  0.00  0.00    +0.011 A 
BRANCH  19  22
ATOM     22  O   UNL     1       9.812   2.011  21.511  0.00  0.00    -0.507 OA
ATOM     23  H   UNL     1      10.431   2.270  22.213  0.00  0.00    +0.292 HD
ENDBRANCH  19  22
ENDBRANCH   9  16
BRANCH   4  24
ATOM     24  O   UNL     1       3.888  -6.505  27.150  0.00  0.00    -0.507 OA
ATOM     25  H   UNL     1       3.834  -7.292  26.584  0.00  0.00    +0.292 HD
ENDBRANCH   4  24
BRANCH   6  26
ATOM     26  C   UNL     1       4.155  -1.750  26.185  0.00  0.00    +0.198 C 
BRANCH  26  27
ATOM     27  O   UNL     1       2.724  -1.708  26.221  0.00  0.00    -0.378 OA
ATOM     28  C   UNL     1       2.225  -1.064  27.389  0.00  0.00    +0.194 C 
ENDBRANCH  26  27
ENDBRANCH   6  26
TORSDOF 5
ENDMDL
MODEL 5
REMARK VINA RESULT:      -7.1      3.052      4.224
REMARK  Name = 
REMARK  6 active torsions:
REMARK  status: ('A' for Active; 'I' for Inactive)
REMARK    1  A    between atoms: C_10  and  C_23
REMARK    2  A    between atoms: C_16  and  O_17
REMARK    3  A    between atoms: C_19  and  C_20
REMARK    4  A    between atoms: C_20  and  O_21
REMARK    5  A    between atoms: O_21  and  C_22
REMARK    6  A    between atoms: C_26  and  O_27
REMARK                            x       y       z     vdW  Elec       q    Type
REMARK                         _______ _______ _______ _____ _____    ______ ____
ROOT
ATOM      1  C   UNL     1       7.163  -2.211  26.792  0.00  0.00    +0.035 C 
ATOM      2  C   UNL     1       6.915  -3.495  26.035  0.00  0.00    +0.002 A 
ATOM      3  C   UNL     1       6.267  -4.568  26.672  0.00  0.00    +0.053 A 
ATOM      4  C   UNL     1       5.980  -5.730  25.966  0.00  0.00    +0.118 A 
ATOM      5  C   UNL     1       6.339  -5.853  24.633  0.00  0.00    +0.055 A 
ATOM      6  C   UNL     1       7.014  -4.809  23.981  0.00  0.00    +0.023 A 
ATOM      7  C   UNL     1       7.332  -3.645  24.701  0.00  0.00    +0.130 A 
ATOM      8  O   UNL     1       8.002  -2.659  24.020  0.00  0.00    -0.483 OA
ATOM      9  C   UNL     1       8.655  -1.685  24.846  0.00  0.00    +0.207 C 
ATOM     10  C   UNL     1       7.690  -1.099  25.879  0.00  0.00    +0.048 C 
ATOM     11  C   UNL     1       6.416  -0.479  25.285  0.00  0.00    +0.083 C 
ATOM     12  C   UNL     1       5.402  -0.569  26.404  0.00  0.00    +0.250 C 
ATOM     13  F   UNL     1       4.189  -0.916  25.920  0.00  0.00    -0.206 F 
ATOM     14  F   UNL     1       5.261   0.634  27.009  0.00  0.00    -0.206 F 
ATOM     15  C   UNL     1       5.902  -1.590  27.413  0.00  0.00    +0.084 C 
ENDROOT
BRANCH   9  16
ATOM     16  C   UNL     1       9.256  -0.584  23.983  0.00  0.00    -0.007 A 
ATOM     17  C   UNL     1       9.076  -0.558  22.590  0.00  0.00    +0.011 A 
ATOM     18  C   UNL     1       9.556   0.509  21.827  0.00  0.00    +0.046 A 
ATOM     19  C   UNL     1      10.220   1.556  22.451  0.00  0.00    +0.117 A 
ATOM     20  C   UNL     1      10.436   1.546  23.824  0.00  0.00    +0.046 A 
ATOM     21  C   UNL     1       9.952   0.478  24.587  0.00  0.00    +0.011 A 
BRANCH  19  22
ATOM     22  O   UNL     1      10.645   2.592  21.672  0.00  0.00    -0.507 OA
ATOM     23  H   UNL     1      10.108   3.375  21.875  0.00  0.00    +0.292 HD
ENDBRANCH  19  22
ENDBRANCH   9  16
BRANCH   4  24
ATOM     24  O   UNL     1       5.322  -6.772  26.547  0.00  0.00    -0.507 OA
ATOM     25  H   UNL     1       4.881  -7.294  25.856  0.00  0.00    +0.292 HD
ENDBRANCH   4  24
BRANCH   6  26
ATOM     26  C   UNL     1       7.341  -4.961  22.515  0.00  0.00    +0.198 C 
BRANCH  26  27
ATOM     27  O   UNL     1       6.802  -6.173  21.974  0.00  0.00    -0.378 OA
ATOM     28  C   UNL     1       6.104  -5.964  20.751  0.00  0.00    +0.194 C 
ENDBRANCH  26  27
ENDBRANCH   6  26
TORSDOF 5
ENDMDL
MODEL 6
REMARK VINA RESULT:      -7.1      1.904      2.509
REMARK  Name = 
REMARK  6 active torsions:
REMARK  status: ('A' for Active; 'I' for Inactive)
REMARK    1  A    between atoms: C_10  and  C_23
REMARK    2  A    between atoms: C_16  and  O_17
REMARK    3  A    between atoms: C_19  and  C_20
REMARK    4  A    between atoms: C_20  and  O_21
REMARK    5  A    between atoms: O_21  and  C_22
REMARK    6  A    between atoms: C_26  and  O_27
REMARK                            x       y       z     vdW  Elec       q    Type
REMARK                         _______ _______ _______ _____ _____    ______ ____
ROOT
ATOM      1  C   UNL     1       5.158  -4.748  23.045  0.00  0.00    +0.035 C 
ATOM      2  C   UNL     1       4.903  -5.431  24.369  0.00  0.00    +0.002 A 
ATOM      3  C   UNL     1       4.050  -6.547  24.426  0.00  0.00    +0.053 A 
ATOM      4  C   UNL     1       3.858  -7.219  25.627  0.00  0.00    +0.118 A 
ATOM      5  C   UNL     1       4.490  -6.793  26.784  0.00  0.00    +0.055 A 
ATOM      6  C   UNL     1       5.323  -5.663  26.761  0.00  0.00    +0.023 A 
ATOM      7  C   UNL     1       5.495  -4.964  25.554  0.00  0.00    +0.130 A 
ATOM      8  O   UNL     1       6.311  -3.860  25.588  0.00  0.00    -0.483 OA
ATOM      9  C   UNL     1       6.158  -2.956  24.486  0.00  0.00    +0.207 C 
ATOM     10  C   UNL     1       6.262  -3.691  23.148  0.00  0.00    +0.048 C 
ATOM     11  C   UNL     1       7.557  -4.495  22.959  0.00  0.00    +0.083 C 
ATOM     12  C   UNL     1       7.184  -5.575  21.968  0.00  0.00    +0.250 C 
ATOM     13  F   UNL     1       7.751  -6.752  22.310  0.00  0.00    -0.206 F 
ATOM     14  F   UNL     1       7.639  -5.257  20.733  0.00  0.00    -0.206 F 
ATOM     15  C   UNL     1       5.668  -5.684  21.939  0.00  0.00    +0.084 C 
ENDROOT
BRANCH   9  16
ATOM     16  C   UNL     1       7.192  -1.843  24.573  0.00  0.00    -0.007 A 
ATOM     17  C   UNL     1       7.307  -0.862  23.574  0.00  0.00    +0.011 A 
ATOM     18  C   UNL     1       8.199   0.203  23.718  0.00  0.00    +0.046 A 
ATOM     19  C   UNL     1       8.983   0.296  24.859  0.00  0.00    +0.117 A 
ATOM     20  C   UNL     1       8.910  -0.673  25.853  0.00  0.00    +0.046 A 
ATOM     21  C   UNL     1       8.015  -1.739  25.710  0.00  0.00    +0.011 A 
BRANCH  19  22
ATOM     22  O   UNL     1       9.817   1.368  24.972  0.00  0.00    -0.507 OA
ATOM     23  H   UNL     1       9.445   2.107  24.463  0.00  0.00    +0.292 HD
ENDBRANCH  19  22
ENDBRANCH   9  16
BRANCH   4  24
ATOM     24  O   UNL     1       3.065  -8.325  25.706  0.00  0.00    -0.507 OA
ATOM     25  H   UNL     1       2.174  -8.100  25.393  0.00  0.00    +0.292 HD
ENDBRANCH   4  24
BRANCH   6  26
ATOM     26  C   UNL     1       6.035  -5.261  28.031  0.00  0.00    +0.198 C 
BRANCH  26  27
ATOM     27  O   UNL     1       6.783  -6.349  28.586  0.00  0.00    -0.378 OA
ATOM     28  C   UNL     1       6.340  -6.707  29.892  0.00  0.00    +0.194 C 
ENDBRANCH  26  27
ENDBRANCH   6  26
TORSDOF 5
ENDMDL
MODEL 7
REMARK VINA RESULT:      -6.9      3.198      7.290
REMARK  Name = 
REMARK  6 active torsions:
REMARK  status: ('A' for Active; 'I' for Inactive)
REMARK    1  A    between atoms: C_10  and  C_23
REMARK    2  A    between atoms: C_16  and  O_17
REMARK    3  A    between atoms: C_19  and  C_20
REMARK    4  A    between atoms: C_20  and  O_21
REMARK    5  A    between atoms: O_21  and  C_22
REMARK    6  A    between atoms: C_26  and  O_27
REMARK                            x       y       z     vdW  Elec       q    Type
REMARK                         _______ _______ _______ _____ _____    ______ ____
ROOT
ATOM      1  C   UNL     1       9.992   0.151  24.611  0.00  0.00    +0.035 C 
ATOM      2  C   UNL     1       9.003   1.272  24.826  0.00  0.00    +0.002 A 
ATOM      3  C   UNL     1       9.363   2.593  24.506  0.00  0.00    +0.053 A 
ATOM      4  C   UNL     1       8.439   3.622  24.643  0.00  0.00    +0.118 A 
ATOM      5  C   UNL     1       7.159   3.366  25.106  0.00  0.00    +0.055 A 
ATOM      6  C   UNL     1       6.782   2.061  25.462  0.00  0.00    +0.023 A 
ATOM      7  C   UNL     1       7.724   1.023  25.353  0.00  0.00    +0.130 A 
ATOM      8  O   UNL     1       7.309  -0.232  25.724  0.00  0.00    -0.483 OA
ATOM      9  C   UNL     1       8.362  -1.169  25.985  0.00  0.00    +0.207 C 
ATOM     10  C   UNL     1       9.354  -1.226  24.822  0.00  0.00    +0.048 C 
ATOM     11  C   UNL     1       8.724  -1.549  23.458  0.00  0.00    +0.083 C 
ATOM     12  C   UNL     1       9.678  -0.942  22.454  0.00  0.00    +0.250 C 
ATOM     13  F   UNL     1       8.998  -0.357  21.444  0.00  0.00    -0.206 F 
ATOM     14  F   UNL     1      10.458  -1.903  21.906  0.00  0.00    -0.206 F 
ATOM     15  C   UNL     1      10.551   0.066  23.183  0.00  0.00    +0.084 C 
ENDROOT
BRANCH   9  16
ATOM     16  C   UNL     1       7.779  -2.547  26.266  0.00  0.00    -0.007 A 
ATOM     17  C   UNL     1       6.394  -2.782  26.242  0.00  0.00    +0.011 A 
ATOM     18  C   UNL     1       5.885  -4.071  26.410  0.00  0.00    +0.046 A 
ATOM     19  C   UNL     1       6.755  -5.135  26.605  0.00  0.00    +0.117 A 
ATOM     20  C   UNL     1       8.129  -4.930  26.660  0.00  0.00    +0.046 A 
ATOM     21  C   UNL     1       8.639  -3.639  26.489  0.00  0.00    +0.011 A 
BRANCH  19  22
ATOM     22  O   UNL     1       6.216  -6.381  26.734  0.00  0.00    -0.507 OA
ATOM     23  H   UNL     1       5.252  -6.315  26.642  0.00  0.00    +0.292 HD
ENDBRANCH  19  22
ENDBRANCH   9  16
BRANCH   4  24
ATOM     24  O   UNL     1       8.749   4.907  24.307  0.00  0.00    -0.507 OA
ATOM     25  H   UNL     1       9.374   5.263  24.959  0.00  0.00    +0.292 HD
ENDBRANCH   4  24
BRANCH   6  26
ATOM     26  C   UNL     1       5.363   1.813  25.913  0.00  0.00    +0.198 C 
BRANCH  26  27
ATOM     27  O   UNL     1       4.445   1.838  24.814  0.00  0.00    -0.378 OA
ATOM     28  C   UNL     1       3.551   2.945  24.872  0.00  0.00    +0.194 C 
ENDBRANCH  26  27
ENDBRANCH   6  26
TORSDOF 5
ENDMDL
MODEL 8
REMARK VINA RESULT:      -6.9      3.720      5.623
REMARK  Name = 
REMARK  6 active torsions:
REMARK  status: ('A' for Active; 'I' for Inactive)
REMARK    1  A    between atoms: C_10  and  C_23
REMARK    2  A    between atoms: C_16  and  O_17
REMARK    3  A    between atoms: C_19  and  C_20
REMARK    4  A    between atoms: C_20  and  O_21
REMARK    5  A    between atoms: O_21  and  C_22
REMARK    6  A    between atoms: C_26  and  O_27
REMARK                            x       y       z     vdW  Elec       q    Type
REMARK                         _______ _______ _______ _____ _____    ______ ____
ROOT
ATOM      1  C   UNL     1       9.101  -0.356  22.658  0.00  0.00    +0.035 C 
ATOM      2  C   UNL     1       8.309  -1.482  23.281  0.00  0.00    +0.002 A 
ATOM      3  C   UNL     1       8.835  -2.786  23.287  0.00  0.00    +0.053 A 
ATOM      4  C   UNL     1       8.143  -3.816  23.912  0.00  0.00    +0.118 A 
ATOM      5  C   UNL     1       6.922  -3.579  24.523  0.00  0.00    +0.055 A 
ATOM      6  C   UNL     1       6.359  -2.292  24.504  0.00  0.00    +0.023 A 
ATOM      7  C   UNL     1       7.043  -1.256  23.847  0.00  0.00    +0.130 A 
ATOM      8  O   UNL     1       6.444  -0.020  23.849  0.00  0.00    -0.483 OA
ATOM      9  C   UNL     1       6.938   0.897  22.863  0.00  0.00    +0.207 C 
ATOM     10  C   UNL     1       8.462   1.011  22.926  0.00  0.00    +0.048 C 
ATOM     11  C   UNL     1       9.017   1.409  24.303  0.00  0.00    +0.083 C 
ATOM     12  C   UNL     1      10.423   0.852  24.312  0.00  0.00    +0.250 C 
ATOM     13  F   UNL     1      10.719   0.326  25.521  0.00  0.00    -0.206 F 
ATOM     14  F   UNL     1      11.321   1.838  24.076  0.00  0.00    -0.206 F 
ATOM     15  C   UNL     1      10.523  -0.198  23.218  0.00  0.00    +0.084 C 
ENDROOT
BRANCH   9  16
ATOM     16  C   UNL     1       6.286   2.261  23.042  0.00  0.00    -0.007 A 
ATOM     17  C   UNL     1       5.254   2.469  23.973  0.00  0.00    +0.011 A 
ATOM     18  C   UNL     1       4.733   3.746  24.188  0.00  0.00    +0.046 A 
ATOM     19  C   UNL     1       5.239   4.825  23.476  0.00  0.00    +0.117 A 
ATOM     20  C   UNL     1       6.242   4.647  22.531  0.00  0.00    +0.046 A 
ATOM     21  C   UNL     1       6.765   3.367  22.317  0.00  0.00    +0.011 A 
BRANCH  19  22
ATOM     22  O   UNL     1       4.723   6.059  23.741  0.00  0.00    -0.507 OA
ATOM     23  H   UNL     1       3.935   5.955  24.299  0.00  0.00    +0.292 HD
ENDBRANCH  19  22
ENDBRANCH   9  16
BRANCH   4  24
ATOM     24  O   UNL     1       8.645  -5.082  23.965  0.00  0.00    -0.507 OA
ATOM     25  H   UNL     1       8.057  -5.678  23.473  0.00  0.00    +0.292 HD
ENDBRANCH   4  24
BRANCH   6  26
ATOM     26  C   UNL     1       5.053  -2.062  25.225  0.00  0.00    +0.198 C 
BRANCH  26  27
ATOM     27  O   UNL     1       4.005  -2.885  24.700  0.00  0.00    -0.378 OA
ATOM     28  C   UNL     1       3.234  -3.509  25.722  0.00  0.00    +0.194 C 
ENDBRANCH  26  27
ENDBRANCH   6  26
TORSDOF 5
ENDMDL
MODEL 9
REMARK VINA RESULT:      -6.8      3.591      7.303
REMARK  Name = 
REMARK  6 active torsions:
REMARK  status: ('A' for Active; 'I' for Inactive)
REMARK    1  A    between atoms: C_10  and  C_23
REMARK    2  A    between atoms: C_16  and  O_17
REMARK    3  A    between atoms: C_19  and  C_20
REMARK    4  A    between atoms: C_20  and  O_21
REMARK    5  A    between atoms: O_21  and  C_22
REMARK    6  A    between atoms: C_26  and  O_27
REMARK                            x       y       z     vdW  Elec       q    Type
REMARK                         _______ _______ _______ _____ _____    ______ ____
ROOT
ATOM      1  C   UNL     1       5.449   0.478  25.056  0.00  0.00    +0.035 C 
ATOM      2  C   UNL     1       6.079   1.270  23.935  0.00  0.00    +0.002 A 
ATOM      3  C   UNL     1       5.551   2.525  23.583  0.00  0.00    +0.053 A 
ATOM      4  C   UNL     1       6.162   3.288  22.594  0.00  0.00    +0.118 A 
ATOM      5  C   UNL     1       7.286   2.820  21.934  0.00  0.00    +0.055 A 
ATOM      6  C   UNL     1       7.816   1.557  22.245  0.00  0.00    +0.023 A 
ATOM      7  C   UNL     1       7.183   0.771  23.223  0.00  0.00    +0.130 A 
ATOM      8  O   UNL     1       7.734  -0.460  23.481  0.00  0.00    -0.483 OA
ATOM      9  C   UNL     1       6.873  -1.382  24.162  0.00  0.00    +0.207 C 
ATOM     10  C   UNL     1       6.279  -0.756  25.425  0.00  0.00    +0.048 C 
ATOM     11  C   UNL     1       7.317  -0.214  26.419  0.00  0.00    +0.083 C 
ATOM     12  C   UNL     1       6.574   0.858  27.186  0.00  0.00    +0.250 C 
ATOM     13  F   UNL     1       7.369   1.929  27.398  0.00  0.00    -0.206 F 
ATOM     14  F   UNL     1       6.199   0.392  28.401  0.00  0.00    -0.206 F 
ATOM     15  C   UNL     1       5.340   1.241  26.386  0.00  0.00    +0.084 C 
ENDROOT
BRANCH   9  16
ATOM     16  C   UNL     1       7.632  -2.659  24.497  0.00  0.00    -0.007 A 
ATOM     17  C   UNL     1       9.009  -2.784  24.251  0.00  0.00    +0.011 A 
ATOM     18  C   UNL     1       9.705  -3.927  24.650  0.00  0.00    +0.046 A 
ATOM     19  C   UNL     1       9.030  -4.953  25.297  0.00  0.00    +0.117 A 
ATOM     20  C   UNL     1       7.662  -4.868  25.532  0.00  0.00    +0.046 A 
ATOM     21  C   UNL     1       6.966  -3.722  25.133  0.00  0.00    +0.011 A 
BRANCH  19  22
ATOM     22  O   UNL     1       9.754  -6.037  25.697  0.00  0.00    -0.507 OA
ATOM     23  H   UNL     1       9.976  -6.569  24.916  0.00  0.00    +0.292 HD
ENDBRANCH  19  22
ENDBRANCH   9  16
BRANCH   4  24
ATOM     24  O   UNL     1       5.693   4.523  22.257  0.00  0.00    -0.507 OA
ATOM     25  H   UNL     1       6.178   5.195  22.764  0.00  0.00    +0.292 HD
ENDBRANCH   4  24
BRANCH   6  26
ATOM     26  C   UNL     1       9.073   1.105  21.541  0.00  0.00    +0.198 C 
BRANCH  26  27
ATOM     27  O   UNL     1      10.209   1.886  21.929  0.00  0.00    -0.378 OA
ATOM     28  C   UNL     1      10.547   1.715  23.302  0.00  0.00    +0.194 C 
ENDBRANCH  26  27
ENDBRANCH   6  26
TORSDOF 5
ENDMDL
