MODEL 1
REMARK VINA RESULT:      -4.6      0.000      0.000
REMARK  Name = 
REMARK  12 active torsions:
REMARK  status: ('A' for Active; 'I' for Inactive)
REMARK    1  A    between atoms: CB_1  and  CA_2
REMARK    2  A    between atoms: CA_2  and  N_4
REMARK    3  A    between atoms: CA_2  and  C_15
REMARK    4  A    between atoms: N_4  and  CE_5
REMARK    5  A    between atoms: CE_5  and  CD_6
REMARK    6  A    between atoms: CD_6  and  CG_7
REMARK    7  A    between atoms: CG_7  and  CB_8
REMARK    8  A    between atoms: CB_8  and  CA_9
REMARK    9  A    between atoms: CA_9  and  N_11
REMARK   10  A    between atoms: CA_9  and  C_12
REMARK   11  A    between atoms: C_12  and  O_13
REMARK   12  A    between atoms: C_15  and  O_16
REMARK                            x       y       z     vdW  Elec       q    Type
REMARK                         _______ _______ _______ _____ _____    ______ ____
ROOT
ATOM      1  CD  LYS A   1       7.604  -3.137  23.798  0.00  0.00    +0.015 C 
ENDROOT
BRANCH   1   2
ATOM      2  CE  LYS A   1       7.584  -4.156  22.653  0.00  0.00    +0.081 C 
BRANCH   2   3
ATOM      3  N   LYS A   1       7.309  -5.517  23.139  0.00  0.00    -0.304 NA
ATOM      4  H   LYS A   1       8.185  -6.046  23.082  0.00  0.00    +0.123 HD
BRANCH   3   6
ATOM      5  CB  LYS A   1       6.202  -5.569  20.883  0.00  0.00    +0.036 C 
ATOM      6  CA  LYS A   1       6.329  -6.218  22.255  0.00  0.00    +0.160 C 
BRANCH   6   7
ATOM      7  C   LYS A   1       4.956  -6.166  22.942  0.00  0.00    +0.322 C 
ATOM      8  OXT LYS A   1       4.110  -5.307  22.748  0.00  0.00    -0.249 OA
BRANCH   7   9
ATOM      9  O   LYS A   1       4.790  -7.193  23.816  0.00  0.00    -0.480 OA
ATOM     10  H   LYS A   1       5.341  -7.944  23.487  0.00  0.00    +0.295 HD
ENDBRANCH   7   9
ENDBRANCH   6   7
ENDBRANCH   3   6
ENDBRANCH   2   3
ENDBRANCH   1   2
BRANCH   1  11
ATOM     11  CG  LYS A   1       8.875  -3.128  24.653  0.00  0.00    +0.003 C 
BRANCH  11  12
ATOM     12  CB  LYS A   1       8.620  -3.414  26.142  0.00  0.00    +0.030 C 
BRANCH  12  13
ATOM     13  CA  LYS A   1       8.821  -4.885  26.536  0.00  0.00    +0.161 C 
BRANCH  13  14
ATOM     14  N   LYS A   1       9.551  -5.626  25.469  0.00  0.00    -0.318 NA
ATOM     15  H1  LYS A   1      10.553  -5.480  25.608  0.00  0.00    +0.119 HD
ATOM     16  H2  LYS A   1       9.427  -6.632  25.646  0.00  0.00    +0.119 HD
ENDBRANCH  13  14
BRANCH  13  17
ATOM     17  C   LYS A   1       7.466  -5.562  26.784  0.00  0.00    +0.322 C 
ATOM     18  OXT LYS A   1       6.550  -5.615  25.980  0.00  0.00    -0.249 OA
BRANCH  17  19
ATOM     19  O   LYS A   1       7.429  -6.146  28.010  0.00  0.00    -0.480 OA
ATOM     20  H   LYS A   1       6.578  -5.866  28.429  0.00  0.00    +0.295 HD
ENDBRANCH  17  19
ENDBRANCH  13  17
ENDBRANCH  12  13
ENDBRANCH  11  12
ENDBRANCH   1  11
TORSDOF 11
ENDMDL
MODEL 2
REMARK VINA RESULT:      -4.6      4.748      6.238
REMARK  Name = 
REMARK  12 active torsions:
REMARK  status: ('A' for Active; 'I' for Inactive)
REMARK    1  A    between atoms: CB_1  and  CA_2
REMARK    2  A    between atoms: CA_2  and  N_4
REMARK    3  A    between atoms: CA_2  and  C_15
REMARK    4  A    between atoms: N_4  and  CE_5
REMARK    5  A    between atoms: CE_5  and  CD_6
REMARK    6  A    between atoms: CD_6  and  CG_7
REMARK    7  A    between atoms: CG_7  and  CB_8
REMARK    8  A    between atoms: CB_8  and  CA_9
REMARK    9  A    between atoms: CA_9  and  N_11
REMARK   10  A    between atoms: CA_9  and  C_12
REMARK   11  A    between atoms: C_12  and  O_13
REMARK   12  A    between atoms: C_15  and  O_16
REMARK                            x       y       z     vdW  Elec       q    Type
REMARK                         _______ _______ _______ _____ _____    ______ ____
ROOT
ATOM      1  CD  LYS A   1      10.244  -1.469  22.343  0.00  0.00    +0.015 C 
ENDROOT
BRANCH   1   2
ATOM      2  CE  LYS A   1       9.648  -1.904  23.685  0.00  0.00    +0.081 C 
BRANCH   2   3
ATOM      3  N   LYS A   1      10.061  -3.270  24.048  0.00  0.00    -0.304 NA
ATOM      4  H   LYS A   1      10.390  -3.728  23.192  0.00  0.00    +0.123 HD
BRANCH   3   6
ATOM      5  CB  LYS A   1       7.674  -3.216  24.839  0.00  0.00    +0.036 C 
ATOM      6  CA  LYS A   1       8.899  -4.072  24.540  0.00  0.00    +0.160 C 
BRANCH   6   7
ATOM      7  C   LYS A   1       9.328  -4.769  25.840  0.00  0.00    +0.322 C 
ATOM      8  OXT LYS A   1       8.803  -4.600  26.929  0.00  0.00    -0.249 OA
BRANCH   7   9
ATOM      9  O   LYS A   1      10.386  -5.599  25.642  0.00  0.00    -0.480 OA
ATOM     10  H   LYS A   1      10.786  -5.353  24.773  0.00  0.00    +0.295 HD
ENDBRANCH   7   9
ENDBRANCH   6   7
ENDBRANCH   3   6
ENDBRANCH   2   3
ENDBRANCH   1   2
BRANCH   1  11
ATOM     11  CG  LYS A   1       9.407  -0.469  21.540  0.00  0.00    +0.003 C 
BRANCH  11  12
ATOM     12  CB  LYS A   1       8.517   0.432  22.413  0.00  0.00    +0.030 C 
BRANCH  12  13
ATOM     13  CA  LYS A   1       9.137   1.801  22.727  0.00  0.00    +0.161 C 
BRANCH  13  14
ATOM     14  N   LYS A   1      10.116   2.196  21.676  0.00  0.00    -0.318 NA
ATOM     15  H1  LYS A   1      10.663   2.984  22.029  0.00  0.00    +0.119 HD
ATOM     16  H2  LYS A   1      10.809   1.439  21.593  0.00  0.00    +0.119 HD
ENDBRANCH  13  14
BRANCH  13  17
ATOM     17  C   LYS A   1       9.843   1.769  24.089  0.00  0.00    +0.322 C 
ATOM     18  OXT LYS A   1      10.981   1.370  24.280  0.00  0.00    -0.249 OA
BRANCH  17  19
ATOM     19  O   LYS A   1       9.053   2.292  25.063  0.00  0.00    -0.480 OA
ATOM     20  H   LYS A   1       8.749   1.530  25.616  0.00  0.00    +0.295 HD
ENDBRANCH  17  19
ENDBRANCH  13  17
ENDBRANCH  12  13
ENDBRANCH  11  12
ENDBRANCH   1  11
TORSDOF 11
ENDMDL
MODEL 3
REMARK VINA RESULT:      -4.5      4.459      5.777
REMARK  Name = 
REMARK  12 active torsions:
REMARK  status: ('A' for Active; 'I' for Inactive)
REMARK    1  A    between atoms: CB_1  and  CA_2
REMARK    2  A    between atoms: CA_2  and  N_4
REMARK    3  A    between atoms: CA_2  and  C_15
REMARK    4  A    between atoms: N_4  and  CE_5
REMARK    5  A    between atoms: CE_5  and  CD_6
REMARK    6  A    between atoms: CD_6  and  CG_7
REMARK    7  A    between atoms: CG_7  and  CB_8
REMARK    8  A    between atoms: CB_8  and  CA_9
REMARK    9  A    between atoms: CA_9  and  N_11
REMARK   10  A    between atoms: CA_9  and  C_12
REMARK   11  A    between atoms: C_12  and  O_13
REMARK   12  A    between atoms: C_15  and  O_16
REMARK                            x       y       z     vdW  Elec       q    Type
REMARK                         _______ _______ _______ _____ _____    ______ ____
ROOT
ATOM      1  CD  LYS A   1       7.541  -1.170  24.584  0.00  0.00    +0.015 C 
ENDROOT
BRANCH   1   2
ATOM      2  CE  LYS A   1       8.821  -0.373  24.856  0.00  0.00    +0.081 C 
BRANCH   2   3
ATOM      3  N   LYS A   1       9.873  -0.681  23.874  0.00  0.00    -0.304 NA
ATOM      4  H   LYS A   1      10.633  -1.150  24.376  0.00  0.00    +0.123 HD
BRANCH   3   6
ATOM      5  CB  LYS A   1      10.161   1.803  24.138  0.00  0.00    +0.036 C 
ATOM      6  CA  LYS A   1      10.454   0.568  23.294  0.00  0.00    +0.160 C 
BRANCH   6   7
ATOM      7  C   LYS A   1       9.829   0.776  21.906  0.00  0.00    +0.322 C 
ATOM      8  OXT LYS A   1       9.336  -0.108  21.222  0.00  0.00    -0.249 OA
BRANCH   7   9
ATOM      9  O   LYS A   1       9.901   2.074  21.510  0.00  0.00    -0.480 OA
ATOM     10  H   LYS A   1       9.219   2.570  22.023  0.00  0.00    +0.295 HD
ENDBRANCH   7   9
ENDBRANCH   6   7
ENDBRANCH   3   6
ENDBRANCH   2   3
ENDBRANCH   1   2
BRANCH   1  11
ATOM     11  CG  LYS A   1       7.065  -2.066  25.732  0.00  0.00    +0.003 C 
BRANCH  11  12
ATOM     12  CB  LYS A   1       8.195  -2.865  26.401  0.00  0.00    +0.030 C 
BRANCH  12  13
ATOM     13  CA  LYS A   1       8.304  -4.317  25.912  0.00  0.00    +0.161 C 
BRANCH  13  14
ATOM     14  N   LYS A   1       8.332  -5.265  27.060  0.00  0.00    -0.318 NA
ATOM     15  H1  LYS A   1       8.658  -4.758  27.885  0.00  0.00    +0.119 HD
ATOM     16  H2  LYS A   1       7.358  -5.503  27.292  0.00  0.00    +0.119 HD
ENDBRANCH  13  14
BRANCH  13  17
ATOM     17  C   LYS A   1       9.575  -4.504  25.072  0.00  0.00    +0.322 C 
ATOM     18  OXT LYS A   1      10.011  -3.695  24.269  0.00  0.00    -0.249 OA
BRANCH  17  19
ATOM     19  O   LYS A   1      10.192  -5.677  25.372  0.00  0.00    -0.480 OA
ATOM     20  H   LYS A   1      11.158  -5.476  25.438  0.00  0.00    +0.295 HD
ENDBRANCH  17  19
ENDBRANCH  13  17
ENDBRANCH  12  13
ENDBRANCH  11  12
ENDBRANCH   1  11
TORSDOF 11
ENDMDL
MODEL 4
REMARK VINA RESULT:      -4.5      4.199      5.748
REMARK  Name = 
REMARK  12 active torsions:
REMARK  status: ('A' for Active; 'I' for Inactive)
REMARK    1  A    between atoms: CB_1  and  CA_2
REMARK    2  A    between atoms: CA_2  and  N_4
REMARK    3  A    between atoms: CA_2  and  C_15
REMARK    4  A    between atoms: N_4  and  CE_5
REMARK    5  A    between atoms: CE_5  and  CD_6
REMARK    6  A    between atoms: CD_6  and  CG_7
REMARK    7  A    between atoms: CG_7  and  CB_8
REMARK    8  A    between atoms: CB_8  and  CA_9
REMARK    9  A    between atoms: CA_9  and  N_11
REMARK   10  A    between atoms: CA_9  and  C_12
REMARK   11  A    between atoms: C_12  and  O_13
REMARK   12  A    between atoms: C_15  and  O_16
REMARK                            x       y       z     vdW  Elec       q    Type
REMARK                         _______ _______ _______ _____ _____    ______ ____
ROOT
ATOM      1  CD  LYS A   1       9.210  -0.331  25.677  0.00  0.00    +0.015 C 
ENDROOT
BRANCH   1   2
ATOM      2  CE  LYS A   1       8.669  -1.757  25.527  0.00  0.00    +0.081 C 
BRANCH   2   3
ATOM      3  N   LYS A   1       9.439  -2.531  24.541  0.00  0.00    -0.304 NA
ATOM      4  H   LYS A   1       9.514  -1.960  23.694  0.00  0.00    +0.123 HD
BRANCH   3   6
ATOM      5  CB  LYS A   1       7.202  -3.626  24.199  0.00  0.00    +0.036 C 
ATOM      6  CA  LYS A   1       8.717  -3.781  24.152  0.00  0.00    +0.160 C 
BRANCH   6   7
ATOM      7  C   LYS A   1       9.120  -4.884  25.141  0.00  0.00    +0.322 C 
ATOM      8  OXT LYS A   1       8.367  -5.408  25.948  0.00  0.00    -0.249 OA
BRANCH   7   9
ATOM      9  O   LYS A   1      10.435  -5.207  25.028  0.00  0.00    -0.480 OA
ATOM     10  H   LYS A   1      10.554  -6.087  25.460  0.00  0.00    +0.295 HD
ENDBRANCH   7   9
ENDBRANCH   6   7
ENDBRANCH   3   6
ENDBRANCH   2   3
ENDBRANCH   1   2
BRANCH   1  11
ATOM     11  CG  LYS A   1      10.345   0.049  24.722  0.00  0.00    +0.003 C 
BRANCH  11  12
ATOM     12  CB  LYS A   1       9.982   1.185  23.751  0.00  0.00    +0.030 C 
BRANCH  12  13
ATOM     13  CA  LYS A   1      10.095   0.796  22.270  0.00  0.00    +0.161 C 
BRANCH  13  14
ATOM     14  N   LYS A   1       9.517   1.856  21.396  0.00  0.00    -0.318 NA
ATOM     15  H1  LYS A   1      10.039   1.866  20.518  0.00  0.00    +0.119 HD
ATOM     16  H2  LYS A   1       8.576   1.549  21.114  0.00  0.00    +0.119 HD
ENDBRANCH  13  14
BRANCH  13  17
ATOM     17  C   LYS A   1       9.367  -0.529  22.006  0.00  0.00    +0.322 C 
ATOM     18  OXT LYS A   1       8.175  -0.721  22.181  0.00  0.00    -0.249 OA
BRANCH  17  19
ATOM     19  O   LYS A   1      10.216  -1.461  21.501  0.00  0.00    -0.480 OA
ATOM     20  H   LYS A   1      11.106  -1.270  21.889  0.00  0.00    +0.295 HD
ENDBRANCH  17  19
ENDBRANCH  13  17
ENDBRANCH  12  13
ENDBRANCH  11  12
ENDBRANCH   1  11
TORSDOF 11
ENDMDL
MODEL 5
REMARK VINA RESULT:      -4.5      6.233      7.372
REMARK  Name = 
REMARK  12 active torsions:
REMARK  status: ('A' for Active; 'I' for Inactive)
REMARK    1  A    between atoms: CB_1  and  CA_2
REMARK    2  A    between atoms: CA_2  and  N_4
REMARK    3  A    between atoms: CA_2  and  C_15
REMARK    4  A    between atoms: N_4  and  CE_5
REMARK    5  A    between atoms: CE_5  and  CD_6
REMARK    6  A    between atoms: CD_6  and  CG_7
REMARK    7  A    between atoms: CG_7  and  CB_8
REMARK    8  A    between atoms: CB_8  and  CA_9
REMARK    9  A    between atoms: CA_9  and  N_11
REMARK   10  A    between atoms: CA_9  and  C_12
REMARK   11  A    between atoms: C_12  and  O_13
REMARK   12  A    between atoms: C_15  and  O_16
REMARK                            x       y       z     vdW  Elec       q    Type
REMARK                         _______ _______ _______ _____ _____    ______ ____
ROOT
ATOM      1  CD  LYS A   1       8.752   0.569  25.125  0.00  0.00    +0.015 C 
ENDROOT
BRANCH   1   2
ATOM      2  CE  LYS A   1       7.932  -0.645  24.676  0.00  0.00    +0.081 C 
BRANCH   2   3
ATOM      3  N   LYS A   1       7.713  -0.646  23.221  0.00  0.00    -0.304 NA
ATOM      4  H   LYS A   1       6.701  -0.679  23.063  0.00  0.00    +0.123 HD
BRANCH   3   6
ATOM      5  CB  LYS A   1       8.528  -2.995  23.593  0.00  0.00    +0.036 C 
ATOM      6  CA  LYS A   1       8.283  -1.875  22.589  0.00  0.00    +0.160 C 
BRANCH   6   7
ATOM      7  C   LYS A   1       9.628  -1.496  21.953  0.00  0.00    +0.322 C 
ATOM      8  OXT LYS A   1      10.720  -1.871  22.350  0.00  0.00    -0.249 OA
BRANCH   7   9
ATOM      9  O   LYS A   1       9.466  -0.668  20.887  0.00  0.00    -0.480 OA
ATOM     10  H   LYS A   1      10.068  -0.993  20.175  0.00  0.00    +0.295 HD
ENDBRANCH   7   9
ENDBRANCH   6   7
ENDBRANCH   3   6
ENDBRANCH   2   3
ENDBRANCH   1   2
BRANCH   1  11
ATOM     11  CG  LYS A   1      10.272   0.421  25.005  0.00  0.00    +0.003 C 
BRANCH  11  12
ATOM     12  CB  LYS A   1      10.909   1.388  23.993  0.00  0.00    +0.030 C 
BRANCH  12  13
ATOM     13  CA  LYS A   1       9.892   2.254  23.236  0.00  0.00    +0.161 C 
BRANCH  13  14
ATOM     14  N   LYS A   1      10.084   2.136  21.763  0.00  0.00    -0.318 NA
ATOM     15  H1  LYS A   1      10.608   2.953  21.443  0.00  0.00    +0.119 HD
ATOM     16  H2  LYS A   1      10.730   1.354  21.594  0.00  0.00    +0.119 HD
ENDBRANCH  13  14
BRANCH  13  17
ATOM     17  C   LYS A   1      10.030   3.726  23.647  0.00  0.00    +0.322 C 
ATOM     18  OXT LYS A   1       9.243   4.335  24.353  0.00  0.00    -0.249 OA
BRANCH  17  19
ATOM     19  O   LYS A   1      11.180   4.264  23.160  0.00  0.00    -0.480 OA
ATOM     20  H   LYS A   1      11.840   4.226  23.896  0.00  0.00    +0.295 HD
ENDBRANCH  17  19
ENDBRANCH  13  17
ENDBRANCH  12  13
ENDBRANCH  11  12
ENDBRANCH   1  11
TORSDOF 11
ENDMDL
MODEL 6
REMARK VINA RESULT:      -4.4      4.692      5.986
REMARK  Name = 
REMARK  12 active torsions:
REMARK  status: ('A' for Active; 'I' for Inactive)
REMARK    1  A    between atoms: CB_1  and  CA_2
REMARK    2  A    between atoms: CA_2  and  N_4
REMARK    3  A    between atoms: CA_2  and  C_15
REMARK    4  A    between atoms: N_4  and  CE_5
REMARK    5  A    between atoms: CE_5  and  CD_6
REMARK    6  A    between atoms: CD_6  and  CG_7
REMARK    7  A    between atoms: CG_7  and  CB_8
REMARK    8  A    between atoms: CB_8  and  CA_9
REMARK    9  A    between atoms: CA_9  and  N_11
REMARK   10  A    between atoms: CA_9  and  C_12
REMARK   11  A    between atoms: C_12  and  O_13
REMARK   12  A    between atoms: C_15  and  O_16
REMARK                            x       y       z     vdW  Elec       q    Type
REMARK                         _______ _______ _______ _____ _____    ______ ____
ROOT
ATOM      1  CD  LYS A   1       9.876  -2.370  23.681  0.00  0.00    +0.015 C 
ENDROOT
BRANCH   1   2
ATOM      2  CE  LYS A   1      10.156  -1.144  22.805  0.00  0.00    +0.081 C 
BRANCH   2   3
ATOM      3  N   LYS A   1      10.584   0.013  23.607  0.00  0.00    -0.304 NA
ATOM      4  H   LYS A   1      10.603  -0.284  24.587  0.00  0.00    +0.123 HD
BRANCH   3   6
ATOM      5  CB  LYS A   1       8.378   0.772  22.670  0.00  0.00    +0.036 C 
ATOM      6  CA  LYS A   1       9.593   1.128  23.519  0.00  0.00    +0.160 C 
BRANCH   6   7
ATOM      7  C   LYS A   1      10.295   2.331  22.872  0.00  0.00    +0.322 C 
ATOM      8  OXT LYS A   1      10.843   3.233  23.486  0.00  0.00    -0.249 OA
BRANCH   7   9
ATOM      9  O   LYS A   1      10.225   2.286  21.516  0.00  0.00    -0.480 OA
ATOM     10  H   LYS A   1      11.137   2.453  21.174  0.00  0.00    +0.295 HD
ENDBRANCH   7   9
ENDBRANCH   6   7
ENDBRANCH   3   6
ENDBRANCH   2   3
ENDBRANCH   1   2
BRANCH   1  11
ATOM     11  CG  LYS A   1       8.498  -3.014  23.495  0.00  0.00    +0.003 C 
BRANCH  11  12
ATOM     12  CB  LYS A   1       8.392  -4.426  24.093  0.00  0.00    +0.030 C 
BRANCH  12  13
ATOM     13  CA  LYS A   1       9.140  -4.597  25.423  0.00  0.00    +0.161 C 
BRANCH  13  14
ATOM     14  N   LYS A   1      10.026  -5.794  25.385  0.00  0.00    -0.318 NA
ATOM     15  H1  LYS A   1       9.595  -6.491  24.775  0.00  0.00    +0.119 HD
ATOM     16  H2  LYS A   1      10.885  -5.532  24.883  0.00  0.00    +0.119 HD
ENDBRANCH  13  14
BRANCH  13  17
ATOM     17  C   LYS A   1       8.146  -4.740  26.583  0.00  0.00    +0.322 C 
ATOM     18  OXT LYS A   1       7.402  -3.860  26.982  0.00  0.00    -0.249 OA
BRANCH  17  19
ATOM     19  O   LYS A   1       8.161  -6.002  27.087  0.00  0.00    -0.480 OA
ATOM     20  H   LYS A   1       7.840  -6.596  26.365  0.00  0.00    +0.295 HD
ENDBRANCH  17  19
ENDBRANCH  13  17
ENDBRANCH  12  13
ENDBRANCH  11  12
ENDBRANCH   1  11
TORSDOF 11
ENDMDL
MODEL 7
REMARK VINA RESULT:      -4.3      4.457      5.849
REMARK  Name = 
REMARK  12 active torsions:
REMARK  status: ('A' for Active; 'I' for Inactive)
REMARK    1  A    between atoms: CB_1  and  CA_2
REMARK    2  A    between atoms: CA_2  and  N_4
REMARK    3  A    between atoms: CA_2  and  C_15
REMARK    4  A    between atoms: N_4  and  CE_5
REMARK    5  A    between atoms: CE_5  and  CD_6
REMARK    6  A    between atoms: CD_6  and  CG_7
REMARK    7  A    between atoms: CG_7  and  CB_8
REMARK    8  A    between atoms: CB_8  and  CA_9
REMARK    9  A    between atoms: CA_9  and  N_11
REMARK   10  A    between atoms: CA_9  and  C_12
REMARK   11  A    between atoms: C_12  and  O_13
REMARK   12  A    between atoms: C_15  and  O_16
REMARK                            x       y       z     vdW  Elec       q    Type
REMARK                         _______ _______ _______ _____ _____    ______ ____
ROOT
ATOM      1  CD  LYS A   1       8.458  -1.696  24.678  0.00  0.00    +0.015 C 
ENDROOT
BRANCH   1   2
ATOM      2  CE  LYS A   1       9.001  -2.821  23.791  0.00  0.00    +0.081 C 
BRANCH   2   3
ATOM      3  N   LYS A   1       9.692  -3.852  24.582  0.00  0.00    -0.304 NA
ATOM      4  H   LYS A   1      10.553  -4.095  24.083  0.00  0.00    +0.123 HD
BRANCH   3   6
ATOM      5  CB  LYS A   1       7.637  -5.061  23.784  0.00  0.00    +0.036 C 
ATOM      6  CA  LYS A   1       8.881  -5.105  24.665  0.00  0.00    +0.160 C 
BRANCH   6   7
ATOM      7  C   LYS A   1       8.432  -5.278  26.123  0.00  0.00    +0.322 C 
ATOM      8  OXT LYS A   1       7.391  -5.810  26.476  0.00  0.00    -0.249 OA
BRANCH   7   9
ATOM      9  O   LYS A   1       9.332  -4.748  26.993  0.00  0.00    -0.480 OA
ATOM     10  H   LYS A   1       9.479  -5.421  27.701  0.00  0.00    +0.295 HD
ENDBRANCH   7   9
ENDBRANCH   6   7
ENDBRANCH   3   6
ENDBRANCH   2   3
ENDBRANCH   1   2
BRANCH   1  11
ATOM     11  CG  LYS A   1       9.491  -0.665  25.145  0.00  0.00    +0.003 C 
BRANCH  11  12
ATOM     12  CB  LYS A   1      10.525  -0.296  24.070  0.00  0.00    +0.030 C 
BRANCH  12  13
ATOM     13  CA  LYS A   1      10.363   1.126  23.513  0.00  0.00    +0.161 C 
BRANCH  13  14
ATOM     14  N   LYS A   1       9.356   1.893  24.298  0.00  0.00    -0.318 NA
ATOM     15  H1  LYS A   1       9.217   2.797  23.842  0.00  0.00    +0.119 HD
ATOM     16  H2  LYS A   1       8.448   1.424  24.186  0.00  0.00    +0.119 HD
ENDBRANCH  13  14
BRANCH  13  17
ATOM     17  C   LYS A   1       9.927   1.079  22.042  0.00  0.00    +0.322 C 
ATOM     18  OXT LYS A   1       9.561   0.076  21.451  0.00  0.00    -0.249 OA
BRANCH  17  19
ATOM     19  O   LYS A   1       9.951   2.317  21.485  0.00  0.00    -0.480 OA
ATOM     20  H   LYS A   1       9.507   2.237  20.605  0.00  0.00    +0.295 HD
ENDBRANCH  17  19
ENDBRANCH  13  17
ENDBRANCH  12  13
ENDBRANCH  11  12
ENDBRANCH   1  11
TORSDOF 11
ENDMDL
MODEL 8
REMARK VINA RESULT:      -4.2      4.512      6.078
REMARK  Name = 
REMARK  12 active torsions:
REMARK  status: ('A' for Active; 'I' for Inactive)
REMARK    1  A    between atoms: CB_1  and  CA_2
REMARK    2  A    between atoms: CA_2  and  N_4
REMARK    3  A    between atoms: CA_2  and  C_15
REMARK    4  A    between atoms: N_4  and  CE_5
REMARK    5  A    between atoms: CE_5  and  CD_6
REMARK    6  A    between atoms: CD_6  and  CG_7
REMARK    7  A    between atoms: CG_7  and  CB_8
REMARK    8  A    between atoms: CB_8  and  CA_9
REMARK    9  A    between atoms: CA_9  and  N_11
REMARK   10  A    between atoms: CA_9  and  C_12
REMARK   11  A    between atoms: C_12  and  O_13
REMARK   12  A    between atoms: C_15  and  O_16
REMARK                            x       y       z     vdW  Elec       q    Type
REMARK                         _______ _______ _______ _____ _____    ______ ____
ROOT
ATOM      1  CD  LYS A   1       7.733  -0.953  25.541  0.00  0.00    +0.015 C 
ENDROOT
BRANCH   1   2
ATOM      2  CE  LYS A   1       8.830   0.020  25.097  0.00  0.00    +0.081 C 
BRANCH   2   3
ATOM      3  N   LYS A   1       9.614  -0.518  23.974  0.00  0.00    -0.304 NA
ATOM      4  H   LYS A   1      10.291  -1.182  24.362  0.00  0.00    +0.123 HD
BRANCH   3   6
ATOM      5  CB  LYS A   1      10.348   1.886  24.050  0.00  0.00    +0.036 C 
ATOM      6  CA  LYS A   1      10.408   0.558  23.305  0.00  0.00    +0.160 C 
BRANCH   6   7
ATOM      7  C   LYS A   1       9.825   0.767  21.900  0.00  0.00    +0.322 C 
ATOM      8  OXT LYS A   1       9.363  -0.117  21.196  0.00  0.00    -0.249 OA
BRANCH   7   9
ATOM      9  O   LYS A   1       9.895   2.069  21.514  0.00  0.00    -0.480 OA
ATOM     10  H   LYS A   1       8.969   2.409  21.478  0.00  0.00    +0.295 HD
ENDBRANCH   7   9
ENDBRANCH   6   7
ENDBRANCH   3   6
ENDBRANCH   2   3
ENDBRANCH   1   2
BRANCH   1  11
ATOM     11  CG  LYS A   1       8.221  -2.313  26.049  0.00  0.00    +0.003 C 
BRANCH  11  12
ATOM     12  CB  LYS A   1       7.561  -3.509  25.343  0.00  0.00    +0.030 C 
BRANCH  12  13
ATOM     13  CA  LYS A   1       8.395  -4.089  24.192  0.00  0.00    +0.161 C 
BRANCH  13  14
ATOM     14  N   LYS A   1       9.798  -3.589  24.246  0.00  0.00    -0.318 NA
ATOM     15  H1  LYS A   1       9.803  -2.708  24.765  0.00  0.00    +0.119 HD
ATOM     16  H2  LYS A   1      10.334  -4.227  24.849  0.00  0.00    +0.119 HD
ENDBRANCH  13  14
BRANCH  13  17
ATOM     17  C   LYS A   1       7.777  -3.711  22.839  0.00  0.00    +0.322 C 
ATOM     18  OXT LYS A   1       6.913  -4.349  22.260  0.00  0.00    -0.249 OA
BRANCH  17  19
ATOM     19  O   LYS A   1       8.280  -2.534  22.382  0.00  0.00    -0.480 OA
ATOM     20  H   LYS A   1       8.247  -2.580  21.395  0.00  0.00    +0.295 HD
ENDBRANCH  17  19
ENDBRANCH  13  17
ENDBRANCH  12  13
ENDBRANCH  11  12
ENDBRANCH   1  11
TORSDOF 11
ENDMDL
MODEL 9
REMARK VINA RESULT:      -4.2      3.626      5.256
REMARK  Name = 
REMARK  12 active torsions:
REMARK  status: ('A' for Active; 'I' for Inactive)
REMARK    1  A    between atoms: CB_1  and  CA_2
REMARK    2  A    between atoms: CA_2  and  N_4
REMARK    3  A    between atoms: CA_2  and  C_15
REMARK    4  A    between atoms: N_4  and  CE_5
REMARK    5  A    between atoms: CE_5  and  CD_6
REMARK    6  A    between atoms: CD_6  and  CG_7
REMARK    7  A    between atoms: CG_7  and  CB_8
REMARK    8  A    between atoms: CB_8  and  CA_9
REMARK    9  A    between atoms: CA_9  and  N_11
REMARK   10  A    between atoms: CA_9  and  C_12
REMARK   11  A    between atoms: C_12  and  O_13
REMARK   12  A    between atoms: C_15  and  O_16
REMARK                            x       y       z     vdW  Elec       q    Type
REMARK                         _______ _______ _______ _____ _____    ______ ____
ROOT
ATOM      1  CD  LYS A   1       7.255  -2.918  22.564  0.00  0.00    +0.015 C 
ENDROOT
BRANCH   1   2
ATOM      2  CE  LYS A   1       8.360  -1.857  22.528  0.00  0.00    +0.081 C 
BRANCH   2   3
ATOM      3  N   LYS A   1       8.498  -1.170  23.822  0.00  0.00    -0.304 NA
ATOM      4  H   LYS A   1       7.553  -1.002  24.182  0.00  0.00    +0.123 HD
BRANCH   3   6
ATOM      5  CB  LYS A   1       9.854   0.323  22.320  0.00  0.00    +0.036 C 
ATOM      6  CA  LYS A   1       9.134   0.173  23.655  0.00  0.00    +0.160 C 
BRANCH   6   7
ATOM      7  C   LYS A   1      10.166   0.346  24.780  0.00  0.00    +0.322 C 
ATOM      8  OXT LYS A   1      11.310   0.743  24.623  0.00  0.00    -0.249 OA
BRANCH   7   9
ATOM      9  O   LYS A   1       9.658  -0.013  25.988  0.00  0.00    -0.480 OA
ATOM     10  H   LYS A   1       9.708   0.783  26.570  0.00  0.00    +0.295 HD
ENDBRANCH   7   9
ENDBRANCH   6   7
ENDBRANCH   3   6
ENDBRANCH   2   3
ENDBRANCH   1   2
BRANCH   1  11
ATOM     11  CG  LYS A   1       7.735  -4.370  22.656  0.00  0.00    +0.003 C 
BRANCH  11  12
ATOM     12  CB  LYS A   1       7.655  -4.959  24.073  0.00  0.00    +0.030 C 
BRANCH  12  13
ATOM     13  CA  LYS A   1       8.884  -4.655  24.943  0.00  0.00    +0.161 C 
BRANCH  13  14
ATOM     14  N   LYS A   1       9.722  -5.873  25.126  0.00  0.00    -0.318 NA
ATOM     15  H1  LYS A   1      10.223  -5.786  26.012  0.00  0.00    +0.119 HD
ATOM     16  H2  LYS A   1       9.088  -6.668  25.285  0.00  0.00    +0.119 HD
ENDBRANCH  13  14
BRANCH  13  17
ATOM     17  C   LYS A   1       8.450  -4.130  26.318  0.00  0.00    +0.322 C 
ATOM     18  OXT LYS A   1       8.072  -4.825  27.247  0.00  0.00    -0.249 OA
BRANCH  17  19
ATOM     19  O   LYS A   1       8.586  -2.780  26.392  0.00  0.00    -0.480 OA
ATOM     20  H   LYS A   1       8.813  -2.471  25.480  0.00  0.00    +0.295 HD
ENDBRANCH  17  19
ENDBRANCH  13  17
ENDBRANCH  12  13
ENDBRANCH  11  12
ENDBRANCH   1  11
TORSDOF 11
ENDMDL
