MODEL 1
REMARK VINA RESULT:      -4.6      0.000      0.000
REMARK  Name = 
REMARK  9 active torsions:
REMARK  status: ('A' for Active; 'I' for Inactive)
REMARK    1  A    between atoms: C_1  and  C_2
REMARK    2  A    between atoms: C_2  and  C_3
REMARK    3  A    between atoms: C_3  and  C_4
REMARK    4  A    between atoms: C_4  and  C_5
REMARK    5  A    between atoms: C_5  and  C_6
REMARK    6  A    between atoms: C_6  and  C_8
REMARK    7  A    between atoms: C_8  and  P_9
REMARK    8  A    between atoms: P_9  and  O_10
REMARK    9  A    between atoms: P_9  and  O_11
REMARK                            x       y       z     vdW  Elec       q    Type
REMARK                         _______ _______ _______ _____ _____    ______ ____
ROOT
ATOM      1  C   UNL     1       9.416  -2.512  24.498  0.00  0.00    +0.145 C 
ATOM      2  O   UNL     1      10.254  -3.056  23.783  0.00  0.00    -0.297 OA
ENDROOT
BRANCH   1   3
ATOM      3  C   UNL     1       8.960  -1.076  24.263  0.00  0.00    +0.075 C 
BRANCH   3   4
ATOM      4  C   UNL     1       9.771  -0.086  25.093  0.00  0.00    +0.007 C 
BRANCH   4   5
ATOM      5  C   UNL     1      10.855   0.611  24.269  0.00  0.00    +0.000 C 
BRANCH   5   7
ATOM      6  C   UNL     1      10.085   1.766  22.155  0.00  0.00    +0.004 C 
ATOM      7  C   UNL     1      10.306   1.899  23.652  0.00  0.00    -0.003 C 
ENDBRANCH   5   7
ENDBRANCH   4   5
ENDBRANCH   3   4
ENDBRANCH   1   3
BRANCH   1   8
ATOM      8  C   UNL     1       8.795  -3.253  25.646  0.00  0.00    +0.201 C 
BRANCH   8   9
ATOM      9  P   UNL     1       8.818  -4.998  25.406  0.00  0.00    +0.335 P 
ATOM     10  O   UNL     1       7.992  -5.884  26.273  0.00  0.00    -0.258 OA
BRANCH   9  11
ATOM     11  O   UNL     1      10.362  -5.419  25.446  0.00  0.00    -0.324 OA
ATOM     12  H   UNL     1      10.902  -4.888  24.832  0.00  0.00    +0.220 HD
ENDBRANCH   9  11
BRANCH   9  13
ATOM     13  O   UNL     1       8.501  -5.220  23.847  0.00  0.00    -0.324 OA
ATOM     14  H   UNL     1       7.801  -5.876  23.675  0.00  0.00    +0.220 HD
ENDBRANCH   9  13
ENDBRANCH   8   9
ENDBRANCH   1   8
TORSDOF 8
ENDMDL
MODEL 2
REMARK VINA RESULT:      -4.5      1.429      1.835
REMARK  Name = 
REMARK  9 active torsions:
REMARK  status: ('A' for Active; 'I' for Inactive)
REMARK    1  A    between atoms: C_1  and  C_2
REMARK    2  A    between atoms: C_2  and  C_3
REMARK    3  A    between atoms: C_3  and  C_4
REMARK    4  A    between atoms: C_4  and  C_5
REMARK    5  A    between atoms: C_5  and  C_6
REMARK    6  A    between atoms: C_6  and  C_8
REMARK    7  A    between atoms: C_8  and  P_9
REMARK    8  A    between atoms: P_9  and  O_10
REMARK    9  A    between atoms: P_9  and  O_11
REMARK                            x       y       z     vdW  Elec       q    Type
REMARK                         _______ _______ _______ _____ _____    ______ ____
ROOT
ATOM      1  C   UNL     1       8.914  -3.255  24.077  0.00  0.00    +0.145 C 
ATOM      2  O   UNL     1      10.117  -3.491  24.157  0.00  0.00    -0.297 OA
ENDROOT
BRANCH   1   3
ATOM      3  C   UNL     1       8.381  -1.915  23.583  0.00  0.00    +0.075 C 
BRANCH   3   4
ATOM      4  C   UNL     1       9.514  -0.968  23.197  0.00  0.00    +0.007 C 
BRANCH   4   5
ATOM      5  C   UNL     1       9.552  -0.693  21.693  0.00  0.00    +0.000 C 
BRANCH   5   7
ATOM      6  C   UNL     1      10.038   1.752  22.116  0.00  0.00    +0.004 C 
ATOM      7  C   UNL     1       9.140   0.752  21.408  0.00  0.00    -0.003 C 
ENDBRANCH   5   7
ENDBRANCH   4   5
ENDBRANCH   3   4
ENDBRANCH   1   3
BRANCH   1   8
ATOM      8  C   UNL     1       7.904  -4.296  24.468  0.00  0.00    +0.201 C 
BRANCH   8   9
ATOM      9  P   UNL     1       8.348  -5.134  25.951  0.00  0.00    +0.335 P 
ATOM     10  O   UNL     1       7.341  -5.957  26.677  0.00  0.00    -0.258 OA
BRANCH   9  11
ATOM     11  O   UNL     1       8.982  -4.016  26.906  0.00  0.00    -0.324 OA
ATOM     12  H   UNL     1       9.670  -4.383  27.492  0.00  0.00    +0.220 HD
ENDBRANCH   9  11
BRANCH   9  13
ATOM     13  O   UNL     1       9.664  -5.981  25.589  0.00  0.00    -0.324 OA
ATOM     14  H   UNL     1       9.515  -6.943  25.543  0.00  0.00    +0.220 HD
ENDBRANCH   9  13
ENDBRANCH   8   9
ENDBRANCH   1   8
TORSDOF 8
ENDMDL
MODEL 3
REMARK VINA RESULT:      -4.3      5.021      5.971
REMARK  Name = 
REMARK  9 active torsions:
REMARK  status: ('A' for Active; 'I' for Inactive)
REMARK    1  A    between atoms: C_1  and  C_2
REMARK    2  A    between atoms: C_2  and  C_3
REMARK    3  A    between atoms: C_3  and  C_4
REMARK    4  A    between atoms: C_4  and  C_5
REMARK    5  A    between atoms: C_5  and  C_6
REMARK    6  A    between atoms: C_6  and  C_8
REMARK    7  A    between atoms: C_8  and  P_9
REMARK    8  A    between atoms: P_9  and  O_10
REMARK    9  A    between atoms: P_9  and  O_11
REMARK                            x       y       z     vdW  Elec       q    Type
REMARK                         _______ _______ _______ _____ _____    ______ ____
ROOT
ATOM      1  C   UNL     1      10.437   2.123  23.903  0.00  0.00    +0.145 C 
ATOM      2  O   UNL     1      11.169   3.031  23.519  0.00  0.00    -0.297 OA
ENDROOT
BRANCH   1   3
ATOM      3  C   UNL     1      10.985   0.770  24.341  0.00  0.00    +0.075 C 
BRANCH   3   4
ATOM      4  C   UNL     1       9.920  -0.069  25.041  0.00  0.00    +0.007 C 
BRANCH   4   5
ATOM      5  C   UNL     1       9.624  -1.370  24.294  0.00  0.00    +0.000 C 
BRANCH   5   7
ATOM      6  C   UNL     1       9.230  -1.458  21.798  0.00  0.00    +0.004 C 
ATOM      7  C   UNL     1      10.263  -1.342  22.905  0.00  0.00    -0.003 C 
ENDBRANCH   5   7
ENDBRANCH   4   5
ENDBRANCH   3   4
ENDBRANCH   1   3
BRANCH   1   8
ATOM      8  C   UNL     1       8.948   2.315  23.960  0.00  0.00    +0.201 C 
BRANCH   8   9
ATOM      9  P   UNL     1       8.217   2.354  22.359  0.00  0.00    +0.335 P 
ATOM     10  O   UNL     1       7.036   1.500  22.053  0.00  0.00    -0.258 OA
BRANCH   9  11
ATOM     11  O   UNL     1       9.414   2.081  21.331  0.00  0.00    -0.324 OA
ATOM     12  H   UNL     1       9.656   2.882  20.831  0.00  0.00    +0.220 HD
ENDBRANCH   9  11
BRANCH   9  13
ATOM     13  O   UNL     1       7.928   3.905  22.058  0.00  0.00    -0.324 OA
ATOM     14  H   UNL     1       7.139   4.061  21.507  0.00  0.00    +0.220 HD
ENDBRANCH   9  13
ENDBRANCH   8   9
ENDBRANCH   1   8
TORSDOF 8
ENDMDL
MODEL 4
REMARK VINA RESULT:      -4.1      3.710      5.832
REMARK  Name = 
REMARK  9 active torsions:
REMARK  status: ('A' for Active; 'I' for Inactive)
REMARK    1  A    between atoms: C_1  and  C_2
REMARK    2  A    between atoms: C_2  and  C_3
REMARK    3  A    between atoms: C_3  and  C_4
REMARK    4  A    between atoms: C_4  and  C_5
REMARK    5  A    between atoms: C_5  and  C_6
REMARK    6  A    between atoms: C_6  and  C_8
REMARK    7  A    between atoms: C_8  and  P_9
REMARK    8  A    between atoms: P_9  and  O_10
REMARK    9  A    between atoms: P_9  and  O_11
REMARK                            x       y       z     vdW  Elec       q    Type
REMARK                         _______ _______ _______ _____ _____    ______ ____
ROOT
ATOM      1  C   UNL     1      10.070  -1.507  23.414  0.00  0.00    +0.145 C 
ATOM      2  O   UNL     1      10.728  -2.187  22.629  0.00  0.00    -0.297 OA
ENDROOT
BRANCH   1   3
ATOM      3  C   UNL     1       9.161  -2.135  24.463  0.00  0.00    +0.075 C 
BRANCH   3   4
ATOM      4  C   UNL     1       8.920  -3.616  24.186  0.00  0.00    +0.007 C 
BRANCH   4   5
ATOM      5  C   UNL     1       7.636  -3.856  23.393  0.00  0.00    +0.000 C 
BRANCH   5   7
ATOM      6  C   UNL     1       7.150  -5.645  21.674  0.00  0.00    +0.004 C 
ATOM      7  C   UNL     1       7.442  -5.351  23.135  0.00  0.00    -0.003 C 
ENDBRANCH   5   7
ENDBRANCH   4   5
ENDBRANCH   3   4
ENDBRANCH   1   3
BRANCH   1   8
ATOM      8  C   UNL     1      10.142  -0.008  23.370  0.00  0.00    +0.201 C 
BRANCH   8   9
ATOM      9  P   UNL     1       9.212   0.667  22.036  0.00  0.00    +0.335 P 
ATOM     10  O   UNL     1       7.779   1.024  22.226  0.00  0.00    -0.258 OA
BRANCH   9  11
ATOM     11  O   UNL     1       9.400  -0.356  20.818  0.00  0.00    -0.324 OA
ATOM     12  H   UNL     1       8.602  -0.408  20.258  0.00  0.00    +0.220 HD
ENDBRANCH   9  11
BRANCH   9  13
ATOM     13  O   UNL     1      10.074   1.912  21.500  0.00  0.00    -0.324 OA
ATOM     14  H   UNL     1      11.020   1.866  21.728  0.00  0.00    +0.220 HD
ENDBRANCH   9  13
ENDBRANCH   8   9
ENDBRANCH   1   8
TORSDOF 8
ENDMDL
MODEL 5
REMARK VINA RESULT:      -4.1      2.730      3.521
REMARK  Name = 
REMARK  9 active torsions:
REMARK  status: ('A' for Active; 'I' for Inactive)
REMARK    1  A    between atoms: C_1  and  C_2
REMARK    2  A    between atoms: C_2  and  C_3
REMARK    3  A    between atoms: C_3  and  C_4
REMARK    4  A    between atoms: C_4  and  C_5
REMARK    5  A    between atoms: C_5  and  C_6
REMARK    6  A    between atoms: C_6  and  C_8
REMARK    7  A    between atoms: C_8  and  P_9
REMARK    8  A    between atoms: P_9  and  O_10
REMARK    9  A    between atoms: P_9  and  O_11
REMARK                            x       y       z     vdW  Elec       q    Type
REMARK                         _______ _______ _______ _____ _____    ______ ____
ROOT
ATOM      1  C   UNL     1       7.981  -3.940  23.731  0.00  0.00    +0.145 C 
ATOM      2  O   UNL     1       8.896  -4.706  24.021  0.00  0.00    -0.297 OA
ENDROOT
BRANCH   1   3
ATOM      3  C   UNL     1       8.224  -2.469  23.415  0.00  0.00    +0.075 C 
BRANCH   3   4
ATOM      4  C   UNL     1       9.664  -2.061  23.712  0.00  0.00    +0.007 C 
BRANCH   4   5
ATOM      5  C   UNL     1      10.378  -1.513  22.476  0.00  0.00    +0.000 C 
BRANCH   5   7
ATOM      6  C   UNL     1       9.719   0.833  21.801  0.00  0.00    +0.004 C 
ATOM      7  C   UNL     1       9.423  -0.650  21.650  0.00  0.00    -0.003 C 
ENDBRANCH   5   7
ENDBRANCH   4   5
ENDBRANCH   3   4
ENDBRANCH   1   3
BRANCH   1   8
ATOM      8  C   UNL     1       6.563  -4.432  23.674  0.00  0.00    +0.201 C 
BRANCH   8   9
ATOM      9  P   UNL     1       6.129  -5.038  22.079  0.00  0.00    +0.335 P 
ATOM     10  O   UNL     1       5.681  -4.095  21.016  0.00  0.00    -0.258 OA
BRANCH   9  11
ATOM     11  O   UNL     1       5.043  -6.186  22.333  0.00  0.00    -0.324 OA
ATOM     12  H   UNL     1       4.497  -6.005  23.121  0.00  0.00    +0.220 HD
ENDBRANCH   9  11
BRANCH   9  13
ATOM     13  O   UNL     1       7.380  -5.926  21.603  0.00  0.00    -0.324 OA
ATOM     14  H   UNL     1       7.632  -5.788  20.671  0.00  0.00    +0.220 HD
ENDBRANCH   9  13
ENDBRANCH   8   9
ENDBRANCH   1   8
TORSDOF 8
ENDMDL
MODEL 6
REMARK VINA RESULT:      -4.1      1.592      2.183
REMARK  Name = 
REMARK  9 active torsions:
REMARK  status: ('A' for Active; 'I' for Inactive)
REMARK    1  A    between atoms: C_1  and  C_2
REMARK    2  A    between atoms: C_2  and  C_3
REMARK    3  A    between atoms: C_3  and  C_4
REMARK    4  A    between atoms: C_4  and  C_5
REMARK    5  A    between atoms: C_5  and  C_6
REMARK    6  A    between atoms: C_6  and  C_8
REMARK    7  A    between atoms: C_8  and  P_9
REMARK    8  A    between atoms: P_9  and  O_10
REMARK    9  A    between atoms: P_9  and  O_11
REMARK                            x       y       z     vdW  Elec       q    Type
REMARK                         _______ _______ _______ _____ _____    ______ ____
ROOT
ATOM      1  C   UNL     1       8.218  -3.253  23.128  0.00  0.00    +0.145 C 
ATOM      2  O   UNL     1       7.753  -4.328  22.756  0.00  0.00    -0.297 OA
ENDROOT
BRANCH   1   3
ATOM      3  C   UNL     1       8.108  -1.988  22.285  0.00  0.00    +0.075 C 
BRANCH   3   4
ATOM      4  C   UNL     1       9.473  -1.344  22.059  0.00  0.00    +0.007 C 
BRANCH   4   5
ATOM      5  C   UNL     1       9.367  -0.006  21.326  0.00  0.00    +0.000 C 
BRANCH   5   7
ATOM      6  C   UNL     1      10.475   0.605  23.515  0.00  0.00    +0.004 C 
ATOM      7  C   UNL     1       9.976   1.113  22.174  0.00  0.00    -0.003 C 
ENDBRANCH   5   7
ENDBRANCH   4   5
ENDBRANCH   3   4
ENDBRANCH   1   3
BRANCH   1   8
ATOM      8  C   UNL     1       8.920  -3.143  24.450  0.00  0.00    +0.201 C 
BRANCH   8   9
ATOM      9  P   UNL     1       8.833  -4.635  25.380  0.00  0.00    +0.335 P 
ATOM     10  O   UNL     1       9.356  -4.682  26.774  0.00  0.00    -0.258 OA
BRANCH   9  11
ATOM     11  O   UNL     1       9.518  -5.756  24.465  0.00  0.00    -0.324 OA
ATOM     12  H   UNL     1       9.840  -5.391  23.619  0.00  0.00    +0.220 HD
ENDBRANCH   9  11
BRANCH   9  13
ATOM     13  O   UNL     1       7.297  -5.100  25.302  0.00  0.00    -0.324 OA
ATOM     14  H   UNL     1       7.105  -5.708  24.564  0.00  0.00    +0.220 HD
ENDBRANCH   9  13
ENDBRANCH   8   9
ENDBRANCH   1   8
TORSDOF 8
ENDMDL
MODEL 7
REMARK VINA RESULT:      -4.0      2.740      4.005
REMARK  Name = 
REMARK  9 active torsions:
REMARK  status: ('A' for Active; 'I' for Inactive)
REMARK    1  A    between atoms: C_1  and  C_2
REMARK    2  A    between atoms: C_2  and  C_3
REMARK    3  A    between atoms: C_3  and  C_4
REMARK    4  A    between atoms: C_4  and  C_5
REMARK    5  A    between atoms: C_5  and  C_6
REMARK    6  A    between atoms: C_6  and  C_8
REMARK    7  A    between atoms: C_8  and  P_9
REMARK    8  A    between atoms: P_9  and  O_10
REMARK    9  A    between atoms: P_9  and  O_11
REMARK                            x       y       z     vdW  Elec       q    Type
REMARK                         _______ _______ _______ _____ _____    ______ ____
ROOT
ATOM      1  C   UNL     1       9.602   0.922  22.753  0.00  0.00    +0.145 C 
ATOM      2  O   UNL     1       9.717   1.114  21.545  0.00  0.00    -0.297 OA
ENDROOT
BRANCH   1   3
ATOM      3  C   UNL     1      10.308   1.796  23.783  0.00  0.00    +0.075 C 
BRANCH   3   4
ATOM      4  C   UNL     1       9.476   3.023  24.145  0.00  0.00    +0.007 C 
BRANCH   4   5
ATOM      5  C   UNL     1      10.190   4.330  23.799  0.00  0.00    +0.000 C 
BRANCH   5   7
ATOM      6  C   UNL     1      12.490   5.298  23.388  0.00  0.00    +0.004 C 
ATOM      7  C   UNL     1      11.627   4.048  23.357  0.00  0.00    -0.003 C 
ENDBRANCH   5   7
ENDBRANCH   4   5
ENDBRANCH   3   4
ENDBRANCH   1   3
BRANCH   1   8
ATOM      8  C   UNL     1       8.744  -0.197  23.270  0.00  0.00    +0.201 C 
BRANCH   8   9
ATOM      9  P   UNL     1       9.384  -1.781  22.844  0.00  0.00    +0.335 P 
ATOM     10  O   UNL     1      10.090  -2.603  23.866  0.00  0.00    -0.258 OA
BRANCH   9  11
ATOM     11  O   UNL     1      10.302  -1.544  21.554  0.00  0.00    -0.324 OA
ATOM     12  H   UNL     1      10.559  -0.608  21.455  0.00  0.00    +0.220 HD
ENDBRANCH   9  11
BRANCH   9  13
ATOM     13  O   UNL     1       8.156  -2.576  22.181  0.00  0.00    -0.324 OA
ATOM     14  H   UNL     1       7.288  -2.360  22.570  0.00  0.00    +0.220 HD
ENDBRANCH   9  13
ENDBRANCH   8   9
ENDBRANCH   1   8
TORSDOF 8
ENDMDL
MODEL 8
REMARK VINA RESULT:      -3.9      3.731      6.012
REMARK  Name = 
REMARK  9 active torsions:
REMARK  status: ('A' for Active; 'I' for Inactive)
REMARK    1  A    between atoms: C_1  and  C_2
REMARK    2  A    between atoms: C_2  and  C_3
REMARK    3  A    between atoms: C_3  and  C_4
REMARK    4  A    between atoms: C_4  and  C_5
REMARK    5  A    between atoms: C_5  and  C_6
REMARK    6  A    between atoms: C_6  and  C_8
REMARK    7  A    between atoms: C_8  and  P_9
REMARK    8  A    between atoms: P_9  and  O_10
REMARK    9  A    between atoms: P_9  and  O_11
REMARK                            x       y       z     vdW  Elec       q    Type
REMARK                         _______ _______ _______ _____ _____    ______ ____
ROOT
ATOM      1  C   UNL     1       8.452  -2.240  23.710  0.00  0.00    +0.145 C 
ATOM      2  O   UNL     1       9.551  -2.604  24.122  0.00  0.00    -0.297 OA
ENDROOT
BRANCH   1   3
ATOM      3  C   UNL     1       7.248  -3.173  23.678  0.00  0.00    +0.075 C 
BRANCH   3   4
ATOM      4  C   UNL     1       7.658  -4.610  23.370  0.00  0.00    +0.007 C 
BRANCH   4   5
ATOM      5  C   UNL     1       6.467  -5.569  23.387  0.00  0.00    +0.000 C 
BRANCH   5   7
ATOM      6  C   UNL     1       6.236  -5.584  20.869  0.00  0.00    +0.004 C 
ATOM      7  C   UNL     1       6.455  -6.422  22.117  0.00  0.00    -0.003 C 
ENDBRANCH   5   7
ENDBRANCH   4   5
ENDBRANCH   3   4
ENDBRANCH   1   3
BRANCH   1   8
ATOM      8  C   UNL     1       8.250  -0.836  23.215  0.00  0.00    +0.201 C 
BRANCH   8   9
ATOM      9  P   UNL     1       9.633  -0.245  22.299  0.00  0.00    +0.335 P 
ATOM     10  O   UNL     1       9.484   0.925  21.388  0.00  0.00    -0.258 OA
BRANCH   9  11
ATOM     11  O   UNL     1      10.212  -1.518  21.520  0.00  0.00    -0.324 OA
ATOM     12  H   UNL     1      10.055  -1.461  20.559  0.00  0.00    +0.220 HD
ENDBRANCH   9  11
BRANCH   9  13
ATOM     13  O   UNL     1      10.798  -0.016  23.381  0.00  0.00    -0.324 OA
ATOM     14  H   UNL     1      10.815  -0.684  24.091  0.00  0.00    +0.220 HD
ENDBRANCH   9  13
ENDBRANCH   8   9
ENDBRANCH   1   8
TORSDOF 8
ENDMDL
MODEL 9
REMARK VINA RESULT:      -3.9      1.795      2.281
REMARK  Name = 
REMARK  9 active torsions:
REMARK  status: ('A' for Active; 'I' for Inactive)
REMARK    1  A    between atoms: C_1  and  C_2
REMARK    2  A    between atoms: C_2  and  C_3
REMARK    3  A    between atoms: C_3  and  C_4
REMARK    4  A    between atoms: C_4  and  C_5
REMARK    5  A    between atoms: C_5  and  C_6
REMARK    6  A    between atoms: C_6  and  C_8
REMARK    7  A    between atoms: C_8  and  P_9
REMARK    8  A    between atoms: P_9  and  O_10
REMARK    9  A    between atoms: P_9  and  O_11
REMARK                            x       y       z     vdW  Elec       q    Type
REMARK                         _______ _______ _______ _____ _____    ______ ____
ROOT
ATOM      1  C   UNL     1       9.426  -2.413  24.113  0.00  0.00    +0.145 C 
ATOM      2  O   UNL     1      10.116  -3.429  24.085  0.00  0.00    -0.297 OA
ENDROOT
BRANCH   1   3
ATOM      3  C   UNL     1       9.909  -1.089  23.534  0.00  0.00    +0.075 C 
BRANCH   3   4
ATOM      4  C   UNL     1      10.048  -1.156  22.016  0.00  0.00    +0.007 C 
BRANCH   4   5
ATOM      5  C   UNL     1       9.376   0.028  21.320  0.00  0.00    +0.000 C 
BRANCH   5   7
ATOM      6  C   UNL     1       8.658   2.302  22.159  0.00  0.00    +0.004 C 
ATOM      7  C   UNL     1       9.819   1.343  21.962  0.00  0.00    -0.003 C 
ENDBRANCH   5   7
ENDBRANCH   4   5
ENDBRANCH   3   4
ENDBRANCH   1   3
BRANCH   1   8
ATOM      8  C   UNL     1       8.056  -2.439  24.727  0.00  0.00    +0.201 C 
BRANCH   8   9
ATOM      9  P   UNL     1       7.098  -3.806  24.168  0.00  0.00    +0.335 P 
ATOM     10  O   UNL     1       5.614  -3.784  24.294  0.00  0.00    -0.258 OA
BRANCH   9  11
ATOM     11  O   UNL     1       7.723  -5.094  24.888  0.00  0.00    -0.324 OA
ATOM     12  H   UNL     1       8.136  -5.705  24.249  0.00  0.00    +0.220 HD
ENDBRANCH   9  11
BRANCH   9  13
ATOM     13  O   UNL     1       7.567  -4.068  22.655  0.00  0.00    -0.324 OA
ATOM     14  H   UNL     1       7.204  -3.431  22.012  0.00  0.00    +0.220 HD
ENDBRANCH   9  13
ENDBRANCH   8   9
ENDBRANCH   1   8
TORSDOF 8
ENDMDL
