MODEL 1
REMARK VINA RESULT:      -3.9      0.000      0.000
REMARK  Name = 
REMARK  11 active torsions:
REMARK  status: ('A' for Active; 'I' for Inactive)
REMARK    1  A    between atoms: O_1  and  C_2
REMARK    2  A    between atoms: C_2  and  C_3
REMARK    3  A    between atoms: C_3  and  O_5
REMARK    4  A    between atoms: C_3  and  C_6
REMARK    5  A    between atoms: C_6  and  O_8
REMARK    6  A    between atoms: C_6  and  C_9
REMARK    7  A    between atoms: C_9  and  O_11
REMARK    8  A    between atoms: C_9  and  C_12
REMARK    9  A    between atoms: C_12  and  O_14
REMARK   10  A    between atoms: C_12  and  C_15
REMARK   11  A    between atoms: C_15  and  O_16
REMARK                            x       y       z     vdW  Elec       q    Type
REMARK                         _______ _______ _______ _____ _____    ______ ____
ROOT
ATOM      1  C   UNL     1       9.949   0.458  23.035  0.00  0.00    +0.176 C 
ENDROOT
BRANCH   1   2
ATOM      2  O   UNL     1       9.025   0.497  24.149  0.00  0.00    -0.386 OA
ATOM      3  H   UNL     1       8.275  -0.088  23.933  0.00  0.00    +0.210 HD
ENDBRANCH   1   2
BRANCH   1   4
ATOM      4  C   UNL     1       9.446   1.363  21.900  0.00  0.00    +0.171 C 
BRANCH   4   5
ATOM      5  O   UNL     1      10.410   2.365  21.573  0.00  0.00    -0.387 OA
ATOM      6  H   UNL     1      10.752   2.671  22.436  0.00  0.00    +0.210 HD
ENDBRANCH   4   5
BRANCH   4   7
ATOM      7  C   UNL     1       8.149   2.087  22.286  0.00  0.00    +0.189 C 
BRANCH   7   8
ATOM      8  O   UNL     1       7.079   1.138  22.200  0.00  0.00    -0.392 OA
ATOM      9  H   UNL     1       7.476   0.258  22.325  0.00  0.00    +0.210 HD
ENDBRANCH   7   8
ENDBRANCH   4   7
ENDBRANCH   1   4
BRANCH   1  10
ATOM     10  C   UNL     1      10.159  -1.027  22.676  0.00  0.00    +0.176 C 
BRANCH  10  11
ATOM     11  O   UNL     1       9.785  -1.171  21.279  0.00  0.00    -0.386 OA
ATOM     12  H   UNL     1       9.369  -0.317  21.033  0.00  0.00    +0.210 HD
ENDBRANCH  10  11
BRANCH  10  13
ATOM     13  C   UNL     1       9.380  -2.062  23.522  0.00  0.00    +0.171 C 
BRANCH  13  14
ATOM     14  O   UNL     1      10.267  -3.148  23.864  0.00  0.00    -0.387 OA
ATOM     15  H   UNL     1       9.892  -3.582  24.655  0.00  0.00    +0.210 HD
ENDBRANCH  13  14
BRANCH  13  16
ATOM     16  C   UNL     1       8.140  -2.624  22.807  0.00  0.00    +0.189 C 
BRANCH  16  17
ATOM     17  O   UNL     1       7.127  -1.625  22.680  0.00  0.00    -0.392 OA
ATOM     18  H   UNL     1       7.313  -1.136  21.848  0.00  0.00    +0.210 HD
ENDBRANCH  16  17
ENDBRANCH  13  16
ENDBRANCH  10  13
ENDBRANCH   1  10
TORSDOF 11
ENDMDL
MODEL 2
REMARK VINA RESULT:      -3.9      0.327      3.971
REMARK  Name = 
REMARK  11 active torsions:
REMARK  status: ('A' for Active; 'I' for Inactive)
REMARK    1  A    between atoms: O_1  and  C_2
REMARK    2  A    between atoms: C_2  and  C_3
REMARK    3  A    between atoms: C_3  and  O_5
REMARK    4  A    between atoms: C_3  and  C_6
REMARK    5  A    between atoms: C_6  and  O_8
REMARK    6  A    between atoms: C_6  and  C_9
REMARK    7  A    between atoms: C_9  and  O_11
REMARK    8  A    between atoms: C_9  and  C_12
REMARK    9  A    between atoms: C_12  and  O_14
REMARK   10  A    between atoms: C_12  and  C_15
REMARK   11  A    between atoms: C_15  and  O_16
REMARK                            x       y       z     vdW  Elec       q    Type
REMARK                         _______ _______ _______ _____ _____    ______ ____
ROOT
ATOM      1  C   UNL     1      10.007  -1.085  22.675  0.00  0.00    +0.176 C 
ENDROOT
BRANCH   1   2
ATOM      2  O   UNL     1       9.720  -1.287  21.271  0.00  0.00    -0.386 OA
ATOM      3  H   UNL     1       9.134  -0.563  20.981  0.00  0.00    +0.210 HD
ENDBRANCH   1   2
BRANCH   1   4
ATOM      4  C   UNL     1       9.289  -2.148  23.519  0.00  0.00    +0.171 C 
BRANCH   4   5
ATOM      5  O   UNL     1      10.188  -3.182  23.921  0.00  0.00    -0.387 OA
ATOM      6  H   UNL     1      10.164  -3.831  23.190  0.00  0.00    +0.210 HD
ENDBRANCH   4   5
BRANCH   4   7
ATOM      7  C   UNL     1       8.148  -2.815  22.738  0.00  0.00    +0.189 C 
BRANCH   7   8
ATOM      8  O   UNL     1       7.075  -1.869  22.643  0.00  0.00    -0.392 OA
ATOM      9  H   UNL     1       6.855  -1.791  21.698  0.00  0.00    +0.210 HD
ENDBRANCH   7   8
ENDBRANCH   4   7
ENDBRANCH   1   4
BRANCH   1  10
ATOM     10  C   UNL     1       9.664   0.384  22.998  0.00  0.00    +0.176 C 
BRANCH  10  11
ATOM     11  O   UNL     1       8.759   0.356  24.134  0.00  0.00    -0.386 OA
ATOM     12  H   UNL     1       8.309  -0.515  24.086  0.00  0.00    +0.210 HD
ENDBRANCH  10  11
BRANCH  10  13
ATOM     13  C   UNL     1       9.026   1.214  21.858  0.00  0.00    +0.171 C 
BRANCH  13  14
ATOM     14  O   UNL     1       9.965   2.226  21.437  0.00  0.00    -0.387 OA
ATOM     15  H   UNL     1       9.592   3.088  21.704  0.00  0.00    +0.210 HD
ENDBRANCH  13  14
BRANCH  13  16
ATOM     16  C   UNL     1       7.702   1.883  22.260  0.00  0.00    +0.189 C 
BRANCH  16  17
ATOM     17  O   UNL     1       6.650   0.922  22.353  0.00  0.00    -0.392 OA
ATOM     18  H   UNL     1       6.801   0.266  21.636  0.00  0.00    +0.210 HD
ENDBRANCH  16  17
ENDBRANCH  13  16
ENDBRANCH  10  13
ENDBRANCH   1  10
TORSDOF 11
ENDMDL
MODEL 3
REMARK VINA RESULT:      -3.9      2.124      5.217
REMARK  Name = 
REMARK  11 active torsions:
REMARK  status: ('A' for Active; 'I' for Inactive)
REMARK    1  A    between atoms: O_1  and  C_2
REMARK    2  A    between atoms: C_2  and  C_3
REMARK    3  A    between atoms: C_3  and  O_5
REMARK    4  A    between atoms: C_3  and  C_6
REMARK    5  A    between atoms: C_6  and  O_8
REMARK    6  A    between atoms: C_6  and  C_9
REMARK    7  A    between atoms: C_9  and  O_11
REMARK    8  A    between atoms: C_9  and  C_12
REMARK    9  A    between atoms: C_12  and  O_14
REMARK   10  A    between atoms: C_12  and  C_15
REMARK   11  A    between atoms: C_15  and  O_16
REMARK                            x       y       z     vdW  Elec       q    Type
REMARK                         _______ _______ _______ _____ _____    ______ ____
ROOT
ATOM      1  C   UNL     1       8.877  -3.142  24.317  0.00  0.00    +0.176 C 
ENDROOT
BRANCH   1   2
ATOM      2  O   UNL     1      10.258  -3.048  23.893  0.00  0.00    -0.386 OA
ATOM      3  H   UNL     1      10.649  -2.267  24.326  0.00  0.00    +0.210 HD
ENDBRANCH   1   2
BRANCH   1   4
ATOM      4  C   UNL     1       8.425  -4.611  24.323  0.00  0.00    +0.171 C 
BRANCH   4   5
ATOM      5  O   UNL     1       7.001  -4.712  24.338  0.00  0.00    -0.387 OA
ATOM      6  H   UNL     1       6.690  -3.813  24.563  0.00  0.00    +0.210 HD
ENDBRANCH   4   5
BRANCH   4   7
ATOM      7  C   UNL     1       8.949  -5.359  25.556  0.00  0.00    +0.189 C 
BRANCH   7   8
ATOM      8  O   UNL     1      10.343  -5.618  25.349  0.00  0.00    -0.392 OA
ATOM      9  H   UNL     1      10.812  -5.257  26.122  0.00  0.00    +0.210 HD
ENDBRANCH   7   8
ENDBRANCH   4   7
ENDBRANCH   1   4
BRANCH   1  10
ATOM     10  C   UNL     1       8.065  -2.186  23.420  0.00  0.00    +0.176 C 
BRANCH  10  11
ATOM     11  O   UNL     1       7.856  -2.879  22.161  0.00  0.00    -0.386 OA
ATOM     12  H   UNL     1       7.987  -2.200  21.466  0.00  0.00    +0.210 HD
ENDBRANCH  10  11
BRANCH  10  13
ATOM     13  C   UNL     1       8.689  -0.798  23.142  0.00  0.00    +0.171 C 
BRANCH  13  14
ATOM     14  O   UNL     1       7.706   0.221  23.419  0.00  0.00    -0.387 OA
ATOM     15  H   UNL     1       7.626   0.282  24.390  0.00  0.00    +0.210 HD
ENDBRANCH  13  14
BRANCH  13  16
ATOM     16  C   UNL     1       9.196  -0.637  21.700  0.00  0.00    +0.189 C 
BRANCH  16  17
ATOM     17  O   UNL     1      10.276  -1.533  21.434  0.00  0.00    -0.392 OA
ATOM     18  H   UNL     1      10.165  -2.299  22.041  0.00  0.00    +0.210 HD
ENDBRANCH  16  17
ENDBRANCH  13  16
ENDBRANCH  10  13
ENDBRANCH   1  10
TORSDOF 11
ENDMDL
MODEL 4
REMARK VINA RESULT:      -3.9      1.573      4.271
REMARK  Name = 
REMARK  11 active torsions:
REMARK  status: ('A' for Active; 'I' for Inactive)
REMARK    1  A    between atoms: O_1  and  C_2
REMARK    2  A    between atoms: C_2  and  C_3
REMARK    3  A    between atoms: C_3  and  O_5
REMARK    4  A    between atoms: C_3  and  C_6
REMARK    5  A    between atoms: C_6  and  O_8
REMARK    6  A    between atoms: C_6  and  C_9
REMARK    7  A    between atoms: C_9  and  O_11
REMARK    8  A    between atoms: C_9  and  C_12
REMARK    9  A    between atoms: C_12  and  O_14
REMARK   10  A    between atoms: C_12  and  C_15
REMARK   11  A    between atoms: C_15  and  O_16
REMARK                            x       y       z     vdW  Elec       q    Type
REMARK                         _______ _______ _______ _____ _____    ______ ____
ROOT
ATOM      1  C   UNL     1       8.748   0.110  22.444  0.00  0.00    +0.176 C 
ENDROOT
BRANCH   1   2
ATOM      2  O   UNL     1       7.702  -0.211  23.392  0.00  0.00    -0.386 OA
ATOM      3  H   UNL     1       6.892   0.255  23.109  0.00  0.00    +0.210 HD
ENDBRANCH   1   2
BRANCH   1   4
ATOM      4  C   UNL     1       9.952  -0.821  22.652  0.00  0.00    +0.171 C 
BRANCH   4   5
ATOM      5  O   UNL     1      10.269  -1.529  21.453  0.00  0.00    -0.387 OA
ATOM      6  H   UNL     1      11.240  -1.636  21.477  0.00  0.00    +0.210 HD
ENDBRANCH   4   5
BRANCH   4   7
ATOM      7  C   UNL     1       9.677  -1.867  23.740  0.00  0.00    +0.189 C 
BRANCH   7   8
ATOM      8  O   UNL     1       9.683  -1.192  25.004  0.00  0.00    -0.392 OA
ATOM      9  H   UNL     1      10.446  -1.538  25.502  0.00  0.00    +0.210 HD
ENDBRANCH   7   8
ENDBRANCH   4   7
ENDBRANCH   1   4
BRANCH   1  10
ATOM     10  C   UNL     1       9.028   1.621  22.578  0.00  0.00    +0.176 C 
BRANCH  10  11
ATOM     11  O   UNL     1       9.619   2.044  21.320  0.00  0.00    -0.386 OA
ATOM     12  H   UNL     1       8.888   2.013  20.667  0.00  0.00    +0.210 HD
ENDBRANCH  10  11
BRANCH  10  13
ATOM     13  C   UNL     1       9.946   2.056  23.745  0.00  0.00    +0.171 C 
BRANCH  13  14
ATOM     14  O   UNL     1       9.311   1.709  24.993  0.00  0.00    -0.387 OA
ATOM     15  H   UNL     1       8.429   2.127  24.989  0.00  0.00    +0.210 HD
ENDBRANCH  13  14
BRANCH  13  16
ATOM     16  C   UNL     1      10.268   3.559  23.738  0.00  0.00    +0.189 C 
BRANCH  16  17
ATOM     17  O   UNL     1      11.351   3.847  22.853  0.00  0.00    -0.392 OA
ATOM     18  H   UNL     1      11.968   4.436  23.342  0.00  0.00    +0.210 HD
ENDBRANCH  16  17
ENDBRANCH  13  16
ENDBRANCH  10  13
ENDBRANCH   1  10
TORSDOF 11
ENDMDL
MODEL 5
REMARK VINA RESULT:      -3.9      2.632      5.510
REMARK  Name = 
REMARK  11 active torsions:
REMARK  status: ('A' for Active; 'I' for Inactive)
REMARK    1  A    between atoms: O_1  and  C_2
REMARK    2  A    between atoms: C_2  and  C_3
REMARK    3  A    between atoms: C_3  and  O_5
REMARK    4  A    between atoms: C_3  and  C_6
REMARK    5  A    between atoms: C_6  and  O_8
REMARK    6  A    between atoms: C_6  and  C_9
REMARK    7  A    between atoms: C_9  and  O_11
REMARK    8  A    between atoms: C_9  and  C_12
REMARK    9  A    between atoms: C_12  and  O_14
REMARK   10  A    between atoms: C_12  and  C_15
REMARK   11  A    between atoms: C_15  and  O_16
REMARK                            x       y       z     vdW  Elec       q    Type
REMARK                         _______ _______ _______ _____ _____    ______ ____
ROOT
ATOM      1  C   UNL     1       8.419  -4.394  24.067  0.00  0.00    +0.176 C 
ENDROOT
BRANCH   1   2
ATOM      2  O   UNL     1       7.104  -4.921  24.364  0.00  0.00    -0.386 OA
ATOM      3  H   UNL     1       6.465  -4.466  23.784  0.00  0.00    +0.210 HD
ENDBRANCH   1   2
BRANCH   1   4
ATOM      4  C   UNL     1       9.375  -4.670  25.238  0.00  0.00    +0.171 C 
BRANCH   4   5
ATOM      5  O   UNL     1       9.921  -5.987  25.158  0.00  0.00    -0.387 OA
ATOM      6  H   UNL     1      10.124  -6.228  26.083  0.00  0.00    +0.210 HD
ENDBRANCH   4   5
BRANCH   4   7
ATOM      7  C   UNL     1       8.660  -4.554  26.591  0.00  0.00    +0.189 C 
BRANCH   7   8
ATOM      8  O   UNL     1       8.165  -5.854  26.935  0.00  0.00    -0.392 OA
ATOM      9  H   UNL     1       7.979  -6.312  26.096  0.00  0.00    +0.210 HD
ENDBRANCH   7   8
ENDBRANCH   4   7
ENDBRANCH   1   4
BRANCH   1  10
ATOM     10  C   UNL     1       8.233  -2.913  23.678  0.00  0.00    +0.176 C 
BRANCH  10  11
ATOM     11  O   UNL     1       7.810  -2.901  22.288  0.00  0.00    -0.386 OA
ATOM     12  H   UNL     1       6.879  -3.208  22.298  0.00  0.00    +0.210 HD
ENDBRANCH  10  11
BRANCH  10  13
ATOM     13  C   UNL     1       9.466  -1.992  23.844  0.00  0.00    +0.171 C 
BRANCH  13  14
ATOM     14  O   UNL     1       9.330  -1.247  25.073  0.00  0.00    -0.387 OA
ATOM     15  H   UNL     1       8.373  -1.120  25.224  0.00  0.00    +0.210 HD
ENDBRANCH  13  14
BRANCH  13  16
ATOM     16  C   UNL     1       9.656  -1.013  22.675  0.00  0.00    +0.189 C 
BRANCH  16  17
ATOM     17  O   UNL     1      10.316  -1.648  21.579  0.00  0.00    -0.392 OA
ATOM     18  H   UNL     1      10.633  -2.520  21.904  0.00  0.00    +0.210 HD
ENDBRANCH  16  17
ENDBRANCH  13  16
ENDBRANCH  10  13
ENDBRANCH   1  10
TORSDOF 11
ENDMDL
MODEL 6
REMARK VINA RESULT:      -3.8      2.668      4.366
REMARK  Name = 
REMARK  11 active torsions:
REMARK  status: ('A' for Active; 'I' for Inactive)
REMARK    1  A    between atoms: O_1  and  C_2
REMARK    2  A    between atoms: C_2  and  C_3
REMARK    3  A    between atoms: C_3  and  O_5
REMARK    4  A    between atoms: C_3  and  C_6
REMARK    5  A    between atoms: C_6  and  O_8
REMARK    6  A    between atoms: C_6  and  C_9
REMARK    7  A    between atoms: C_9  and  O_11
REMARK    8  A    between atoms: C_9  and  C_12
REMARK    9  A    between atoms: C_12  and  O_14
REMARK   10  A    between atoms: C_12  and  C_15
REMARK   11  A    between atoms: C_15  and  O_16
REMARK                            x       y       z     vdW  Elec       q    Type
REMARK                         _______ _______ _______ _____ _____    ______ ____
ROOT
ATOM      1  C   UNL     1       8.225  -2.944  23.638  0.00  0.00    +0.176 C 
ENDROOT
BRANCH   1   2
ATOM      2  O   UNL     1       7.860  -2.966  22.237  0.00  0.00    -0.386 OA
ATOM      3  H   UNL     1       7.817  -3.899  21.957  0.00  0.00    +0.210 HD
ENDBRANCH   1   2
BRANCH   1   4
ATOM      4  C   UNL     1       9.438  -2.026  23.853  0.00  0.00    +0.171 C 
BRANCH   4   5
ATOM      5  O   UNL     1       9.294  -1.253  25.046  0.00  0.00    -0.387 OA
ATOM      6  H   UNL     1       9.710  -1.796  25.745  0.00  0.00    +0.210 HD
ENDBRANCH   4   5
BRANCH   4   7
ATOM      7  C   UNL     1       9.616  -1.041  22.690  0.00  0.00    +0.189 C 
BRANCH   7   8
ATOM      8  O   UNL     1      10.423  -1.683  21.695  0.00  0.00    -0.392 OA
ATOM      9  H   UNL     1      11.338  -1.668  22.026  0.00  0.00    +0.210 HD
ENDBRANCH   7   8
ENDBRANCH   4   7
ENDBRANCH   1   4
BRANCH   1  10
ATOM     10  C   UNL     1       8.398  -4.411  24.081  0.00  0.00    +0.176 C 
BRANCH  10  11
ATOM     11  O   UNL     1       7.068  -4.908  24.389  0.00  0.00    -0.386 OA
ATOM     12  H   UNL     1       7.211  -5.723  24.915  0.00  0.00    +0.210 HD
ENDBRANCH  10  11
BRANCH  10  13
ATOM     13  C   UNL     1       9.331  -4.666  25.289  0.00  0.00    +0.171 C 
BRANCH  13  14
ATOM     14  O   UNL     1       9.931  -5.971  25.148  0.00  0.00    -0.387 OA
ATOM     15  H   UNL     1       9.253  -6.624  25.407  0.00  0.00    +0.210 HD
ENDBRANCH  13  14
BRANCH  13  16
ATOM     16  C   UNL     1       8.609  -4.581  26.643  0.00  0.00    +0.189 C 
BRANCH  16  17
ATOM     17  O   UNL     1       8.089  -5.854  27.027  0.00  0.00    -0.392 OA
ATOM     18  H   UNL     1       7.150  -5.877  26.734  0.00  0.00    +0.210 HD
ENDBRANCH  16  17
ENDBRANCH  13  16
ENDBRANCH  10  13
ENDBRANCH   1  10
TORSDOF 11
ENDMDL
MODEL 7
REMARK VINA RESULT:      -3.8      1.576      2.889
REMARK  Name = 
REMARK  11 active torsions:
REMARK  status: ('A' for Active; 'I' for Inactive)
REMARK    1  A    between atoms: O_1  and  C_2
REMARK    2  A    between atoms: C_2  and  C_3
REMARK    3  A    between atoms: C_3  and  O_5
REMARK    4  A    between atoms: C_3  and  C_6
REMARK    5  A    between atoms: C_6  and  O_8
REMARK    6  A    between atoms: C_6  and  C_9
REMARK    7  A    between atoms: C_9  and  O_11
REMARK    8  A    between atoms: C_9  and  C_12
REMARK    9  A    between atoms: C_12  and  O_14
REMARK   10  A    between atoms: C_12  and  C_15
REMARK   11  A    between atoms: C_15  and  O_16
REMARK                            x       y       z     vdW  Elec       q    Type
REMARK                         _______ _______ _______ _____ _____    ______ ____
ROOT
ATOM      1  C   UNL     1       8.811   1.826  21.778  0.00  0.00    +0.176 C 
ENDROOT
BRANCH   1   2
ATOM      2  O   UNL     1      10.218   2.072  21.542  0.00  0.00    -0.386 OA
ATOM      3  H   UNL     1      10.540   2.657  22.253  0.00  0.00    +0.210 HD
ENDBRANCH   1   2
BRANCH   1   4
ATOM      4  C   UNL     1       8.265   2.829  22.805  0.00  0.00    +0.171 C 
BRANCH   4   5
ATOM      5  O   UNL     1       7.875   4.051  22.176  0.00  0.00    -0.387 OA
ATOM      6  H   UNL     1       8.172   4.751  22.789  0.00  0.00    +0.210 HD
ENDBRANCH   4   5
BRANCH   4   7
ATOM      7  C   UNL     1       9.314   3.179  23.869  0.00  0.00    +0.189 C 
BRANCH   7   8
ATOM      8  O   UNL     1       9.025   2.402  25.037  0.00  0.00    -0.392 OA
ATOM      9  H   UNL     1       8.086   2.553  25.248  0.00  0.00    +0.210 HD
ENDBRANCH   7   8
ENDBRANCH   4   7
ENDBRANCH   1   4
BRANCH   1  10
ATOM     10  C   UNL     1       8.671   0.334  22.146  0.00  0.00    +0.176 C 
BRANCH  10  11
ATOM     11  O   UNL     1       7.799   0.276  23.306  0.00  0.00    -0.386 OA
ATOM     12  H   UNL     1       7.813  -0.661  23.594  0.00  0.00    +0.210 HD
ENDBRANCH  10  11
BRANCH  10  13
ATOM     13  C   UNL     1       9.981  -0.431  22.452  0.00  0.00    +0.171 C 
BRANCH  13  14
ATOM     14  O   UNL     1      10.145  -1.483  21.479  0.00  0.00    -0.387 OA
ATOM     15  H   UNL     1       9.260  -1.862  21.317  0.00  0.00    +0.210 HD
ENDBRANCH  13  14
BRANCH  13  16
ATOM     16  C   UNL     1      10.017  -1.034  23.865  0.00  0.00    +0.189 C 
BRANCH  16  17
ATOM     17  O   UNL     1      10.421  -0.059  24.828  0.00  0.00    -0.392 OA
ATOM     18  H   UNL     1       9.721   0.632  24.843  0.00  0.00    +0.210 HD
ENDBRANCH  16  17
ENDBRANCH  13  16
ENDBRANCH  10  13
ENDBRANCH   1  10
TORSDOF 11
ENDMDL
MODEL 8
REMARK VINA RESULT:      -3.8      2.132      3.737
REMARK  Name = 
REMARK  11 active torsions:
REMARK  status: ('A' for Active; 'I' for Inactive)
REMARK    1  A    between atoms: O_1  and  C_2
REMARK    2  A    between atoms: C_2  and  C_3
REMARK    3  A    between atoms: C_3  and  O_5
REMARK    4  A    between atoms: C_3  and  C_6
REMARK    5  A    between atoms: C_6  and  O_8
REMARK    6  A    between atoms: C_6  and  C_9
REMARK    7  A    between atoms: C_9  and  O_11
REMARK    8  A    between atoms: C_9  and  C_12
REMARK    9  A    between atoms: C_12  and  O_14
REMARK   10  A    between atoms: C_12  and  C_15
REMARK   11  A    between atoms: C_15  and  O_16
REMARK                            x       y       z     vdW  Elec       q    Type
REMARK                         _______ _______ _______ _____ _____    ______ ____
ROOT
ATOM      1  C   UNL     1       8.096  -2.186  23.417  0.00  0.00    +0.176 C 
ENDROOT
BRANCH   1   2
ATOM      2  O   UNL     1       7.870  -2.891  22.173  0.00  0.00    -0.386 OA
ATOM      3  H   UNL     1       7.508  -3.770  22.392  0.00  0.00    +0.210 HD
ENDBRANCH   1   2
BRANCH   1   4
ATOM      4  C   UNL     1       8.764  -0.830  23.142  0.00  0.00    +0.171 C 
BRANCH   4   5
ATOM      5  O   UNL     1       7.876   0.250  23.433  0.00  0.00    -0.387 OA
ATOM      6  H   UNL     1       7.266  -0.105  24.109  0.00  0.00    +0.210 HD
ENDBRANCH   4   5
BRANCH   4   7
ATOM      7  C   UNL     1       9.182  -0.693  21.672  0.00  0.00    +0.189 C 
BRANCH   7   8
ATOM      8  O   UNL     1      10.306  -1.556  21.457  0.00  0.00    -0.392 OA
ATOM      9  H   UNL     1      10.081  -2.124  20.699  0.00  0.00    +0.210 HD
ENDBRANCH   7   8
ENDBRANCH   4   7
ENDBRANCH   1   4
BRANCH   1  10
ATOM     10  C   UNL     1       8.869  -3.147  24.344  0.00  0.00    +0.176 C 
BRANCH  10  11
ATOM     11  O   UNL     1      10.254  -3.118  23.907  0.00  0.00    -0.386 OA
ATOM     12  H   UNL     1      10.413  -3.991  23.492  0.00  0.00    +0.210 HD
ENDBRANCH  10  11
BRANCH  10  13
ATOM     13  C   UNL     1       8.378  -4.614  24.388  0.00  0.00    +0.171 C 
BRANCH  13  14
ATOM     14  O   UNL     1       6.937  -4.626  24.319  0.00  0.00    -0.387 OA
ATOM     15  H   UNL     1       6.663  -5.561  24.259  0.00  0.00    +0.210 HD
ENDBRANCH  13  14
BRANCH  13  16
ATOM     16  C   UNL     1       8.834  -5.371  25.645  0.00  0.00    +0.189 C 
BRANCH  16  17
ATOM     17  O   UNL     1      10.250  -5.559  25.644  0.00  0.00    -0.392 OA
ATOM     18  H   UNL     1      10.432  -6.352  26.196  0.00  0.00    +0.210 HD
ENDBRANCH  16  17
ENDBRANCH  13  16
ENDBRANCH  10  13
ENDBRANCH   1  10
TORSDOF 11
ENDMDL
MODEL 9
REMARK VINA RESULT:      -3.8      1.302      2.723
REMARK  Name = 
REMARK  11 active torsions:
REMARK  status: ('A' for Active; 'I' for Inactive)
REMARK    1  A    between atoms: O_1  and  C_2
REMARK    2  A    between atoms: C_2  and  C_3
REMARK    3  A    between atoms: C_3  and  O_5
REMARK    4  A    between atoms: C_3  and  C_6
REMARK    5  A    between atoms: C_6  and  O_8
REMARK    6  A    between atoms: C_6  and  C_9
REMARK    7  A    between atoms: C_9  and  O_11
REMARK    8  A    between atoms: C_9  and  C_12
REMARK    9  A    between atoms: C_12  and  O_14
REMARK   10  A    between atoms: C_12  and  C_15
REMARK   11  A    between atoms: C_15  and  O_16
REMARK                            x       y       z     vdW  Elec       q    Type
REMARK                         _______ _______ _______ _____ _____    ______ ____
ROOT
ATOM      1  C   UNL     1       9.351  -0.692  22.566  0.00  0.00    +0.176 C 
ENDROOT
BRANCH   1   2
ATOM      2  O   UNL     1       9.624  -0.996  21.177  0.00  0.00    -0.386 OA
ATOM      3  H   UNL     1      10.072  -1.862  21.146  0.00  0.00    +0.210 HD
ENDBRANCH   1   2
BRANCH   1   4
ATOM      4  C   UNL     1      10.412   0.274  23.114  0.00  0.00    +0.171 C 
BRANCH   4   5
ATOM      5  O   UNL     1      10.606   0.087  24.516  0.00  0.00    -0.387 OA
ATOM      6  H   UNL     1       9.953  -0.596  24.768  0.00  0.00    +0.210 HD
ENDBRANCH   4   5
BRANCH   4   7
ATOM      7  C   UNL     1      10.008   1.739  22.901  0.00  0.00    +0.189 C 
BRANCH   7   8
ATOM      8  O   UNL     1       9.899   1.960  21.489  0.00  0.00    -0.392 OA
ATOM      9  H   UNL     1      10.017   1.094  21.061  0.00  0.00    +0.210 HD
ENDBRANCH   7   8
ENDBRANCH   4   7
ENDBRANCH   1   4
BRANCH   1  10
ATOM     10  C   UNL     1       9.216  -2.040  23.304  0.00  0.00    +0.176 C 
BRANCH  10  11
ATOM     11  O   UNL     1      10.526  -2.666  23.263  0.00  0.00    -0.386 OA
ATOM     12  H   UNL     1      10.752  -2.855  24.199  0.00  0.00    +0.210 HD
ENDBRANCH  10  11
BRANCH  10  13
ATOM     13  C   UNL     1       8.161  -3.029  22.753  0.00  0.00    +0.171 C 
BRANCH  13  14
ATOM     14  O   UNL     1       6.994  -2.286  22.341  0.00  0.00    -0.387 OA
ATOM     15  H   UNL     1       6.563  -2.803  21.634  0.00  0.00    +0.210 HD
ENDBRANCH  13  14
BRANCH  13  16
ATOM     16  C   UNL     1       7.746  -4.105  23.769  0.00  0.00    +0.189 C 
BRANCH  16  17
ATOM     17  O   UNL     1       8.851  -4.946  24.104  0.00  0.00    -0.392 OA
ATOM     18  H   UNL     1       8.642  -5.841  23.755  0.00  0.00    +0.210 HD
ENDBRANCH  16  17
ENDBRANCH  13  16
ENDBRANCH  10  13
ENDBRANCH   1  10
TORSDOF 11
ENDMDL
