MODEL 1
REMARK VINA RESULT:      -6.0      0.000      0.000
REMARK  Name = 
REMARK  8 active torsions:
REMARK  status: ('A' for Active; 'I' for Inactive)
REMARK    1  A    between atoms: C_2  and  C_3
REMARK    2  A    between atoms: C_2  and  C_7
REMARK    3  A    between atoms: C_2  and  S_10
REMARK    4  A    between atoms: C_3  and  C_4
REMARK    5  A    between atoms: C_4  and  O_5
REMARK    6  A    between atoms: S_10  and  C_13
REMARK    7  A    between atoms: C_16  and  O_17
REMARK    8  A    between atoms: O_17  and  C_18
REMARK                            x       y       z     vdW  Elec       q    Type
REMARK                         _______ _______ _______ _____ _____    ______ ____
ROOT
ATOM      1  S   UNL     1       8.959  -3.169  24.389  0.00  0.00    +0.006 S 
ATOM      2  O   UNL     1      10.123  -4.032  24.402  0.00  0.00    -0.169 OA
ATOM      3  O   UNL     1       8.278  -2.875  25.647  0.00  0.00    -0.169 OA
ENDROOT
BRANCH   1   4
ATOM      4  C   UNL     1       9.454  -1.599  23.718  0.00  0.00    +0.089 A 
ATOM      5  C   UNL     1       9.441  -1.402  22.335  0.00  0.00    +0.030 A 
ATOM      6  C   UNL     1       9.754  -0.144  21.807  0.00  0.00    +0.047 A 
ATOM      7  C   UNL     1      10.115   0.903  22.654  0.00  0.00    +0.120 A 
ATOM      8  C   UNL     1      10.186   0.675  24.034  0.00  0.00    +0.047 A 
ATOM      9  C   UNL     1       9.868  -0.575  24.573  0.00  0.00    +0.030 A 
BRANCH   7  10
ATOM     10  O   UNL     1      10.365   2.191  22.273  0.00  0.00    -0.495 OA
ATOM     11  C   UNL     1      10.745   3.106  23.294  0.00  0.00    +0.277 C 
ENDBRANCH   7  10
ENDBRANCH   1   4
BRANCH   1  12
ATOM     12  C   UNL     1       7.780  -3.869  23.244  0.00  0.00    +0.212 C 
BRANCH  12  13
ATOM     13  C   UNL     1       7.743  -5.365  23.432  0.00  0.00    +0.366 C 
ATOM     14  F   UNL     1       7.399  -5.982  22.277  0.00  0.00    -0.207 F 
ATOM     15  F   UNL     1       6.748  -5.676  24.308  0.00  0.00    -0.207 F 
ENDBRANCH  12  13
BRANCH  12  16
ATOM     16  C   UNL     1       6.357  -3.325  23.486  0.00  0.00    +0.152 C 
BRANCH  16  17
ATOM     17  C   UNL     1       5.405  -3.592  22.349  0.00  0.00    +0.307 C 
ATOM     18  O   UNL     1       5.589  -3.286  21.189  0.00  0.00    -0.251 OA
BRANCH  17  19
ATOM     19  O   UNL     1       4.323  -4.273  22.772  0.00  0.00    -0.481 OA
ATOM     20  H   UNL     1       4.404  -4.307  23.753  0.00  0.00    +0.295 HD
ENDBRANCH  17  19
ENDBRANCH  16  17
ENDBRANCH  12  16
ENDBRANCH   1  12
TORSDOF 7
ENDMDL
MODEL 2
REMARK VINA RESULT:      -5.9      3.248      6.217
REMARK  Name = 
REMARK  8 active torsions:
REMARK  status: ('A' for Active; 'I' for Inactive)
REMARK    1  A    between atoms: C_2  and  C_3
REMARK    2  A    between atoms: C_2  and  C_7
REMARK    3  A    between atoms: C_2  and  S_10
REMARK    4  A    between atoms: C_3  and  C_4
REMARK    5  A    between atoms: C_4  and  O_5
REMARK    6  A    between atoms: S_10  and  C_13
REMARK    7  A    between atoms: C_16  and  O_17
REMARK    8  A    between atoms: O_17  and  C_18
REMARK                            x       y       z     vdW  Elec       q    Type
REMARK                         _______ _______ _______ _____ _____    ______ ____
ROOT
ATOM      1  S   UNL     1       9.199  -2.060  23.208  0.00  0.00    +0.006 S 
ATOM      2  O   UNL     1      10.547  -2.439  22.837  0.00  0.00    -0.169 OA
ATOM      3  O   UNL     1       8.133  -2.166  22.216  0.00  0.00    -0.169 OA
ENDROOT
BRANCH   1   4
ATOM      4  C   UNL     1       8.704  -3.084  24.575  0.00  0.00    +0.089 A 
ATOM      5  C   UNL     1       7.478  -2.852  25.204  0.00  0.00    +0.030 A 
ATOM      6  C   UNL     1       7.049  -3.704  26.229  0.00  0.00    +0.047 A 
ATOM      7  C   UNL     1       7.857  -4.760  26.649  0.00  0.00    +0.120 A 
ATOM      8  C   UNL     1       9.111  -4.942  26.054  0.00  0.00    +0.047 A 
ATOM      9  C   UNL     1       9.547  -4.103  25.025  0.00  0.00    +0.030 A 
BRANCH   7  10
ATOM     10  O   UNL     1       7.521  -5.705  27.578  0.00  0.00    -0.495 OA
ATOM     11  C   UNL     1       6.207  -5.641  28.118  0.00  0.00    +0.277 C 
ENDBRANCH   7  10
ENDBRANCH   1   4
BRANCH   1  12
ATOM     12  C   UNL     1       9.258  -0.382  23.818  0.00  0.00    +0.212 C 
BRANCH  12  13
ATOM     13  C   UNL     1       9.774  -0.393  25.234  0.00  0.00    +0.366 C 
ATOM     14  F   UNL     1       8.845   0.105  26.084  0.00  0.00    -0.207 F 
ATOM     15  F   UNL     1      10.831   0.461  25.327  0.00  0.00    -0.207 F 
ENDBRANCH  12  13
BRANCH  12  16
ATOM     16  C   UNL     1      10.204   0.499  22.975  0.00  0.00    +0.152 C 
BRANCH  16  17
ATOM     17  C   UNL     1       9.493   1.343  21.949  0.00  0.00    +0.307 C 
ATOM     18  O   UNL     1       8.346   1.189  21.584  0.00  0.00    -0.251 OA
BRANCH  17  19
ATOM     19  O   UNL     1      10.282   2.344  21.513  0.00  0.00    -0.481 OA
ATOM     20  H   UNL     1      11.202   2.001  21.586  0.00  0.00    +0.295 HD
ENDBRANCH  17  19
ENDBRANCH  16  17
ENDBRANCH  12  16
ENDBRANCH   1  12
TORSDOF 7
ENDMDL
MODEL 3
REMARK VINA RESULT:      -5.9      2.208      3.229
REMARK  Name = 
REMARK  8 active torsions:
REMARK  status: ('A' for Active; 'I' for Inactive)
REMARK    1  A    between atoms: C_2  and  C_3
REMARK    2  A    between atoms: C_2  and  C_7
REMARK    3  A    between atoms: C_2  and  S_10
REMARK    4  A    between atoms: C_3  and  C_4
REMARK    5  A    between atoms: C_4  and  O_5
REMARK    6  A    between atoms: S_10  and  C_13
REMARK    7  A    between atoms: C_16  and  O_17
REMARK    8  A    between atoms: O_17  and  C_18
REMARK                            x       y       z     vdW  Elec       q    Type
REMARK                         _______ _______ _______ _____ _____    ______ ____
ROOT
ATOM      1  S   UNL     1       8.510  -3.629  23.835  0.00  0.00    +0.006 S 
ATOM      2  O   UNL     1       7.761  -4.194  22.732  0.00  0.00    -0.169 OA
ATOM      3  O   UNL     1       9.660  -4.358  24.361  0.00  0.00    -0.169 OA
ENDROOT
BRANCH   1   4
ATOM      4  C   UNL     1       9.127  -2.043  23.319  0.00  0.00    +0.089 A 
ATOM      5  C   UNL     1       9.002  -1.653  21.984  0.00  0.00    +0.030 A 
ATOM      6  C   UNL     1       9.415  -0.375  21.589  0.00  0.00    +0.047 A 
ATOM      7  C   UNL     1       9.985   0.496  22.517  0.00  0.00    +0.120 A 
ATOM      8  C   UNL     1      10.163   0.070  23.838  0.00  0.00    +0.047 A 
ATOM      9  C   UNL     1       9.747  -1.201  24.245  0.00  0.00    +0.030 A 
BRANCH   7  10
ATOM     10  O   UNL     1      10.353   1.790  22.278  0.00  0.00    -0.495 OA
ATOM     11  C   UNL     1      10.502   2.639  23.409  0.00  0.00    +0.277 C 
ENDBRANCH   7  10
ENDBRANCH   1   4
BRANCH   1  12
ATOM     12  C   UNL     1       7.360  -3.324  25.168  0.00  0.00    +0.212 C 
BRANCH  12  13
ATOM     13  C   UNL     1       6.267  -2.412  24.674  0.00  0.00    +0.366 C 
ATOM     14  F   UNL     1       6.510  -1.132  25.041  0.00  0.00    -0.207 F 
ATOM     15  F   UNL     1       5.100  -2.742  25.294  0.00  0.00    -0.207 F 
ENDBRANCH  12  13
BRANCH  12  16
ATOM     16  C   UNL     1       6.701  -4.629  25.664  0.00  0.00    +0.152 C 
BRANCH  16  17
ATOM     17  C   UNL     1       7.335  -5.192  26.909  0.00  0.00    +0.307 C 
ATOM     18  O   UNL     1       6.908  -5.062  28.038  0.00  0.00    -0.251 OA
BRANCH  17  19
ATOM     19  O   UNL     1       8.430  -5.918  26.610  0.00  0.00    -0.481 OA
ATOM     20  H   UNL     1       8.170  -6.477  25.842  0.00  0.00    +0.295 HD
ENDBRANCH  17  19
ENDBRANCH  16  17
ENDBRANCH  12  16
ENDBRANCH   1  12
TORSDOF 7
ENDMDL
MODEL 4
REMARK VINA RESULT:      -5.8      2.306      3.642
REMARK  Name = 
REMARK  8 active torsions:
REMARK  status: ('A' for Active; 'I' for Inactive)
REMARK    1  A    between atoms: C_2  and  C_3
REMARK    2  A    between atoms: C_2  and  C_7
REMARK    3  A    between atoms: C_2  and  S_10
REMARK    4  A    between atoms: C_3  and  C_4
REMARK    5  A    between atoms: C_4  and  O_5
REMARK    6  A    between atoms: S_10  and  C_13
REMARK    7  A    between atoms: C_16  and  O_17
REMARK    8  A    between atoms: O_17  and  C_18
REMARK                            x       y       z     vdW  Elec       q    Type
REMARK                         _______ _______ _______ _____ _____    ______ ____
ROOT
ATOM      1  S   UNL     1       9.354  -2.042  23.079  0.00  0.00    +0.006 S 
ATOM      2  O   UNL     1       8.508  -2.225  21.917  0.00  0.00    -0.169 OA
ATOM      3  O   UNL     1      10.635  -2.740  23.143  0.00  0.00    -0.169 OA
ENDROOT
BRANCH   1   4
ATOM      4  C   UNL     1       9.731  -0.309  23.211  0.00  0.00    +0.089 A 
ATOM      5  C   UNL     1      10.054   0.237  24.455  0.00  0.00    +0.030 A 
ATOM      6  C   UNL     1      10.427   1.583  24.551  0.00  0.00    +0.047 A 
ATOM      7  C   UNL     1      10.442   2.389  23.413  0.00  0.00    +0.120 A 
ATOM      8  C   UNL     1      10.055   1.846  22.183  0.00  0.00    +0.047 A 
ATOM      9  C   UNL     1       9.688   0.502  22.074  0.00  0.00    +0.030 A 
BRANCH   7  10
ATOM     10  O   UNL     1      10.861   3.689  23.360  0.00  0.00    -0.495 OA
ATOM     11  C   UNL     1       9.948   4.681  23.813  0.00  0.00    +0.277 C 
ENDBRANCH   7  10
ENDBRANCH   1   4
BRANCH   1  12
ATOM     12  C   UNL     1       8.390  -2.468  24.521  0.00  0.00    +0.212 C 
BRANCH  12  13
ATOM     13  C   UNL     1       7.006  -1.889  24.375  0.00  0.00    +0.366 C 
ATOM     14  F   UNL     1       6.899  -0.729  25.065  0.00  0.00    -0.207 F 
ATOM     15  F   UNL     1       6.110  -2.731  24.960  0.00  0.00    -0.207 F 
ENDBRANCH  12  13
BRANCH  12  16
ATOM     16  C   UNL     1       8.250  -3.997  24.683  0.00  0.00    +0.152 C 
BRANCH  16  17
ATOM     17  C   UNL     1       9.204  -4.590  25.687  0.00  0.00    +0.307 C 
ATOM     18  O   UNL     1       9.034  -4.620  26.888  0.00  0.00    -0.251 OA
BRANCH  17  19
ATOM     19  O   UNL     1      10.270  -5.141  25.075  0.00  0.00    -0.481 OA
ATOM     20  H   UNL     1       9.900  -5.669  24.331  0.00  0.00    +0.295 HD
ENDBRANCH  17  19
ENDBRANCH  16  17
ENDBRANCH  12  16
ENDBRANCH   1  12
TORSDOF 7
ENDMDL
MODEL 5
REMARK VINA RESULT:      -5.8      1.707      2.325
REMARK  Name = 
REMARK  8 active torsions:
REMARK  status: ('A' for Active; 'I' for Inactive)
REMARK    1  A    between atoms: C_2  and  C_3
REMARK    2  A    between atoms: C_2  and  C_7
REMARK    3  A    between atoms: C_2  and  S_10
REMARK    4  A    between atoms: C_3  and  C_4
REMARK    5  A    between atoms: C_4  and  O_5
REMARK    6  A    between atoms: S_10  and  C_13
REMARK    7  A    between atoms: C_16  and  O_17
REMARK    8  A    between atoms: O_17  and  C_18
REMARK                            x       y       z     vdW  Elec       q    Type
REMARK                         _______ _______ _______ _____ _____    ______ ____
ROOT
ATOM      1  S   UNL     1       7.846  -4.539  24.067  0.00  0.00    +0.006 S 
ATOM      2  O   UNL     1       8.893  -5.534  23.954  0.00  0.00    -0.169 OA
ATOM      3  O   UNL     1       7.303  -4.226  25.386  0.00  0.00    -0.169 OA
ENDROOT
BRANCH   1   4
ATOM      4  C   UNL     1       8.478  -3.008  23.419  0.00  0.00    +0.089 A 
ATOM      5  C   UNL     1       9.738  -2.556  23.816  0.00  0.00    +0.030 A 
ATOM      6  C   UNL     1      10.272  -1.392  23.250  0.00  0.00    +0.047 A 
ATOM      7  C   UNL     1       9.534  -0.664  22.317  0.00  0.00    +0.120 A 
ATOM      8  C   UNL     1       8.246  -1.093  21.976  0.00  0.00    +0.047 A 
ATOM      9  C   UNL     1       7.707  -2.256  22.530  0.00  0.00    +0.030 A 
BRANCH   7  10
ATOM     10  O   UNL     1       9.971   0.438  21.636  0.00  0.00    -0.495 OA
ATOM     11  C   UNL     1       9.989   1.671  22.345  0.00  0.00    +0.277 C 
ENDBRANCH   7  10
ENDBRANCH   1   4
BRANCH   1  12
ATOM     12  C   UNL     1       6.508  -5.038  22.995  0.00  0.00    +0.212 C 
BRANCH  12  13
ATOM     13  C   UNL     1       7.071  -5.843  21.851  0.00  0.00    +0.366 C 
ATOM     14  F   UNL     1       6.437  -5.538  20.695  0.00  0.00    -0.207 F 
ATOM     15  F   UNL     1       6.803  -7.161  22.064  0.00  0.00    -0.207 F 
ENDBRANCH  12  13
BRANCH  12  16
ATOM     16  C   UNL     1       5.481  -5.920  23.735  0.00  0.00    +0.152 C 
BRANCH  16  17
ATOM     17  C   UNL     1       4.076  -5.784  23.210  0.00  0.00    +0.307 C 
ATOM     18  O   UNL     1       3.554  -4.749  22.851  0.00  0.00    -0.251 OA
BRANCH  17  19
ATOM     19  O   UNL     1       3.469  -6.985  23.134  0.00  0.00    -0.481 OA
ATOM     20  H   UNL     1       2.524  -6.787  22.940  0.00  0.00    +0.295 HD
ENDBRANCH  17  19
ENDBRANCH  16  17
ENDBRANCH  12  16
ENDBRANCH   1  12
TORSDOF 7
ENDMDL
MODEL 6
REMARK VINA RESULT:      -5.7      2.384      3.200
REMARK  Name = 
REMARK  8 active torsions:
REMARK  status: ('A' for Active; 'I' for Inactive)
REMARK    1  A    between atoms: C_2  and  C_3
REMARK    2  A    between atoms: C_2  and  C_7
REMARK    3  A    between atoms: C_2  and  S_10
REMARK    4  A    between atoms: C_3  and  C_4
REMARK    5  A    between atoms: C_4  and  O_5
REMARK    6  A    between atoms: S_10  and  C_13
REMARK    7  A    between atoms: C_16  and  O_17
REMARK    8  A    between atoms: O_17  and  C_18
REMARK                            x       y       z     vdW  Elec       q    Type
REMARK                         _______ _______ _______ _____ _____    ______ ____
ROOT
ATOM      1  S   UNL     1       8.988  -2.525  24.296  0.00  0.00    +0.006 S 
ATOM      2  O   UNL     1      10.271  -2.981  23.802  0.00  0.00    -0.169 OA
ATOM      3  O   UNL     1       8.847  -2.200  25.713  0.00  0.00    -0.169 OA
ENDROOT
BRANCH   1   4
ATOM      4  C   UNL     1       8.557  -1.046  23.407  0.00  0.00    +0.089 A 
ATOM      5  C   UNL     1       7.392  -0.353  23.741  0.00  0.00    +0.030 A 
ATOM      6  C   UNL     1       7.088   0.853  23.097  0.00  0.00    +0.047 A 
ATOM      7  C   UNL     1       7.928   1.345  22.098  0.00  0.00    +0.120 A 
ATOM      8  C   UNL     1       9.059   0.607  21.728  0.00  0.00    +0.047 A 
ATOM      9  C   UNL     1       9.374  -0.593  22.369  0.00  0.00    +0.030 A 
BRANCH   7  10
ATOM     10  O   UNL     1       7.787   2.541  21.452  0.00  0.00    -0.495 OA
ATOM     11  C   UNL     1       7.110   3.578  22.154  0.00  0.00    +0.277 C 
ENDBRANCH   7  10
ENDBRANCH   1   4
BRANCH   1  12
ATOM     12  C   UNL     1       7.772  -3.759  23.862  0.00  0.00    +0.212 C 
BRANCH  12  13
ATOM     13  C   UNL     1       7.407  -3.597  22.409  0.00  0.00    +0.366 C 
ATOM     14  F   UNL     1       6.132  -3.159  22.283  0.00  0.00    -0.207 F 
ATOM     15  F   UNL     1       7.420  -4.820  21.810  0.00  0.00    -0.207 F 
ENDBRANCH  12  13
BRANCH  12  16
ATOM     16  C   UNL     1       8.315  -5.190  24.058  0.00  0.00    +0.152 C 
BRANCH  16  17
ATOM     17  C   UNL     1       8.698  -5.502  25.481  0.00  0.00    +0.307 C 
ATOM     18  O   UNL     1       7.922  -5.698  26.393  0.00  0.00    -0.251 OA
BRANCH  17  19
ATOM     19  O   UNL     1      10.036  -5.593  25.615  0.00  0.00    -0.481 OA
ATOM     20  H   UNL     1      10.307  -4.769  26.082  0.00  0.00    +0.295 HD
ENDBRANCH  17  19
ENDBRANCH  16  17
ENDBRANCH  12  16
ENDBRANCH   1  12
TORSDOF 7
ENDMDL
MODEL 7
REMARK VINA RESULT:      -5.7      1.967      3.210
REMARK  Name = 
REMARK  8 active torsions:
REMARK  status: ('A' for Active; 'I' for Inactive)
REMARK    1  A    between atoms: C_2  and  C_3
REMARK    2  A    between atoms: C_2  and  C_7
REMARK    3  A    between atoms: C_2  and  S_10
REMARK    4  A    between atoms: C_3  and  C_4
REMARK    5  A    between atoms: C_4  and  O_5
REMARK    6  A    between atoms: S_10  and  C_13
REMARK    7  A    between atoms: C_16  and  O_17
REMARK    8  A    between atoms: O_17  and  C_18
REMARK                            x       y       z     vdW  Elec       q    Type
REMARK                         _______ _______ _______ _____ _____    ______ ____
ROOT
ATOM      1  S   UNL     1       5.916  -3.349  22.982  0.00  0.00    +0.006 S 
ATOM      2  O   UNL     1       4.972  -2.950  24.006  0.00  0.00    -0.169 OA
ATOM      3  O   UNL     1       5.497  -3.332  21.584  0.00  0.00    -0.169 OA
ENDROOT
BRANCH   1   4
ATOM      4  C   UNL     1       7.323  -2.267  23.088  0.00  0.00    +0.089 A 
ATOM      5  C   UNL     1       8.297  -2.299  22.088  0.00  0.00    +0.030 A 
ATOM      6  C   UNL     1       9.366  -1.395  22.126  0.00  0.00    +0.047 A 
ATOM      7  C   UNL     1       9.479  -0.487  23.179  0.00  0.00    +0.120 A 
ATOM      8  C   UNL     1       8.531  -0.508  24.208  0.00  0.00    +0.047 A 
ATOM      9  C   UNL     1       7.457  -1.401  24.176  0.00  0.00    +0.030 A 
BRANCH   7  10
ATOM     10  O   UNL     1      10.425   0.493  23.291  0.00  0.00    -0.495 OA
ATOM     11  C   UNL     1      10.949   0.740  24.590  0.00  0.00    +0.277 C 
ENDBRANCH   7  10
ENDBRANCH   1   4
BRANCH   1  12
ATOM     12  C   UNL     1       6.496  -4.988  23.392  0.00  0.00    +0.212 C 
BRANCH  12  13
ATOM     13  C   UNL     1       7.065  -5.630  22.152  0.00  0.00    +0.366 C 
ATOM     14  F   UNL     1       6.192  -6.525  21.634  0.00  0.00    -0.207 F 
ATOM     15  F   UNL     1       8.160  -6.365  22.497  0.00  0.00    -0.207 F 
ENDBRANCH  12  13
BRANCH  12  16
ATOM     16  C   UNL     1       7.610  -4.949  24.460  0.00  0.00    +0.152 C 
BRANCH  16  17
ATOM     17  C   UNL     1       7.151  -5.382  25.829  0.00  0.00    +0.307 C 
ATOM     18  O   UNL     1       6.006  -5.357  26.228  0.00  0.00    -0.251 OA
BRANCH  17  19
ATOM     19  O   UNL     1       8.180  -5.859  26.556  0.00  0.00    -0.481 OA
ATOM     20  H   UNL     1       8.697  -5.066  26.826  0.00  0.00    +0.295 HD
ENDBRANCH  17  19
ENDBRANCH  16  17
ENDBRANCH  12  16
ENDBRANCH   1  12
TORSDOF 7
ENDMDL
MODEL 8
REMARK VINA RESULT:      -5.7      1.997      2.558
REMARK  Name = 
REMARK  8 active torsions:
REMARK  status: ('A' for Active; 'I' for Inactive)
REMARK    1  A    between atoms: C_2  and  C_3
REMARK    2  A    between atoms: C_2  and  C_7
REMARK    3  A    between atoms: C_2  and  S_10
REMARK    4  A    between atoms: C_3  and  C_4
REMARK    5  A    between atoms: C_4  and  O_5
REMARK    6  A    between atoms: S_10  and  C_13
REMARK    7  A    between atoms: C_16  and  O_17
REMARK    8  A    between atoms: O_17  and  C_18
REMARK                            x       y       z     vdW  Elec       q    Type
REMARK                         _______ _______ _______ _____ _____    ______ ____
ROOT
ATOM      1  S   UNL     1       8.178  -4.361  24.849  0.00  0.00    +0.006 S 
ATOM      2  O   UNL     1       9.190  -5.305  24.420  0.00  0.00    -0.169 OA
ATOM      3  O   UNL     1       7.637  -4.464  26.201  0.00  0.00    -0.169 OA
ENDROOT
BRANCH   1   4
ATOM      4  C   UNL     1       8.866  -2.727  24.717  0.00  0.00    +0.089 A 
ATOM      5  C   UNL     1       8.550  -1.763  25.678  0.00  0.00    +0.030 A 
ATOM      6  C   UNL     1       9.150  -0.500  25.622  0.00  0.00    +0.047 A 
ATOM      7  C   UNL     1      10.034  -0.188  24.589  0.00  0.00    +0.120 A 
ATOM      8  C   UNL     1      10.293  -1.141  23.597  0.00  0.00    +0.047 A 
ATOM      9  C   UNL     1       9.705  -2.408  23.647  0.00  0.00    +0.030 A 
BRANCH   7  10
ATOM     10  O   UNL     1      10.743   0.974  24.466  0.00  0.00    -0.495 OA
ATOM     11  C   UNL     1      10.008   2.148  24.141  0.00  0.00    +0.277 C 
ENDBRANCH   7  10
ENDBRANCH   1   4
BRANCH   1  12
ATOM     12  C   UNL     1       6.830  -4.447  23.679  0.00  0.00    +0.212 C 
BRANCH  12  13
ATOM     13  C   UNL     1       6.132  -3.112  23.637  0.00  0.00    +0.366 C 
ATOM     14  F   UNL     1       4.793  -3.276  23.524  0.00  0.00    -0.207 F 
ATOM     15  F   UNL     1       6.503  -2.454  22.503  0.00  0.00    -0.207 F 
ENDBRANCH  12  13
BRANCH  12  16
ATOM     16  C   UNL     1       7.330  -4.767  22.255  0.00  0.00    +0.152 C 
BRANCH  16  17
ATOM     17  C   UNL     1       6.411  -5.676  21.480  0.00  0.00    +0.307 C 
ATOM     18  O   UNL     1       5.905  -5.418  20.408  0.00  0.00    -0.251 OA
BRANCH  17  19
ATOM     19  O   UNL     1       6.256  -6.857  22.108  0.00  0.00    -0.481 OA
ATOM     20  H   UNL     1       6.347  -7.540  21.405  0.00  0.00    +0.295 HD
ENDBRANCH  17  19
ENDBRANCH  16  17
ENDBRANCH  12  16
ENDBRANCH   1  12
TORSDOF 7
ENDMDL
MODEL 9
REMARK VINA RESULT:      -5.6      3.264      6.358
REMARK  Name = 
REMARK  8 active torsions:
REMARK  status: ('A' for Active; 'I' for Inactive)
REMARK    1  A    between atoms: C_2  and  C_3
REMARK    2  A    between atoms: C_2  and  C_7
REMARK    3  A    between atoms: C_2  and  S_10
REMARK    4  A    between atoms: C_3  and  C_4
REMARK    5  A    between atoms: C_4  and  O_5
REMARK    6  A    between atoms: S_10  and  C_13
REMARK    7  A    between atoms: C_16  and  O_17
REMARK    8  A    between atoms: O_17  and  C_18
REMARK                            x       y       z     vdW  Elec       q    Type
REMARK                         _______ _______ _______ _____ _____    ______ ____
ROOT
ATOM      1  S   UNL     1       7.492  -2.569  23.381  0.00  0.00    +0.006 S 
ATOM      2  O   UNL     1       7.506  -3.365  22.171  0.00  0.00    -0.169 OA
ATOM      3  O   UNL     1       6.397  -1.628  23.600  0.00  0.00    -0.169 OA
ENDROOT
BRANCH   1   4
ATOM      4  C   UNL     1       7.468  -3.684  24.766  0.00  0.00    +0.089 A 
ATOM      5  C   UNL     1       8.638  -3.908  25.494  0.00  0.00    +0.030 A 
ATOM      6  C   UNL     1       8.606  -4.724  26.632  0.00  0.00    +0.047 A 
ATOM      7  C   UNL     1       7.417  -5.342  27.019  0.00  0.00    +0.120 A 
ATOM      8  C   UNL     1       6.266  -5.160  26.244  0.00  0.00    +0.047 A 
ATOM      9  C   UNL     1       6.285  -4.342  25.111  0.00  0.00    +0.030 A 
BRANCH   7  10
ATOM     10  O   UNL     1       7.236  -6.093  28.146  0.00  0.00    -0.495 OA
ATOM     11  C   UNL     1       5.905  -6.217  28.633  0.00  0.00    +0.277 C 
ENDBRANCH   7  10
ENDBRANCH   1   4
BRANCH   1  12
ATOM     12  C   UNL     1       9.041  -1.683  23.462  0.00  0.00    +0.212 C 
BRANCH  12  13
ATOM     13  C   UNL     1       9.585  -1.519  22.066  0.00  0.00    +0.366 C 
ATOM     14  F   UNL     1      10.930  -1.670  22.057  0.00  0.00    -0.207 F 
ATOM     15  F   UNL     1       9.372  -0.237  21.655  0.00  0.00    -0.207 F 
ENDBRANCH  12  13
BRANCH  12  16
ATOM     16  C   UNL     1       8.863  -0.276  24.071  0.00  0.00    +0.152 C 
BRANCH  16  17
ATOM     17  C   UNL     1       9.928   0.090  25.071  0.00  0.00    +0.307 C 
ATOM     18  O   UNL     1      11.011   0.570  24.804  0.00  0.00    -0.251 OA
BRANCH  17  19
ATOM     19  O   UNL     1       9.508  -0.135  26.331  0.00  0.00    -0.481 OA
ATOM     20  H   UNL     1      10.185   0.284  26.911  0.00  0.00    +0.295 HD
ENDBRANCH  17  19
ENDBRANCH  16  17
ENDBRANCH  12  16
ENDBRANCH   1  12
TORSDOF 7
ENDMDL
