MODEL 1
REMARK VINA RESULT:      -6.1      0.000      0.000
REMARK  Name = 
REMARK  5 active torsions:
REMARK  status: ('A' for Active; 'I' for Inactive)
REMARK    1  A    between atoms: C_1  and  C_2
REMARK    2  A    between atoms: N_4  and  C_5
REMARK    3  A    between atoms: C_5  and  C_6
REMARK    4  A    between atoms: C_6  and  C_7
REMARK    5  A    between atoms: C_13  and  O_14
REMARK                            x       y       z     vdW  Elec       q    Type
REMARK                         _______ _______ _______ _____ _____    ______ ____
ROOT
ATOM      1  C   UNL     1       9.622   2.833  23.421  0.00  0.00    -0.021 A 
ATOM      2  C   UNL     1      10.646   3.836  23.528  0.00  0.00    +0.006 A 
ATOM      3  C   UNL     1      12.024   3.873  23.224  0.00  0.00    +0.055 A 
ATOM      4  C   UNL     1      12.736   5.053  23.461  0.00  0.00    +0.118 A 
ATOM      5  C   UNL     1      12.122   6.181  23.988  0.00  0.00    +0.047 A 
ATOM      6  C   UNL     1      10.762   6.168  24.301  0.00  0.00    +0.030 A 
ATOM      7  C   UNL     1      10.054   4.984  24.062  0.00  0.00    +0.047 A 
ATOM      8  N   UNL     1       8.733   4.691  24.287  0.00  0.00    -0.360 N 
ATOM      9  H   UNL     1       8.061   5.337  24.679  0.00  0.00    +0.165 HD
ATOM     10  C   UNL     1       8.464   3.403  23.920  0.00  0.00    +0.087 A 
ENDROOT
BRANCH   4  11
ATOM     11  O   UNL     1      14.070   5.140  23.183  0.00  0.00    -0.507 OA
ATOM     12  H   UNL     1      14.518   5.545  23.942  0.00  0.00    +0.292 HD
ENDBRANCH   4  11
BRANCH   1  13
ATOM     13  C   UNL     1       9.778   1.431  22.904  0.00  0.00    +0.056 C 
BRANCH  13  14
ATOM     14  C   UNL     1      10.644   0.544  23.806  0.00  0.00    +0.109 C 
BRANCH  14  17
ATOM     15  C   UNL     1       9.335  -2.997  24.050  0.00  0.00    +0.109 C 
ATOM     16  C   UNL     1      10.049  -1.823  23.439  0.00  0.00    +0.210 C 
ATOM     17  N   UNL     1       9.976  -0.680  24.204  0.00  0.00    -0.315 N 
ATOM     18  H   UNL     1       9.434  -0.685  25.058  0.00  0.00    +0.149 HD
ATOM     19  O   UNL     1      10.642  -1.895  22.369  0.00  0.00    -0.276 OA
ENDBRANCH  14  17
ENDBRANCH  13  14
ENDBRANCH   1  13
TORSDOF 4
ENDMDL
MODEL 2
REMARK VINA RESULT:      -5.9      3.394      8.478
REMARK  Name = 
REMARK  5 active torsions:
REMARK  status: ('A' for Active; 'I' for Inactive)
REMARK    1  A    between atoms: C_1  and  C_2
REMARK    2  A    between atoms: N_4  and  C_5
REMARK    3  A    between atoms: C_5  and  C_6
REMARK    4  A    between atoms: C_6  and  C_7
REMARK    5  A    between atoms: C_13  and  O_14
REMARK                            x       y       z     vdW  Elec       q    Type
REMARK                         _______ _______ _______ _____ _____    ______ ____
ROOT
ATOM      1  C   UNL     1       8.558  -3.078  23.689  0.00  0.00    -0.021 A 
ATOM      2  C   UNL     1       7.921  -3.971  24.619  0.00  0.00    +0.006 A 
ATOM      3  C   UNL     1       8.293  -4.529  25.862  0.00  0.00    +0.055 A 
ATOM      4  C   UNL     1       7.399  -5.386  26.511  0.00  0.00    +0.118 A 
ATOM      5  C   UNL     1       6.163  -5.700  25.964  0.00  0.00    +0.047 A 
ATOM      6  C   UNL     1       5.774  -5.165  24.734  0.00  0.00    +0.030 A 
ATOM      7  C   UNL     1       6.673  -4.308  24.088  0.00  0.00    +0.047 A 
ATOM      8  N   UNL     1       6.558  -3.664  22.882  0.00  0.00    -0.360 N 
ATOM      9  H   UNL     1       5.757  -3.732  22.270  0.00  0.00    +0.165 HD
ATOM     10  C   UNL     1       7.685  -2.935  22.626  0.00  0.00    +0.087 A 
ENDROOT
BRANCH   4  11
ATOM     11  O   UNL     1       7.712  -5.949  27.715  0.00  0.00    -0.507 OA
ATOM     12  H   UNL     1       6.922  -5.932  28.278  0.00  0.00    +0.292 HD
ENDBRANCH   4  11
BRANCH   1  13
ATOM     13  C   UNL     1       9.915  -2.448  23.824  0.00  0.00    +0.056 C 
BRANCH  13  14
ATOM     14  C   UNL     1      10.331  -1.632  22.595  0.00  0.00    +0.109 C 
BRANCH  14  17
ATOM     15  C   UNL     1      10.043   2.140  22.583  0.00  0.00    +0.109 C 
ATOM     16  C   UNL     1       9.831   0.733  22.097  0.00  0.00    +0.210 C 
ATOM     17  N   UNL     1      10.459  -0.215  22.875  0.00  0.00    -0.315 N 
ATOM     18  H   UNL     1      11.034   0.079  23.653  0.00  0.00    +0.149 HD
ATOM     19  O   UNL     1       9.155   0.470  21.109  0.00  0.00    -0.276 OA
ENDBRANCH  14  17
ENDBRANCH  13  14
ENDBRANCH   1  13
TORSDOF 4
ENDMDL
MODEL 3
REMARK VINA RESULT:      -5.9      2.747      7.569
REMARK  Name = 
REMARK  5 active torsions:
REMARK  status: ('A' for Active; 'I' for Inactive)
REMARK    1  A    between atoms: C_1  and  C_2
REMARK    2  A    between atoms: N_4  and  C_5
REMARK    3  A    between atoms: C_5  and  C_6
REMARK    4  A    between atoms: C_6  and  C_7
REMARK    5  A    between atoms: C_13  and  O_14
REMARK                            x       y       z     vdW  Elec       q    Type
REMARK                         _______ _______ _______ _____ _____    ______ ____
ROOT
ATOM      1  C   UNL     1       9.343  -1.269  22.208  0.00  0.00    -0.021 A 
ATOM      2  C   UNL     1       8.314  -2.214  22.547  0.00  0.00    +0.006 A 
ATOM      3  C   UNL     1       7.008  -2.462  22.072  0.00  0.00    +0.055 A 
ATOM      4  C   UNL     1       6.264  -3.496  22.649  0.00  0.00    +0.118 A 
ATOM      5  C   UNL     1       6.778  -4.279  23.674  0.00  0.00    +0.047 A 
ATOM      6  C   UNL     1       8.065  -4.051  24.164  0.00  0.00    +0.030 A 
ATOM      7  C   UNL     1       8.804  -3.013  23.583  0.00  0.00    +0.047 A 
ATOM      8  N   UNL     1      10.069  -2.568  23.876  0.00  0.00    -0.360 N 
ATOM      9  H   UNL     1      10.663  -2.958  24.594  0.00  0.00    +0.165 HD
ATOM     10  C   UNL     1      10.398  -1.515  23.069  0.00  0.00    +0.087 A 
ENDROOT
BRANCH   4  11
ATOM     11  O   UNL     1       4.997  -3.775  22.223  0.00  0.00    -0.507 OA
ATOM     12  H   UNL     1       4.918  -3.510  21.293  0.00  0.00    +0.292 HD
ENDBRANCH   4  11
BRANCH   1  13
ATOM     13  C   UNL     1       9.279  -0.201  21.153  0.00  0.00    +0.056 C 
BRANCH  13  14
ATOM     14  C   UNL     1       8.707   1.125  21.665  0.00  0.00    +0.109 C 
BRANCH  14  17
ATOM     15  C   UNL     1      11.224   3.463  23.250  0.00  0.00    +0.109 C 
ATOM     16  C   UNL     1      10.113   2.450  23.201  0.00  0.00    +0.210 C 
ATOM     17  N   UNL     1       9.730   2.121  21.919  0.00  0.00    -0.315 N 
ATOM     18  H   UNL     1      10.160   2.590  21.134  0.00  0.00    +0.149 HD
ATOM     19  O   UNL     1       9.614   1.968  24.210  0.00  0.00    -0.276 OA
ENDBRANCH  14  17
ENDBRANCH  13  14
ENDBRANCH   1  13
TORSDOF 4
ENDMDL
MODEL 4
REMARK VINA RESULT:      -5.7      3.348      4.816
REMARK  Name = 
REMARK  5 active torsions:
REMARK  status: ('A' for Active; 'I' for Inactive)
REMARK    1  A    between atoms: C_1  and  C_2
REMARK    2  A    between atoms: N_4  and  C_5
REMARK    3  A    between atoms: C_5  and  C_6
REMARK    4  A    between atoms: C_6  and  C_7
REMARK    5  A    between atoms: C_13  and  O_14
REMARK                            x       y       z     vdW  Elec       q    Type
REMARK                         _______ _______ _______ _____ _____    ______ ____
ROOT
ATOM      1  C   UNL     1       9.395  -1.533  23.444  0.00  0.00    -0.021 A 
ATOM      2  C   UNL     1       9.320  -0.103  23.570  0.00  0.00    +0.006 A 
ATOM      3  C   UNL     1       8.978   0.777  24.620  0.00  0.00    +0.055 A 
ATOM      4  C   UNL     1       9.015   2.155  24.385  0.00  0.00    +0.118 A 
ATOM      5  C   UNL     1       9.377   2.674  23.149  0.00  0.00    +0.047 A 
ATOM      6  C   UNL     1       9.714   1.824  22.094  0.00  0.00    +0.030 A 
ATOM      7  C   UNL     1       9.674   0.446  22.335  0.00  0.00    +0.047 A 
ATOM      8  N   UNL     1       9.939  -0.601  21.488  0.00  0.00    -0.360 N 
ATOM      9  H   UNL     1      10.213  -0.500  20.520  0.00  0.00    +0.165 HD
ATOM     10  C   UNL     1       9.762  -1.790  22.135  0.00  0.00    +0.087 A 
ENDROOT
BRANCH   4  11
ATOM     11  O   UNL     1       8.694   3.047  25.368  0.00  0.00    -0.507 OA
ATOM     12  H   UNL     1       8.066   3.692  25.007  0.00  0.00    +0.292 HD
ENDBRANCH   4  11
BRANCH   1  13
ATOM     13  C   UNL     1       9.101  -2.552  24.508  0.00  0.00    +0.056 C 
BRANCH  13  14
ATOM     14  C   UNL     1       7.685  -3.134  24.418  0.00  0.00    +0.109 C 
BRANCH  14  17
ATOM     15  C   UNL     1       7.169  -5.773  21.757  0.00  0.00    +0.109 C 
ATOM     16  C   UNL     1       7.082  -4.414  22.396  0.00  0.00    +0.210 C 
ATOM     17  N   UNL     1       7.630  -4.369  23.659  0.00  0.00    -0.315 N 
ATOM     18  H   UNL     1       7.992  -5.215  24.077  0.00  0.00    +0.149 HD
ATOM     19  O   UNL     1       6.579  -3.450  21.832  0.00  0.00    -0.276 OA
ENDBRANCH  14  17
ENDBRANCH  13  14
ENDBRANCH   1  13
TORSDOF 4
ENDMDL
MODEL 5
REMARK VINA RESULT:      -5.6      3.773      6.470
REMARK  Name = 
REMARK  5 active torsions:
REMARK  status: ('A' for Active; 'I' for Inactive)
REMARK    1  A    between atoms: C_1  and  C_2
REMARK    2  A    between atoms: N_4  and  C_5
REMARK    3  A    between atoms: C_5  and  C_6
REMARK    4  A    between atoms: C_6  and  C_7
REMARK    5  A    between atoms: C_13  and  O_14
REMARK                            x       y       z     vdW  Elec       q    Type
REMARK                         _______ _______ _______ _____ _____    ______ ____
ROOT
ATOM      1  C   UNL     1       9.646   0.366  24.029  0.00  0.00    -0.021 A 
ATOM      2  C   UNL     1       9.369  -0.962  24.506  0.00  0.00    +0.006 A 
ATOM      3  C   UNL     1       9.563  -2.257  23.980  0.00  0.00    +0.055 A 
ATOM      4  C   UNL     1       9.164  -3.361  24.740  0.00  0.00    +0.118 A 
ATOM      5  C   UNL     1       8.585  -3.212  25.993  0.00  0.00    +0.047 A 
ATOM      6  C   UNL     1       8.378  -1.941  26.532  0.00  0.00    +0.030 A 
ATOM      7  C   UNL     1       8.779  -0.840  25.766  0.00  0.00    +0.047 A 
ATOM      8  N   UNL     1       8.683   0.501  26.042  0.00  0.00    -0.360 N 
ATOM      9  H   UNL     1       8.286   0.886  26.887  0.00  0.00    +0.165 HD
ATOM     10  C   UNL     1       9.186   1.234  25.004  0.00  0.00    +0.087 A 
ENDROOT
BRANCH   4  11
ATOM     11  O   UNL     1       9.331  -4.635  24.275  0.00  0.00    -0.507 OA
ATOM     12  H   UNL     1      10.040  -5.058  24.785  0.00  0.00    +0.292 HD
ENDBRANCH   4  11
BRANCH   1  13
ATOM     13  C   UNL     1      10.276   0.745  22.719  0.00  0.00    +0.056 C 
BRANCH  13  14
ATOM     14  C   UNL     1       9.255   1.010  21.607  0.00  0.00    +0.109 C 
BRANCH  14  17
ATOM     15  C   UNL     1       7.154   4.122  22.070  0.00  0.00    +0.109 C 
ATOM     16  C   UNL     1       7.476   2.653  22.085  0.00  0.00    +0.210 C 
ATOM     17  N   UNL     1       8.742   2.366  21.623  0.00  0.00    -0.315 N 
ATOM     18  H   UNL     1       9.327   3.113  21.274  0.00  0.00    +0.149 HD
ATOM     19  O   UNL     1       6.683   1.807  22.482  0.00  0.00    -0.276 OA
ENDBRANCH  14  17
ENDBRANCH  13  14
ENDBRANCH   1  13
TORSDOF 4
ENDMDL
MODEL 6
REMARK VINA RESULT:      -5.6      3.463      5.042
REMARK  Name = 
REMARK  5 active torsions:
REMARK  status: ('A' for Active; 'I' for Inactive)
REMARK    1  A    between atoms: C_1  and  C_2
REMARK    2  A    between atoms: N_4  and  C_5
REMARK    3  A    between atoms: C_5  and  C_6
REMARK    4  A    between atoms: C_6  and  C_7
REMARK    5  A    between atoms: C_13  and  O_14
REMARK                            x       y       z     vdW  Elec       q    Type
REMARK                         _______ _______ _______ _____ _____    ______ ____
ROOT
ATOM      1  C   UNL     1       7.595  -1.262  23.886  0.00  0.00    -0.021 A 
ATOM      2  C   UNL     1       8.602  -0.270  23.627  0.00  0.00    +0.006 A 
ATOM      3  C   UNL     1       8.872   0.603  22.550  0.00  0.00    +0.055 A 
ATOM      4  C   UNL     1       9.970   1.464  22.639  0.00  0.00    +0.118 A 
ATOM      5  C   UNL     1      10.797   1.479  23.754  0.00  0.00    +0.047 A 
ATOM      6  C   UNL     1      10.554   0.623  24.829  0.00  0.00    +0.030 A 
ATOM      7  C   UNL     1       9.453  -0.238  24.735  0.00  0.00    +0.047 A 
ATOM      8  N   UNL     1       8.998  -1.179  25.623  0.00  0.00    -0.360 N 
ATOM      9  H   UNL     1       9.428  -1.382  26.515  0.00  0.00    +0.165 HD
ATOM     10  C   UNL     1       7.894  -1.809  25.121  0.00  0.00    +0.087 A 
ENDROOT
BRANCH   4  11
ATOM     11  O   UNL     1      10.272   2.328  21.625  0.00  0.00    -0.507 OA
ATOM     12  H   UNL     1      10.266   1.836  20.788  0.00  0.00    +0.292 HD
ENDBRANCH   4  11
BRANCH   1  13
ATOM     13  C   UNL     1       6.461  -1.657  22.983  0.00  0.00    +0.056 C 
BRANCH  13  14
ATOM     14  C   UNL     1       5.733  -2.927  23.441  0.00  0.00    +0.109 C 
BRANCH  14  17
ATOM     15  C   UNL     1       6.747  -6.004  21.488  0.00  0.00    +0.109 C 
ATOM     16  C   UNL     1       6.856  -4.929  22.534  0.00  0.00    +0.210 C 
ATOM     17  N   UNL     1       5.831  -4.010  22.482  0.00  0.00    -0.315 N 
ATOM     18  H   UNL     1       5.134  -4.081  21.753  0.00  0.00    +0.149 HD
ATOM     19  O   UNL     1       7.767  -4.893  23.352  0.00  0.00    -0.276 OA
ENDBRANCH  14  17
ENDBRANCH  13  14
ENDBRANCH   1  13
TORSDOF 4
ENDMDL
MODEL 7
REMARK VINA RESULT:      -5.6      1.661      6.007
REMARK  Name = 
REMARK  5 active torsions:
REMARK  status: ('A' for Active; 'I' for Inactive)
REMARK    1  A    between atoms: C_1  and  C_2
REMARK    2  A    between atoms: N_4  and  C_5
REMARK    3  A    between atoms: C_5  and  C_6
REMARK    4  A    between atoms: C_6  and  C_7
REMARK    5  A    between atoms: C_13  and  O_14
REMARK                            x       y       z     vdW  Elec       q    Type
REMARK                         _______ _______ _______ _____ _____    ______ ____
ROOT
ATOM      1  C   UNL     1       8.604   2.227  24.220  0.00  0.00    -0.021 A 
ATOM      2  C   UNL     1       9.062   0.906  23.884  0.00  0.00    +0.006 A 
ATOM      3  C   UNL     1       9.646   0.328  22.736  0.00  0.00    +0.055 A 
ATOM      4  C   UNL     1       9.979  -1.030  22.760  0.00  0.00    +0.118 A 
ATOM      5  C   UNL     1       9.748  -1.818  23.879  0.00  0.00    +0.047 A 
ATOM      6  C   UNL     1       9.167  -1.271  25.024  0.00  0.00    +0.030 A 
ATOM      7  C   UNL     1       8.836   0.089  24.995  0.00  0.00    +0.047 A 
ATOM      8  N   UNL     1       8.250   0.870  25.960  0.00  0.00    -0.360 N 
ATOM      9  H   UNL     1       7.967   0.539  26.872  0.00  0.00    +0.165 HD
ATOM     10  C   UNL     1       8.093   2.148  25.503  0.00  0.00    +0.087 A 
ENDROOT
BRANCH   4  11
ATOM     11  O   UNL     1      10.547  -1.635  21.675  0.00  0.00    -0.507 OA
ATOM     12  H   UNL     1       9.900  -2.248  21.290  0.00  0.00    +0.292 HD
ENDBRANCH   4  11
BRANCH   1  13
ATOM     13  C   UNL     1       8.637   3.446  23.343  0.00  0.00    +0.056 C 
BRANCH  13  14
ATOM     14  C   UNL     1       9.555   4.552  23.874  0.00  0.00    +0.109 C 
BRANCH  14  17
ATOM     15  C   UNL     1      13.171   5.189  22.963  0.00  0.00    +0.109 C 
ATOM     16  C   UNL     1      11.846   5.437  23.629  0.00  0.00    +0.210 C 
ATOM     17  N   UNL     1      10.884   4.510  23.294  0.00  0.00    -0.315 N 
ATOM     18  H   UNL     1      11.100   3.788  22.620  0.00  0.00    +0.149 HD
ATOM     19  O   UNL     1      11.659   6.371  24.400  0.00  0.00    -0.276 OA
ENDBRANCH  14  17
ENDBRANCH  13  14
ENDBRANCH   1  13
TORSDOF 4
ENDMDL
MODEL 8
REMARK VINA RESULT:      -5.6      4.292      5.727
REMARK  Name = 
REMARK  5 active torsions:
REMARK  status: ('A' for Active; 'I' for Inactive)
REMARK    1  A    between atoms: C_1  and  C_2
REMARK    2  A    between atoms: N_4  and  C_5
REMARK    3  A    between atoms: C_5  and  C_6
REMARK    4  A    between atoms: C_6  and  C_7
REMARK    5  A    between atoms: C_13  and  O_14
REMARK                            x       y       z     vdW  Elec       q    Type
REMARK                         _______ _______ _______ _____ _____    ______ ____
ROOT
ATOM      1  C   UNL     1       7.458  -1.642  25.600  0.00  0.00    -0.021 A 
ATOM      2  C   UNL     1       8.412  -1.206  24.617  0.00  0.00    +0.006 A 
ATOM      3  C   UNL     1       8.557  -1.410  23.227  0.00  0.00    +0.055 A 
ATOM      4  C   UNL     1       9.638  -0.815  22.568  0.00  0.00    +0.118 A 
ATOM      5  C   UNL     1      10.565  -0.036  23.244  0.00  0.00    +0.047 A 
ATOM      6  C   UNL     1      10.446   0.177  24.619  0.00  0.00    +0.030 A 
ATOM      7  C   UNL     1       9.362  -0.422  25.274  0.00  0.00    +0.047 A 
ATOM      8  N   UNL     1       9.016  -0.392  26.602  0.00  0.00    -0.360 N 
ATOM      9  H   UNL     1       9.533   0.098  27.319  0.00  0.00    +0.165 HD
ATOM     10  C   UNL     1       7.885  -1.130  26.812  0.00  0.00    +0.087 A 
ENDROOT
BRANCH   4  11
ATOM     11  O   UNL     1       9.822  -0.982  21.225  0.00  0.00    -0.507 OA
ATOM     12  H   UNL     1       9.117  -0.508  20.756  0.00  0.00    +0.292 HD
ENDBRANCH   4  11
BRANCH   1  13
ATOM     13  C   UNL     1       6.254  -2.510  25.370  0.00  0.00    +0.056 C 
BRANCH  13  14
ATOM     14  C   UNL     1       6.565  -4.010  25.432  0.00  0.00    +0.109 C 
BRANCH  14  17
ATOM     15  C   UNL     1       7.350  -5.818  22.203  0.00  0.00    +0.109 C 
ATOM     16  C   UNL     1       7.633  -5.138  23.514  0.00  0.00    +0.210 C 
ATOM     17  N   UNL     1       6.502  -4.654  24.134  0.00  0.00    -0.315 N 
ATOM     18  H   UNL     1       5.606  -4.737  23.673  0.00  0.00    +0.149 HD
ATOM     19  O   UNL     1       8.763  -5.039  23.976  0.00  0.00    -0.276 OA
ENDBRANCH  14  17
ENDBRANCH  13  14
ENDBRANCH   1  13
TORSDOF 4
ENDMDL
MODEL 9
REMARK VINA RESULT:      -5.5      3.827      5.063
REMARK  Name = 
REMARK  5 active torsions:
REMARK  status: ('A' for Active; 'I' for Inactive)
REMARK    1  A    between atoms: C_1  and  C_2
REMARK    2  A    between atoms: N_4  and  C_5
REMARK    3  A    between atoms: C_5  and  C_6
REMARK    4  A    between atoms: C_6  and  C_7
REMARK    5  A    between atoms: C_13  and  O_14
REMARK                            x       y       z     vdW  Elec       q    Type
REMARK                         _______ _______ _______ _____ _____    ______ ____
ROOT
ATOM      1  C   UNL     1       8.018  -1.388  24.087  0.00  0.00    -0.021 A 
ATOM      2  C   UNL     1       8.254  -0.200  23.312  0.00  0.00    +0.006 A 
ATOM      3  C   UNL     1       9.408   0.414  22.777  0.00  0.00    +0.055 A 
ATOM      4  C   UNL     1       9.265   1.600  22.050  0.00  0.00    +0.118 A 
ATOM      5  C   UNL     1       8.023   2.185  21.846  0.00  0.00    +0.047 A 
ATOM      6  C   UNL     1       6.869   1.599  22.369  0.00  0.00    +0.030 A 
ATOM      7  C   UNL     1       7.017   0.412  23.096  0.00  0.00    +0.047 A 
ATOM      8  N   UNL     1       6.069  -0.356  23.724  0.00  0.00    -0.360 N 
ATOM      9  H   UNL     1       5.081  -0.147  23.741  0.00  0.00    +0.165 HD
ATOM     10  C   UNL     1       6.657  -1.429  24.333  0.00  0.00    +0.087 A 
ENDROOT
BRANCH   4  11
ATOM     11  O   UNL     1      10.350   2.231  21.512  0.00  0.00    -0.507 OA
ATOM     12  H   UNL     1      11.154   1.822  21.870  0.00  0.00    +0.292 HD
ENDBRANCH   4  11
BRANCH   1  13
ATOM     13  C   UNL     1       9.045  -2.374  24.569  0.00  0.00    +0.056 C 
BRANCH  13  14
ATOM     14  C   UNL     1       8.453  -3.743  24.921  0.00  0.00    +0.109 C 
BRANCH  14  17
ATOM     15  C   UNL     1       7.204  -5.953  22.117  0.00  0.00    +0.109 C 
ATOM     16  C   UNL     1       7.117  -5.105  23.355  0.00  0.00    +0.210 C 
ATOM     17  N   UNL     1       8.338  -4.622  23.773  0.00  0.00    -0.315 N 
ATOM     18  H   UNL     1       9.177  -4.891  23.278  0.00  0.00    +0.149 HD
ATOM     19  O   UNL     1       6.057  -4.869  23.921  0.00  0.00    -0.276 OA
ENDBRANCH  14  17
ENDBRANCH  13  14
ENDBRANCH   1  13
TORSDOF 4
ENDMDL
