MODEL 1
REMARK VINA RESULT:      -6.5      0.000      0.000
REMARK  Name = 
REMARK  9 active torsions:
REMARK  status: ('A' for Active; 'I' for Inactive)
REMARK    1  A    between atoms: N_1  and  C_2
REMARK    2  A    between atoms: C_2  and  C_4
REMARK    3  A    between atoms: C_2  and  C_14
REMARK    4  A    between atoms: C_4  and  C_5
REMARK    5  A    between atoms: C_5  and  C_6
REMARK    6  A    between atoms: C_6  and  N_7
REMARK    7  A    between atoms: N_10  and  N_11
REMARK    8  A    between atoms: N_16  and  C_17
REMARK    9  A    between atoms: C_21  and  C_24
REMARK                            x       y       z     vdW  Elec       q    Type
REMARK                         _______ _______ _______ _____ _____    ______ ____
ROOT
ATOM      1  C   UNL     1       7.774  -4.965  25.780  0.00  0.00    +0.138 C 
ENDROOT
BRANCH   1   2
ATOM      2  C   UNL     1       8.826  -4.124  25.023  0.00  0.00    +0.230 C 
ATOM      3  N   UNL     1       8.383  -2.877  24.640  0.00  0.00    -0.310 N 
ATOM      4  H   UNL     1       7.463  -2.604  24.976  0.00  0.00    +0.149 HD
ATOM      5  O   UNL     1       9.962  -4.530  24.794  0.00  0.00    -0.274 OA
BRANCH   3   6
ATOM      6  C   UNL     1       9.218  -1.973  23.874  0.00  0.00    +0.089 C 
ATOM      7  C   UNL     1       8.798  -0.511  23.994  0.00  0.00    +0.051 C 
ATOM      8  C   UNL     1       9.066   0.100  22.616  0.00  0.00    +0.142 C 
ATOM      9  N   UNL     1       9.642  -0.983  21.777  0.00  0.00    -0.304 NA
ATOM     10  H   UNL     1       9.308  -0.890  20.818  0.00  0.00    +0.123 HD
ATOM     11  C   UNL     1       9.154  -2.228  22.366  0.00  0.00    +0.104 C 
BRANCH   8  12
ATOM     12  C   UNL     1      10.029   1.297  22.698  0.00  0.00    +0.228 C 
ATOM     13  O   UNL     1      10.731   1.532  23.674  0.00  0.00    -0.274 OA
ATOM     14  N   UNL     1      10.048   2.097  21.594  0.00  0.00    -0.328 N 
ATOM     15  H   UNL     1      10.720   2.850  21.538  0.00  0.00    +0.145 HD
ATOM     16  H   UNL     1       9.584   1.757  20.757  0.00  0.00    +0.145 HD
ENDBRANCH   8  12
ENDBRANCH   3   6
ENDBRANCH   1   2
BRANCH   1  17
ATOM     17  N   UNL     1       8.360  -5.570  26.997  0.00  0.00    -0.320 NA
ATOM     18  H   UNL     1       7.942  -6.489  27.146  0.00  0.00    +0.119 HD
ATOM     19  H   UNL     1       9.352  -5.745  26.829  0.00  0.00    +0.119 HD
ENDBRANCH   1  17
BRANCH   1  20
ATOM     20  C   UNL     1       6.511  -4.140  26.079  0.00  0.00    +0.031 C 
BRANCH  20  21
ATOM     21  C   UNL     1       5.188  -4.901  25.911  0.00  0.00    +0.039 C 
BRANCH  21  22
ATOM     22  C   UNL     1       4.413  -4.370  24.704  0.00  0.00    +0.196 C 
BRANCH  22  23
ATOM     23  N   UNL     1       5.124  -4.667  23.480  0.00  0.00    -0.272 N 
ATOM     24  H   UNL     1       5.047  -5.631  23.149  0.00  0.00    +0.258 HD
ATOM     25  C   UNL     1       5.639  -3.773  22.600  0.00  0.00    +0.440 C 
ATOM     26  N   UNL     1       6.224  -4.190  21.453  0.00  0.00    +0.025 N 
ATOM     27  H   UNL     1       6.603  -3.440  20.900  0.00  0.00    +0.348 HD
ATOM     28  N   UNL     1       5.625  -2.491  22.798  0.00  0.00    -0.125 NA
ATOM     29  H   UNL     1       5.167  -2.287  23.688  0.00  0.00    +0.306 HD
BRANCH  26  30
ATOM     30  N   UNL     1       6.403  -5.451  21.057  0.00  0.00    +0.232 N 
ATOM     31  O   UNL     1       5.905  -5.700  19.959  0.00  0.00    +0.084 OA
ATOM     32  O   UNL     1       7.009  -6.243  21.788  0.00  0.00    -0.542 OA
ENDBRANCH  26  30
ENDBRANCH  22  23
ENDBRANCH  21  22
ENDBRANCH  20  21
ENDBRANCH   1  20
TORSDOF 9
ENDMDL
MODEL 2
REMARK VINA RESULT:      -6.5      1.832      2.286
REMARK  Name = 
REMARK  9 active torsions:
REMARK  status: ('A' for Active; 'I' for Inactive)
REMARK    1  A    between atoms: N_1  and  C_2
REMARK    2  A    between atoms: C_2  and  C_4
REMARK    3  A    between atoms: C_2  and  C_14
REMARK    4  A    between atoms: C_4  and  C_5
REMARK    5  A    between atoms: C_5  and  C_6
REMARK    6  A    between atoms: C_6  and  N_7
REMARK    7  A    between atoms: N_10  and  N_11
REMARK    8  A    between atoms: N_16  and  C_17
REMARK    9  A    between atoms: C_21  and  C_24
REMARK                            x       y       z     vdW  Elec       q    Type
REMARK                         _______ _______ _______ _____ _____    ______ ____
ROOT
ATOM      1  C   UNL     1       8.809  -4.521  24.827  0.00  0.00    +0.138 C 
ENDROOT
BRANCH   1   2
ATOM      2  C   UNL     1       8.526  -3.184  24.108  0.00  0.00    +0.230 C 
ATOM      3  N   UNL     1       9.359  -2.153  24.486  0.00  0.00    -0.310 N 
ATOM      4  H   UNL     1      10.123  -2.398  25.110  0.00  0.00    +0.149 HD
ATOM      5  O   UNL     1       7.642  -3.056  23.266  0.00  0.00    -0.274 OA
BRANCH   3   6
ATOM      6  C   UNL     1       9.204  -0.814  23.954  0.00  0.00    +0.089 C 
ATOM      7  C   UNL     1      10.501  -0.010  23.949  0.00  0.00    +0.051 C 
ATOM      8  C   UNL     1      10.084   1.431  24.255  0.00  0.00    +0.142 C 
ATOM      9  N   UNL     1       8.605   1.423  24.394  0.00  0.00    -0.304 NA
ATOM     10  H   UNL     1       8.323   2.082  25.120  0.00  0.00    +0.123 HD
ATOM     11  C   UNL     1       8.261   0.058  24.787  0.00  0.00    +0.104 C 
BRANCH   8  12
ATOM     12  C   UNL     1      10.522   2.403  23.145  0.00  0.00    +0.228 C 
ATOM     13  O   UNL     1      11.202   3.400  23.352  0.00  0.00    -0.274 OA
ATOM     14  N   UNL     1      10.090   2.079  21.893  0.00  0.00    -0.328 N 
ATOM     15  H   UNL     1      10.411   2.619  21.102  0.00  0.00    +0.145 HD
ATOM     16  H   UNL     1       9.684   1.157  21.758  0.00  0.00    +0.145 HD
ENDBRANCH   8  12
ENDBRANCH   3   6
ENDBRANCH   1   2
BRANCH   1  17
ATOM     17  N   UNL     1      10.258  -4.825  24.822  0.00  0.00    -0.320 NA
ATOM     18  H   UNL     1      10.722  -4.226  24.138  0.00  0.00    +0.119 HD
ATOM     19  H   UNL     1      10.650  -4.560  25.727  0.00  0.00    +0.119 HD
ENDBRANCH   1  17
BRANCH   1  20
ATOM     20  C   UNL     1       8.207  -4.533  26.242  0.00  0.00    +0.031 C 
BRANCH  20  21
ATOM     21  C   UNL     1       6.678  -4.407  26.294  0.00  0.00    +0.039 C 
BRANCH  21  22
ATOM     22  C   UNL     1       6.016  -5.675  25.752  0.00  0.00    +0.196 C 
BRANCH  22  23
ATOM     23  N   UNL     1       6.006  -5.659  24.306  0.00  0.00    -0.272 N 
ATOM     24  H   UNL     1       6.811  -5.209  23.866  0.00  0.00    +0.258 HD
ATOM     25  C   UNL     1       5.212  -6.394  23.488  0.00  0.00    +0.440 C 
ATOM     26  N   UNL     1       5.356  -6.330  22.144  0.00  0.00    +0.025 N 
ATOM     27  H   UNL     1       4.687  -6.887  21.642  0.00  0.00    +0.348 HD
ATOM     28  N   UNL     1       4.271  -7.174  23.923  0.00  0.00    -0.125 NA
ATOM     29  H   UNL     1       4.246  -7.145  24.944  0.00  0.00    +0.306 HD
BRANCH  26  30
ATOM     30  N   UNL     1       6.214  -5.566  21.466  0.00  0.00    +0.232 N 
ATOM     31  O   UNL     1       5.676  -4.642  20.854  0.00  0.00    +0.084 OA
ATOM     32  O   UNL     1       7.421  -5.832  21.485  0.00  0.00    -0.542 OA
ENDBRANCH  26  30
ENDBRANCH  22  23
ENDBRANCH  21  22
ENDBRANCH  20  21
ENDBRANCH   1  20
TORSDOF 9
ENDMDL
MODEL 3
REMARK VINA RESULT:      -6.4      3.141      4.826
REMARK  Name = 
REMARK  9 active torsions:
REMARK  status: ('A' for Active; 'I' for Inactive)
REMARK    1  A    between atoms: N_1  and  C_2
REMARK    2  A    between atoms: C_2  and  C_4
REMARK    3  A    between atoms: C_2  and  C_14
REMARK    4  A    between atoms: C_4  and  C_5
REMARK    5  A    between atoms: C_5  and  C_6
REMARK    6  A    between atoms: C_6  and  N_7
REMARK    7  A    between atoms: N_10  and  N_11
REMARK    8  A    between atoms: N_16  and  C_17
REMARK    9  A    between atoms: C_21  and  C_24
REMARK                            x       y       z     vdW  Elec       q    Type
REMARK                         _______ _______ _______ _____ _____    ______ ____
ROOT
ATOM      1  C   UNL     1       9.464  -1.613  24.567  0.00  0.00    +0.138 C 
ENDROOT
BRANCH   1   2
ATOM      2  C   UNL     1       9.879  -0.140  24.354  0.00  0.00    +0.230 C 
ATOM      3  N   UNL     1       8.950   0.616  23.673  0.00  0.00    -0.310 N 
ATOM      4  H   UNL     1       8.061   0.163  23.475  0.00  0.00    +0.149 HD
ATOM      5  O   UNL     1      10.942   0.317  24.765  0.00  0.00    -0.274 OA
BRANCH   3   6
ATOM      6  C   UNL     1       9.195   2.004  23.337  0.00  0.00    +0.089 C 
ATOM      7  C   UNL     1       8.931   2.963  24.495  0.00  0.00    +0.051 C 
ATOM      8  C   UNL     1       8.357   4.227  23.849  0.00  0.00    +0.142 C 
ATOM      9  N   UNL     1       8.333   3.981  22.384  0.00  0.00    -0.304 NA
ATOM     10  H   UNL     1       7.507   4.416  21.974  0.00  0.00    +0.123 HD
ATOM     11  C   UNL     1       8.267   2.528  22.237  0.00  0.00    +0.104 C 
BRANCH   8  12
ATOM     12  C   UNL     1       9.199   5.472  24.178  0.00  0.00    +0.228 C 
ATOM     13  O   UNL     1       9.271   5.959  25.300  0.00  0.00    -0.274 OA
ATOM     14  N   UNL     1       9.867   6.012  23.120  0.00  0.00    -0.328 N 
ATOM     15  H   UNL     1      10.510   6.776  23.276  0.00  0.00    +0.145 HD
ATOM     16  H   UNL     1       9.911   5.469  22.262  0.00  0.00    +0.145 HD
ENDBRANCH   8  12
ENDBRANCH   3   6
ENDBRANCH   1   2
BRANCH   1  17
ATOM     17  N   UNL     1       8.318  -1.706  25.500  0.00  0.00    -0.320 NA
ATOM     18  H   UNL     1       7.461  -1.462  25.002  0.00  0.00    +0.119 HD
ATOM     19  H   UNL     1       8.204  -2.681  25.780  0.00  0.00    +0.119 HD
ENDBRANCH   1  17
BRANCH   1  20
ATOM     20  C   UNL     1       9.193  -2.316  23.227  0.00  0.00    +0.031 C 
BRANCH  20  21
ATOM     21  C   UNL     1       7.771  -2.870  23.063  0.00  0.00    +0.039 C 
BRANCH  21  22
ATOM     22  C   UNL     1       7.758  -4.386  23.263  0.00  0.00    +0.196 C 
BRANCH  22  23
ATOM     23  N   UNL     1       7.769  -4.707  24.673  0.00  0.00    -0.272 N 
ATOM     24  H   UNL     1       6.864  -4.646  25.145  0.00  0.00    +0.258 HD
ATOM     25  C   UNL     1       8.760  -5.329  25.359  0.00  0.00    +0.440 C 
ATOM     26  N   UNL     1       8.609  -5.631  26.670  0.00  0.00    +0.025 N 
ATOM     27  H   UNL     1       9.424  -6.054  27.081  0.00  0.00    +0.348 HD
ATOM     28  N   UNL     1       9.897  -5.654  24.829  0.00  0.00    -0.125 NA
ATOM     29  H   UNL     1       9.907  -5.380  23.844  0.00  0.00    +0.306 HD
BRANCH  26  30
ATOM     30  N   UNL     1       7.556  -5.352  27.440  0.00  0.00    +0.232 N 
ATOM     31  O   UNL     1       7.180  -4.183  27.359  0.00  0.00    +0.084 OA
ATOM     32  O   UNL     1       7.068  -6.235  28.155  0.00  0.00    -0.542 OA
ENDBRANCH  26  30
ENDBRANCH  22  23
ENDBRANCH  21  22
ENDBRANCH  20  21
ENDBRANCH   1  20
TORSDOF 9
ENDMDL
MODEL 4
REMARK VINA RESULT:      -6.4      2.934      8.117
REMARK  Name = 
REMARK  9 active torsions:
REMARK  status: ('A' for Active; 'I' for Inactive)
REMARK    1  A    between atoms: N_1  and  C_2
REMARK    2  A    between atoms: C_2  and  C_4
REMARK    3  A    between atoms: C_2  and  C_14
REMARK    4  A    between atoms: C_4  and  C_5
REMARK    5  A    between atoms: C_5  and  C_6
REMARK    6  A    between atoms: C_6  and  N_7
REMARK    7  A    between atoms: N_10  and  N_11
REMARK    8  A    between atoms: N_16  and  C_17
REMARK    9  A    between atoms: C_21  and  C_24
REMARK                            x       y       z     vdW  Elec       q    Type
REMARK                         _______ _______ _______ _____ _____    ______ ____
ROOT
ATOM      1  C   UNL     1       9.549   1.361  22.851  0.00  0.00    +0.138 C 
ENDROOT
BRANCH   1   2
ATOM      2  C   UNL     1       9.296  -0.046  22.264  0.00  0.00    +0.230 C 
ATOM      3  N   UNL     1       8.954  -0.996  23.203  0.00  0.00    -0.310 N 
ATOM      4  H   UNL     1       8.807  -0.658  24.151  0.00  0.00    +0.149 HD
ATOM      5  O   UNL     1       9.381  -0.291  21.064  0.00  0.00    -0.274 OA
BRANCH   3   6
ATOM      6  C   UNL     1       8.732  -2.381  22.839  0.00  0.00    +0.089 C 
ATOM      7  C   UNL     1       7.287  -2.681  22.448  0.00  0.00    +0.051 C 
ATOM      8  C   UNL     1       7.014  -4.095  22.967  0.00  0.00    +0.142 C 
ATOM      9  N   UNL     1       8.275  -4.566  23.597  0.00  0.00    -0.304 NA
ATOM     10  H   UNL     1       8.060  -5.136  24.415  0.00  0.00    +0.123 HD
ATOM     11  C   UNL     1       8.985  -3.353  23.995  0.00  0.00    +0.104 C 
BRANCH   8  12
ATOM     12  C   UNL     1       6.580  -5.046  21.839  0.00  0.00    +0.228 C 
ATOM     13  O   UNL     1       5.888  -4.695  20.890  0.00  0.00    -0.274 OA
ATOM     14  N   UNL     1       7.018  -6.330  21.967  0.00  0.00    -0.328 N 
ATOM     15  H   UNL     1       6.849  -6.990  21.221  0.00  0.00    +0.145 HD
ATOM     16  H   UNL     1       7.727  -6.519  22.671  0.00  0.00    +0.145 HD
ENDBRANCH   8  12
ENDBRANCH   3   6
ENDBRANCH   1   2
BRANCH   1  17
ATOM     17  N   UNL     1      10.177   2.245  21.843  0.00  0.00    -0.320 NA
ATOM     18  H   UNL     1      10.532   3.081  22.309  0.00  0.00    +0.119 HD
ATOM     19  H   UNL     1      11.000   1.774  21.463  0.00  0.00    +0.119 HD
ENDBRANCH   1  17
BRANCH   1  20
ATOM     20  C   UNL     1       8.262   1.959  23.442  0.00  0.00    +0.031 C 
BRANCH  20  21
ATOM     21  C   UNL     1       7.082   2.049  22.464  0.00  0.00    +0.039 C 
BRANCH  21  22
ATOM     22  C   UNL     1       6.820   3.504  22.071  0.00  0.00    +0.196 C 
BRANCH  22  23
ATOM     23  N   UNL     1       7.838   4.366  22.629  0.00  0.00    -0.272 N 
ATOM     24  H   UNL     1       8.566   3.895  23.171  0.00  0.00    +0.258 HD
ATOM     25  C   UNL     1       8.084   5.658  22.295  0.00  0.00    +0.440 C 
ATOM     26  N   UNL     1       9.118   6.331  22.852  0.00  0.00    +0.025 N 
ATOM     27  H   UNL     1       9.177   7.291  22.558  0.00  0.00    +0.348 HD
ATOM     28  N   UNL     1       7.356   6.327  21.458  0.00  0.00    -0.125 NA
ATOM     29  H   UNL     1       6.606   5.731  21.102  0.00  0.00    +0.306 HD
BRANCH  26  30
ATOM     30  N   UNL     1       9.970   5.873  23.771  0.00  0.00    +0.232 N 
ATOM     31  O   UNL     1      10.208   6.680  24.670  0.00  0.00    +0.084 OA
ATOM     32  O   UNL     1      10.447   4.739  23.654  0.00  0.00    -0.542 OA
ENDBRANCH  26  30
ENDBRANCH  22  23
ENDBRANCH  21  22
ENDBRANCH  20  21
ENDBRANCH   1  20
TORSDOF 9
ENDMDL
MODEL 5
REMARK VINA RESULT:      -6.4      1.738      2.522
REMARK  Name = 
REMARK  9 active torsions:
REMARK  status: ('A' for Active; 'I' for Inactive)
REMARK    1  A    between atoms: N_1  and  C_2
REMARK    2  A    between atoms: C_2  and  C_4
REMARK    3  A    between atoms: C_2  and  C_14
REMARK    4  A    between atoms: C_4  and  C_5
REMARK    5  A    between atoms: C_5  and  C_6
REMARK    6  A    between atoms: C_6  and  N_7
REMARK    7  A    between atoms: N_10  and  N_11
REMARK    8  A    between atoms: N_16  and  C_17
REMARK    9  A    between atoms: C_21  and  C_24
REMARK                            x       y       z     vdW  Elec       q    Type
REMARK                         _______ _______ _______ _____ _____    ______ ____
ROOT
ATOM      1  C   UNL     1       8.324  -3.460  23.811  0.00  0.00    +0.138 C 
ENDROOT
BRANCH   1   2
ATOM      2  C   UNL     1       9.305  -2.293  23.562  0.00  0.00    +0.230 C 
ATOM      3  N   UNL     1       8.706  -1.053  23.512  0.00  0.00    -0.310 N 
ATOM      4  H   UNL     1       7.716  -1.022  23.740  0.00  0.00    +0.149 HD
ATOM      5  O   UNL     1      10.515  -2.458  23.432  0.00  0.00    -0.274 OA
BRANCH   3   6
ATOM      6  C   UNL     1       9.466   0.150  23.235  0.00  0.00    +0.089 C 
ATOM      7  C   UNL     1       8.875   1.402  23.876  0.00  0.00    +0.051 C 
ATOM      8  C   UNL     1       9.134   2.530  22.874  0.00  0.00    +0.142 C 
ATOM      9  N   UNL     1       9.868   1.923  21.734  0.00  0.00    -0.304 NA
ATOM     10  H   UNL     1       9.571   2.358  20.861  0.00  0.00    +0.123 HD
ATOM     11  C   UNL     1       9.501   0.508  21.747  0.00  0.00    +0.104 C 
BRANCH   8  12
ATOM     12  C   UNL     1       9.948   3.676  23.498  0.00  0.00    +0.228 C 
ATOM     13  O   UNL     1       9.484   4.469  24.308  0.00  0.00    -0.274 OA
ATOM     14  N   UNL     1      11.243   3.757  23.080  0.00  0.00    -0.328 N 
ATOM     15  H   UNL     1      11.864   4.426  23.513  0.00  0.00    +0.145 HD
ATOM     16  H   UNL     1      11.618   2.975  22.550  0.00  0.00    +0.145 HD
ENDBRANCH   8  12
ENDBRANCH   3   6
ENDBRANCH   1   2
BRANCH   1  17
ATOM     17  N   UNL     1       9.052  -4.680  24.227  0.00  0.00    -0.320 NA
ATOM     18  H   UNL     1       8.902  -5.412  23.532  0.00  0.00    +0.119 HD
ATOM     19  H   UNL     1      10.054  -4.484  24.207  0.00  0.00    +0.119 HD
ENDBRANCH   1  17
BRANCH   1  20
ATOM     20  C   UNL     1       7.222  -3.060  24.806  0.00  0.00    +0.031 C 
BRANCH  20  21
ATOM     21  C   UNL     1       6.957  -4.081  25.921  0.00  0.00    +0.039 C 
BRANCH  21  22
ATOM     22  C   UNL     1       5.863  -5.064  25.501  0.00  0.00    +0.196 C 
BRANCH  22  23
ATOM     23  N   UNL     1       5.952  -5.340  24.084  0.00  0.00    -0.272 N 
ATOM     24  H   UNL     1       6.725  -4.884  23.595  0.00  0.00    +0.258 HD
ATOM     25  C   UNL     1       5.312  -6.324  23.404  0.00  0.00    +0.440 C 
ATOM     26  N   UNL     1       5.540  -6.513  22.084  0.00  0.00    +0.025 N 
ATOM     27  H   UNL     1       4.980  -7.244  21.680  0.00  0.00    +0.348 HD
ATOM     28  N   UNL     1       4.446  -7.119  23.951  0.00  0.00    -0.125 NA
ATOM     29  H   UNL     1       4.347  -6.889  24.942  0.00  0.00    +0.306 HD
BRANCH  26  30
ATOM     30  N   UNL     1       6.343  -5.793  21.299  0.00  0.00    +0.232 N 
ATOM     31  O   UNL     1       7.536  -5.891  21.588  0.00  0.00    +0.084 OA
ATOM     32  O   UNL     1       5.859  -5.103  20.394  0.00  0.00    -0.542 OA
ENDBRANCH  26  30
ENDBRANCH  22  23
ENDBRANCH  21  22
ENDBRANCH  20  21
ENDBRANCH   1  20
TORSDOF 9
ENDMDL
MODEL 6
REMARK VINA RESULT:      -6.3      3.077      4.600
REMARK  Name = 
REMARK  9 active torsions:
REMARK  status: ('A' for Active; 'I' for Inactive)
REMARK    1  A    between atoms: N_1  and  C_2
REMARK    2  A    between atoms: C_2  and  C_4
REMARK    3  A    between atoms: C_2  and  C_14
REMARK    4  A    between atoms: C_4  and  C_5
REMARK    5  A    between atoms: C_5  and  C_6
REMARK    6  A    between atoms: C_6  and  N_7
REMARK    7  A    between atoms: N_10  and  N_11
REMARK    8  A    between atoms: N_16  and  C_17
REMARK    9  A    between atoms: C_21  and  C_24
REMARK                            x       y       z     vdW  Elec       q    Type
REMARK                         _______ _______ _______ _____ _____    ______ ____
ROOT
ATOM      1  C   UNL     1       9.075  -2.889  24.460  0.00  0.00    +0.138 C 
ENDROOT
BRANCH   1   2
ATOM      2  C   UNL     1       9.880  -1.815  23.697  0.00  0.00    +0.230 C 
ATOM      3  N   UNL     1       9.643  -0.525  24.120  0.00  0.00    -0.310 N 
ATOM      4  H   UNL     1       9.052  -0.423  24.941  0.00  0.00    +0.149 HD
ATOM      5  O   UNL     1      10.671  -2.090  22.799  0.00  0.00    -0.274 OA
BRANCH   3   6
ATOM      6  C   UNL     1      10.271   0.614  23.481  0.00  0.00    +0.089 C 
ATOM      7  C   UNL     1      10.047   1.927  24.227  0.00  0.00    +0.051 C 
ATOM      8  C   UNL     1       9.918   2.994  23.136  0.00  0.00    +0.142 C 
ATOM      9  N   UNL     1      10.095   2.295  21.837  0.00  0.00    -0.304 NA
ATOM     10  H   UNL     1       9.485   2.711  21.134  0.00  0.00    +0.123 HD
ATOM     11  C   UNL     1       9.707   0.908  22.088  0.00  0.00    +0.104 C 
BRANCH   8  12
ATOM     12  C   UNL     1      10.963   4.110  23.301  0.00  0.00    +0.228 C 
ATOM     13  O   UNL     1      12.163   3.898  23.424  0.00  0.00    -0.274 OA
ATOM     14  N   UNL     1      10.458   5.377  23.306  0.00  0.00    -0.328 N 
ATOM     15  H   UNL     1      11.090   6.164  23.320  0.00  0.00    +0.145 HD
ATOM     16  H   UNL     1       9.489   5.499  23.025  0.00  0.00    +0.145 HD
ENDBRANCH   8  12
ENDBRANCH   3   6
ENDBRANCH   1   2
BRANCH   1  17
ATOM     17  N   UNL     1       9.827  -4.163  24.525  0.00  0.00    -0.320 NA
ATOM     18  H   UNL     1       9.945  -4.430  25.504  0.00  0.00    +0.119 HD
ATOM     19  H   UNL     1       9.257  -4.900  24.107  0.00  0.00    +0.119 HD
ENDBRANCH   1  17
BRANCH   1  20
ATOM     20  C   UNL     1       8.646  -2.384  25.848  0.00  0.00    +0.031 C 
BRANCH  20  21
ATOM     21  C   UNL     1       7.128  -2.336  26.077  0.00  0.00    +0.039 C 
BRANCH  21  22
ATOM     22  C   UNL     1       6.486  -3.673  25.702  0.00  0.00    +0.196 C 
BRANCH  22  23
ATOM     23  N   UNL     1       6.379  -4.523  26.867  0.00  0.00    -0.272 N 
ATOM     24  H   UNL     1       5.483  -4.487  27.357  0.00  0.00    +0.258 HD
ATOM     25  C   UNL     1       7.209  -5.539  27.213  0.00  0.00    +0.440 C 
ATOM     26  N   UNL     1       6.951  -6.302  28.301  0.00  0.00    +0.025 N 
ATOM     27  H   UNL     1       7.656  -6.997  28.480  0.00  0.00    +0.348 HD
ATOM     28  N   UNL     1       8.288  -5.830  26.557  0.00  0.00    -0.125 NA
ATOM     29  H   UNL     1       8.389  -5.196  25.763  0.00  0.00    +0.306 HD
BRANCH  26  30
ATOM     30  N   UNL     1       5.937  -6.161  29.156  0.00  0.00    +0.232 N 
ATOM     31  O   UNL     1       4.864  -6.584  28.723  0.00  0.00    +0.084 OA
ATOM     32  O   UNL     1       6.131  -5.632  30.256  0.00  0.00    -0.542 OA
ENDBRANCH  26  30
ENDBRANCH  22  23
ENDBRANCH  21  22
ENDBRANCH  20  21
ENDBRANCH   1  20
TORSDOF 9
ENDMDL
MODEL 7
REMARK VINA RESULT:      -6.3      2.627      4.201
REMARK  Name = 
REMARK  9 active torsions:
REMARK  status: ('A' for Active; 'I' for Inactive)
REMARK    1  A    between atoms: N_1  and  C_2
REMARK    2  A    between atoms: C_2  and  C_4
REMARK    3  A    between atoms: C_2  and  C_14
REMARK    4  A    between atoms: C_4  and  C_5
REMARK    5  A    between atoms: C_5  and  C_6
REMARK    6  A    between atoms: C_6  and  N_7
REMARK    7  A    between atoms: N_10  and  N_11
REMARK    8  A    between atoms: N_16  and  C_17
REMARK    9  A    between atoms: C_21  and  C_24
REMARK                            x       y       z     vdW  Elec       q    Type
REMARK                         _______ _______ _______ _____ _____    ______ ____
ROOT
ATOM      1  C   UNL     1       7.987  -5.237  25.404  0.00  0.00    +0.138 C 
ENDROOT
BRANCH   1   2
ATOM      2  C   UNL     1       8.988  -4.274  24.728  0.00  0.00    +0.230 C 
ATOM      3  N   UNL     1       8.417  -3.117  24.241  0.00  0.00    -0.310 N 
ATOM      4  H   UNL     1       7.435  -2.973  24.462  0.00  0.00    +0.149 HD
ATOM      5  O   UNL     1      10.188  -4.514  24.643  0.00  0.00    -0.274 OA
BRANCH   3   6
ATOM      6  C   UNL     1       9.196  -2.124  23.529  0.00  0.00    +0.089 C 
ATOM      7  C   UNL     1       8.858  -0.690  23.927  0.00  0.00    +0.051 C 
ATOM      8  C   UNL     1       8.989   0.128  22.639  0.00  0.00    +0.142 C 
ATOM      9  N   UNL     1       9.414  -0.821  21.577  0.00  0.00    -0.304 NA
ATOM     10  H   UNL     1       8.975  -0.567  20.692  0.00  0.00    +0.123 HD
ATOM     11  C   UNL     1       8.944  -2.132  22.019  0.00  0.00    +0.104 C 
BRANCH   8  12
ATOM     12  C   UNL     1      10.008   1.271  22.788  0.00  0.00    +0.228 C 
ATOM     13  O   UNL     1      10.690   1.440  23.791  0.00  0.00    -0.274 OA
ATOM     14  N   UNL     1      10.100   2.104  21.712  0.00  0.00    -0.328 N 
ATOM     15  H   UNL     1      10.810   2.823  21.699  0.00  0.00    +0.145 HD
ATOM     16  H   UNL     1       9.645   1.814  20.851  0.00  0.00    +0.145 HD
ENDBRANCH   8  12
ENDBRANCH   3   6
ENDBRANCH   1   2
BRANCH   1  17
ATOM     17  N   UNL     1       8.477  -5.653  26.737  0.00  0.00    -0.320 NA
ATOM     18  H   UNL     1       7.710  -6.082  27.256  0.00  0.00    +0.119 HD
ATOM     19  H   UNL     1       9.170  -6.394  26.613  0.00  0.00    +0.119 HD
ENDBRANCH   1  17
BRANCH   1  20
ATOM     20  C   UNL     1       6.576  -4.629  25.456  0.00  0.00    +0.031 C 
BRANCH  20  21
ATOM     21  C   UNL     1       5.533  -5.342  24.584  0.00  0.00    +0.039 C 
BRANCH  21  22
ATOM     22  C   UNL     1       4.985  -6.576  25.301  0.00  0.00    +0.196 C 
BRANCH  22  23
ATOM     23  N   UNL     1       5.284  -6.510  26.715  0.00  0.00    -0.272 N 
ATOM     24  H   UNL     1       6.150  -6.026  26.959  0.00  0.00    +0.258 HD
ATOM     25  C   UNL     1       4.434  -6.768  27.740  0.00  0.00    +0.440 C 
ATOM     26  N   UNL     1       4.829  -6.601  29.023  0.00  0.00    +0.025 N 
ATOM     27  H   UNL     1       4.127  -6.860  29.696  0.00  0.00    +0.348 HD
ATOM     28  N   UNL     1       3.224  -7.200  27.569  0.00  0.00    -0.125 NA
ATOM     29  H   UNL     1       3.031  -7.294  26.570  0.00  0.00    +0.306 HD
BRANCH  26  30
ATOM     30  N   UNL     1       6.034  -6.219  29.448  0.00  0.00    +0.232 N 
ATOM     31  O   UNL     1       6.002  -5.293  30.260  0.00  0.00    +0.084 OA
ATOM     32  O   UNL     1       7.045  -6.779  29.009  0.00  0.00    -0.542 OA
ENDBRANCH  26  30
ENDBRANCH  22  23
ENDBRANCH  21  22
ENDBRANCH  20  21
ENDBRANCH   1  20
TORSDOF 9
ENDMDL
MODEL 8
REMARK VINA RESULT:      -6.3      1.730      3.406
REMARK  Name = 
REMARK  9 active torsions:
REMARK  status: ('A' for Active; 'I' for Inactive)
REMARK    1  A    between atoms: N_1  and  C_2
REMARK    2  A    between atoms: C_2  and  C_4
REMARK    3  A    between atoms: C_2  and  C_14
REMARK    4  A    between atoms: C_4  and  C_5
REMARK    5  A    between atoms: C_5  and  C_6
REMARK    6  A    between atoms: C_6  and  N_7
REMARK    7  A    between atoms: N_10  and  N_11
REMARK    8  A    between atoms: N_16  and  C_17
REMARK    9  A    between atoms: C_21  and  C_24
REMARK                            x       y       z     vdW  Elec       q    Type
REMARK                         _______ _______ _______ _____ _____    ______ ____
ROOT
ATOM      1  C   UNL     1       5.103  -3.661  23.421  0.00  0.00    +0.138 C 
ENDROOT
BRANCH   1   2
ATOM      2  C   UNL     1       6.263  -2.691  23.738  0.00  0.00    +0.230 C 
ATOM      3  N   UNL     1       6.857  -2.139  22.624  0.00  0.00    -0.310 N 
ATOM      4  H   UNL     1       6.416  -2.343  21.731  0.00  0.00    +0.149 HD
ATOM      5  O   UNL     1       6.615  -2.428  24.884  0.00  0.00    -0.274 OA
BRANCH   3   6
ATOM      6  C   UNL     1       7.995  -1.248  22.730  0.00  0.00    +0.089 C 
ATOM      7  C   UNL     1       7.664   0.202  22.388  0.00  0.00    +0.051 C 
ATOM      8  C   UNL     1       8.911   0.747  21.687  0.00  0.00    +0.142 C 
ATOM      9  N   UNL     1       9.905  -0.358  21.672  0.00  0.00    -0.304 NA
ATOM     10  H   UNL     1      10.438  -0.330  20.803  0.00  0.00    +0.123 HD
ATOM     11  C   UNL     1       9.117  -1.587  21.745  0.00  0.00    +0.104 C 
BRANCH   8  12
ATOM     12  C   UNL     1       9.480   1.981  22.408  0.00  0.00    +0.228 C 
ATOM     13  O   UNL     1       8.964   2.479  23.401  0.00  0.00    -0.274 OA
ATOM     14  N   UNL     1      10.615   2.498  21.857  0.00  0.00    -0.328 N 
ATOM     15  H   UNL     1      11.096   3.253  22.326  0.00  0.00    +0.145 HD
ATOM     16  H   UNL     1      11.091   1.945  21.150  0.00  0.00    +0.145 HD
ENDBRANCH   8  12
ENDBRANCH   3   6
ENDBRANCH   1   2
BRANCH   1  17
ATOM     17  N   UNL     1       5.613  -4.906  22.803  0.00  0.00    -0.320 NA
ATOM     18  H   UNL     1       5.767  -5.602  23.534  0.00  0.00    +0.119 HD
ATOM     19  H   UNL     1       4.884  -5.295  22.203  0.00  0.00    +0.119 HD
ENDBRANCH   1  17
BRANCH   1  20
ATOM     20  C   UNL     1       4.243  -3.929  24.667  0.00  0.00    +0.031 C 
BRANCH  20  21
ATOM     21  C   UNL     1       4.128  -5.406  25.067  0.00  0.00    +0.039 C 
BRANCH  21  22
ATOM     22  C   UNL     1       5.125  -5.741  26.178  0.00  0.00    +0.196 C 
BRANCH  22  23
ATOM     23  N   UNL     1       6.478  -5.505  25.727  0.00  0.00    -0.272 N 
ATOM     24  H   UNL     1       6.565  -5.060  24.811  0.00  0.00    +0.258 HD
ATOM     25  C   UNL     1       7.607  -5.554  26.478  0.00  0.00    +0.440 C 
ATOM     26  N   UNL     1       8.809  -5.244  25.939  0.00  0.00    +0.025 N 
ATOM     27  H   UNL     1       9.577  -5.354  26.580  0.00  0.00    +0.348 HD
ATOM     28  N   UNL     1       7.618  -5.911  27.724  0.00  0.00    -0.125 NA
ATOM     29  H   UNL     1       6.666  -6.126  28.027  0.00  0.00    +0.306 HD
BRANCH  26  30
ATOM     30  N   UNL     1       9.056  -4.901  24.674  0.00  0.00    +0.232 N 
ATOM     31  O   UNL     1       9.869  -3.983  24.560  0.00  0.00    +0.084 OA
ATOM     32  O   UNL     1       8.471  -5.486  23.755  0.00  0.00    -0.542 OA
ENDBRANCH  26  30
ENDBRANCH  22  23
ENDBRANCH  21  22
ENDBRANCH  20  21
ENDBRANCH   1  20
TORSDOF 9
ENDMDL
MODEL 9
REMARK VINA RESULT:      -6.3      2.739      7.081
REMARK  Name = 
REMARK  9 active torsions:
REMARK  status: ('A' for Active; 'I' for Inactive)
REMARK    1  A    between atoms: N_1  and  C_2
REMARK    2  A    between atoms: C_2  and  C_4
REMARK    3  A    between atoms: C_2  and  C_14
REMARK    4  A    between atoms: C_4  and  C_5
REMARK    5  A    between atoms: C_5  and  C_6
REMARK    6  A    between atoms: C_6  and  N_7
REMARK    7  A    between atoms: N_10  and  N_11
REMARK    8  A    between atoms: N_16  and  C_17
REMARK    9  A    between atoms: C_21  and  C_24
REMARK                            x       y       z     vdW  Elec       q    Type
REMARK                         _______ _______ _______ _____ _____    ______ ____
ROOT
ATOM      1  C   UNL     1       7.564  -2.525  22.366  0.00  0.00    +0.138 C 
ENDROOT
BRANCH   1   2
ATOM      2  C   UNL     1       7.412  -3.865  23.118  0.00  0.00    +0.230 C 
ATOM      3  N   UNL     1       7.268  -3.734  24.482  0.00  0.00    -0.310 N 
ATOM      4  H   UNL     1       7.177  -2.784  24.835  0.00  0.00    +0.149 HD
ATOM      5  O   UNL     1       7.408  -4.952  22.546  0.00  0.00    -0.274 OA
BRANCH   3   6
ATOM      6  C   UNL     1       7.166  -4.888  25.353  0.00  0.00    +0.089 C 
ATOM      7  C   UNL     1       5.864  -4.935  26.147  0.00  0.00    +0.051 C 
ATOM      8  C   UNL     1       6.241  -5.529  27.506  0.00  0.00    +0.142 C 
ATOM      9  N   UNL     1       7.696  -5.826  27.450  0.00  0.00    -0.304 NA
ATOM     10  H   UNL     1       8.121  -5.645  28.359  0.00  0.00    +0.123 HD
ATOM     11  C   UNL     1       8.238  -4.912  26.446  0.00  0.00    +0.104 C 
BRANCH   8  12
ATOM     12  C   UNL     1       5.438  -6.804  27.818  0.00  0.00    +0.228 C 
ATOM     13  O   UNL     1       5.625  -7.493  28.813  0.00  0.00    -0.274 OA
ATOM     14  N   UNL     1       4.488  -7.126  26.894  0.00  0.00    -0.328 N 
ATOM     15  H   UNL     1       3.861  -7.897  27.074  0.00  0.00    +0.145 HD
ATOM     16  H   UNL     1       4.259  -6.430  26.190  0.00  0.00    +0.145 HD
ENDBRANCH   8  12
ENDBRANCH   3   6
ENDBRANCH   1   2
BRANCH   1  17
ATOM     17  N   UNL     1       6.644  -1.505  22.917  0.00  0.00    -0.320 NA
ATOM     18  H   UNL     1       6.055  -1.937  23.631  0.00  0.00    +0.119 HD
ATOM     19  H   UNL     1       7.195  -0.799  23.409  0.00  0.00    +0.119 HD
ENDBRANCH   1  17
BRANCH   1  20
ATOM     20  C   UNL     1       9.028  -2.056  22.352  0.00  0.00    +0.031 C 
BRANCH  20  21
ATOM     21  C   UNL     1       9.293  -0.791  21.523  0.00  0.00    +0.039 C 
BRANCH  21  22
ATOM     22  C   UNL     1       9.733   0.362  22.426  0.00  0.00    +0.196 C 
BRANCH  22  23
ATOM     23  N   UNL     1       9.241   0.163  23.771  0.00  0.00    -0.272 N 
ATOM     24  H   UNL     1       9.233  -0.806  24.098  0.00  0.00    +0.258 HD
ATOM     25  C   UNL     1       9.052   1.115  24.718  0.00  0.00    +0.440 C 
ATOM     26  N   UNL     1       8.647   0.779  25.965  0.00  0.00    +0.025 N 
ATOM     27  H   UNL     1       8.504   1.571  26.568  0.00  0.00    +0.348 HD
ATOM     28  N   UNL     1       9.223   2.381  24.498  0.00  0.00    -0.125 NA
ATOM     29  H   UNL     1       9.522   2.524  23.532  0.00  0.00    +0.306 HD
BRANCH  26  30
ATOM     30  N   UNL     1       8.359  -0.445  26.411  0.00  0.00    +0.232 N 
ATOM     31  O   UNL     1       9.013  -0.777  27.401  0.00  0.00    +0.084 OA
ATOM     32  O   UNL     1       7.514  -1.129  25.823  0.00  0.00    -0.542 OA
ENDBRANCH  26  30
ENDBRANCH  22  23
ENDBRANCH  21  22
ENDBRANCH  20  21
ENDBRANCH   1  20
TORSDOF 9
ENDMDL
