MODEL 1
REMARK VINA RESULT:      -6.3      0.000      0.000
REMARK  Name = 
REMARK  2 active torsions:
REMARK  status: ('A' for Active; 'I' for Inactive)
REMARK    1  A    between atoms: N_1  and  S_2
REMARK    2  A    between atoms: S_2  and  C_5
REMARK                            x       y       z     vdW  Elec       q    Type
REMARK                         _______ _______ _______ _____ _____    ______ ____
ROOT
ATOM      1  C   UNL     1       8.564  -3.257  24.489  0.00  0.00    +0.125 A 
ATOM      2  C   UNL     1       9.043  -2.000  24.879  0.00  0.00    +0.061 A 
ATOM      3  C   UNL     1       9.154  -0.985  23.919  0.00  0.00    +0.135 A 
ATOM      4  C   UNL     1       8.802  -1.183  22.588  0.00  0.00    +0.061 A 
ATOM      5  N   UNL     1       8.930  -0.166  21.646  0.00  0.00    -0.303 N 
ATOM      6  H   UNL     1       8.680  -0.368  20.684  0.00  0.00    +0.153 HD
ATOM      7  C   UNL     1       9.429   1.065  21.959  0.00  0.00    +0.209 C 
ATOM      8  N   UNL     1       9.835   1.534  23.081  0.00  0.00    -0.121 NA
ATOM      9  C   UNL     1       8.311  -2.441  22.221  0.00  0.00    +0.047 A 
ATOM     10  S   UNL     1       9.786   0.598  24.398  0.00  0.00    +0.102 S 
ATOM     11  O   UNL     1       8.797   1.134  25.314  0.00  0.00    -0.146 OA
ATOM     12  O   UNL     1      11.144   0.346  24.839  0.00  0.00    -0.146 OA
ATOM     13  C   UNL     1       8.193  -3.479  23.160  0.00  0.00    +0.069 A 
ATOM     14 CL   UNL     1       7.578  -4.980  22.564  0.00  0.00    -0.081 Cl
ENDROOT
BRANCH   1  15
ATOM     15  S   UNL     1       8.511  -4.552  25.688  0.00  0.00    +0.057 S 
ATOM     16  O   UNL     1       8.907  -4.018  26.968  0.00  0.00    -0.153 OA
ATOM     17  O   UNL     1       7.284  -5.297  25.513  0.00  0.00    -0.153 OA
BRANCH  15  18
ATOM     18  N   UNL     1       9.726  -5.595  25.185  0.00  0.00    -0.203 NA
ATOM     19  H   UNL     1      10.617  -5.098  25.143  0.00  0.00    +0.144 HD
ATOM     20  H   UNL     1       9.745  -6.417  25.792  0.00  0.00    +0.144 HD
ENDBRANCH  15  18
ENDBRANCH   1  15
TORSDOF 2
ENDMDL
MODEL 2
REMARK VINA RESULT:      -6.3      2.746      3.284
REMARK  Name = 
REMARK  2 active torsions:
REMARK  status: ('A' for Active; 'I' for Inactive)
REMARK    1  A    between atoms: N_1  and  S_2
REMARK    2  A    between atoms: S_2  and  C_5
REMARK                            x       y       z     vdW  Elec       q    Type
REMARK                         _______ _______ _______ _____ _____    ______ ____
ROOT
ATOM      1  C   UNL     1       7.740  -3.431  22.958  0.00  0.00    +0.125 A 
ATOM      2  C   UNL     1       7.738  -2.131  22.437  0.00  0.00    +0.061 A 
ATOM      3  C   UNL     1       8.582  -1.167  23.006  0.00  0.00    +0.135 A 
ATOM      4  C   UNL     1       9.423  -1.459  24.075  0.00  0.00    +0.061 A 
ATOM      5  N   UNL     1      10.245  -0.485  24.635  0.00  0.00    -0.303 N 
ATOM      6  H   UNL     1      10.825  -0.744  25.426  0.00  0.00    +0.153 HD
ATOM      7  C   UNL     1      10.256   0.807  24.196  0.00  0.00    +0.209 C 
ATOM      8  N   UNL     1       9.598   1.366  23.249  0.00  0.00    -0.121 NA
ATOM      9  C   UNL     1       9.421  -2.767  24.571  0.00  0.00    +0.047 A 
ATOM     10  S   UNL     1       8.564   0.485  22.371  0.00  0.00    +0.102 S 
ATOM     11  O   UNL     1       9.079   0.373  21.020  0.00  0.00    -0.146 OA
ATOM     12  O   UNL     1       7.220   0.970  22.614  0.00  0.00    -0.146 OA
ATOM     13  C   UNL     1       8.584  -3.753  24.024  0.00  0.00    +0.069 A 
ATOM     14 CL   UNL     1       8.683  -5.321  24.742  0.00  0.00    -0.081 Cl
ENDROOT
BRANCH   1  15
ATOM     15  S   UNL     1       6.611  -4.612  22.289  0.00  0.00    +0.057 S 
ATOM     16  O   UNL     1       7.353  -5.590  21.532  0.00  0.00    -0.153 OA
ATOM     17  O   UNL     1       5.671  -4.993  23.320  0.00  0.00    -0.153 OA
BRANCH  15  18
ATOM     18  N   UNL     1       5.711  -3.713  21.194  0.00  0.00    -0.203 NA
ATOM     19  H   UNL     1       6.325  -3.088  20.668  0.00  0.00    +0.144 HD
ATOM     20  H   UNL     1       5.163  -4.340  20.603  0.00  0.00    +0.144 HD
ENDBRANCH  15  18
ENDBRANCH   1  15
TORSDOF 2
ENDMDL
MODEL 3
REMARK VINA RESULT:      -6.1      3.677      5.886
REMARK  Name = 
REMARK  2 active torsions:
REMARK  status: ('A' for Active; 'I' for Inactive)
REMARK    1  A    between atoms: N_1  and  S_2
REMARK    2  A    between atoms: S_2  and  C_5
REMARK                            x       y       z     vdW  Elec       q    Type
REMARK                         _______ _______ _______ _____ _____    ______ ____
ROOT
ATOM      1  C   UNL     1       7.872  -1.456  22.979  0.00  0.00    +0.125 A 
ATOM      2  C   UNL     1       7.601  -2.655  22.307  0.00  0.00    +0.061 A 
ATOM      3  C   UNL     1       6.447  -3.377  22.640  0.00  0.00    +0.135 A 
ATOM      4  C   UNL     1       5.557  -2.942  23.616  0.00  0.00    +0.061 A 
ATOM      5  N   UNL     1       4.422  -3.678  23.940  0.00  0.00    -0.303 N 
ATOM      6  H   UNL     1       3.816  -3.328  24.675  0.00  0.00    +0.153 HD
ATOM      7  C   UNL     1       4.128  -4.872  23.350  0.00  0.00    +0.209 C 
ATOM      8  N   UNL     1       4.751  -5.520  22.435  0.00  0.00    -0.121 NA
ATOM      9  C   UNL     1       5.837  -1.734  24.265  0.00  0.00    +0.047 A 
ATOM     10  S   UNL     1       6.113  -4.907  21.815  0.00  0.00    +0.102 S 
ATOM     11  O   UNL     1       5.871  -4.543  20.432  0.00  0.00    -0.146 OA
ATOM     12  O   UNL     1       7.216  -5.778  22.170  0.00  0.00    -0.146 OA
ATOM     13  C   UNL     1       6.988  -0.991  23.957  0.00  0.00    +0.069 A 
ATOM     14 CL   UNL     1       7.208   0.476  24.843  0.00  0.00    -0.081 Cl
ENDROOT
BRANCH   1  15
ATOM     15  S   UNL     1       9.372  -0.601  22.613  0.00  0.00    +0.057 S 
ATOM     16  O   UNL     1       9.053   0.634  21.942  0.00  0.00    -0.153 OA
ATOM     17  O   UNL     1      10.227  -0.642  23.780  0.00  0.00    -0.153 OA
BRANCH  15  18
ATOM     18  N   UNL     1      10.124  -1.599  21.492  0.00  0.00    -0.203 NA
ATOM     19  H   UNL     1      11.031  -1.905  21.850  0.00  0.00    +0.144 HD
ATOM     20  H   UNL     1       9.501  -2.370  21.246  0.00  0.00    +0.144 HD
ENDBRANCH  15  18
ENDBRANCH   1  15
TORSDOF 2
ENDMDL
MODEL 4
REMARK VINA RESULT:      -6.0      5.014      5.829
REMARK  Name = 
REMARK  2 active torsions:
REMARK  status: ('A' for Active; 'I' for Inactive)
REMARK    1  A    between atoms: N_1  and  S_2
REMARK    2  A    between atoms: S_2  and  C_5
REMARK                            x       y       z     vdW  Elec       q    Type
REMARK                         _______ _______ _______ _____ _____    ______ ____
ROOT
ATOM      1  C   UNL     1       5.163  -5.951  26.396  0.00  0.00    +0.125 A 
ATOM      2  C   UNL     1       6.212  -5.397  25.652  0.00  0.00    +0.061 A 
ATOM      3  C   UNL     1       6.185  -5.500  24.255  0.00  0.00    +0.135 A 
ATOM      4  C   UNL     1       5.149  -6.135  23.579  0.00  0.00    +0.061 A 
ATOM      5  N   UNL     1       5.146  -6.238  22.191  0.00  0.00    -0.303 N 
ATOM      6  H   UNL     1       4.377  -6.730  21.748  0.00  0.00    +0.153 HD
ATOM      7  C   UNL     1       6.160  -5.754  21.417  0.00  0.00    +0.209 C 
ATOM      8  N   UNL     1       7.232  -5.135  21.748  0.00  0.00    -0.121 NA
ATOM      9  C   UNL     1       4.103  -6.669  24.339  0.00  0.00    +0.047 A 
ATOM     10  S   UNL     1       7.522  -4.826  23.309  0.00  0.00    +0.102 S 
ATOM     11  O   UNL     1       7.448  -3.394  23.523  0.00  0.00    -0.146 OA
ATOM     12  O   UNL     1       8.692  -5.577  23.720  0.00  0.00    -0.146 OA
ATOM     13  C   UNL     1       4.104  -6.585  25.741  0.00  0.00    +0.069 A 
ATOM     14 CL   UNL     1       2.751  -7.294  26.548  0.00  0.00    -0.081 Cl
ENDROOT
BRANCH   1  15
ATOM     15  S   UNL     1       5.251  -5.891  28.158  0.00  0.00    +0.057 S 
ATOM     16  O   UNL     1       6.481  -5.244  28.542  0.00  0.00    -0.153 OA
ATOM     17  O   UNL     1       3.968  -5.466  28.674  0.00  0.00    -0.153 OA
BRANCH  15  18
ATOM     18  N   UNL     1       5.379  -7.506  28.596  0.00  0.00    -0.203 NA
ATOM     19  H   UNL     1       5.286  -7.602  29.609  0.00  0.00    +0.144 HD
ATOM     20  H   UNL     1       4.700  -8.060  28.070  0.00  0.00    +0.144 HD
ENDBRANCH  15  18
ENDBRANCH   1  15
TORSDOF 2
ENDMDL
MODEL 5
REMARK VINA RESULT:      -6.0      3.030      5.791
REMARK  Name = 
REMARK  2 active torsions:
REMARK  status: ('A' for Active; 'I' for Inactive)
REMARK    1  A    between atoms: N_1  and  S_2
REMARK    2  A    between atoms: S_2  and  C_5
REMARK                            x       y       z     vdW  Elec       q    Type
REMARK                         _______ _______ _______ _____ _____    ______ ____
ROOT
ATOM      1  C   UNL     1       8.259  -0.024  23.112  0.00  0.00    +0.125 A 
ATOM      2  C   UNL     1       7.143  -0.855  22.952  0.00  0.00    +0.061 A 
ATOM      3  C   UNL     1       7.263  -2.220  23.242  0.00  0.00    +0.135 A 
ATOM      4  C   UNL     1       8.456  -2.781  23.685  0.00  0.00    +0.061 A 
ATOM      5  N   UNL     1       8.559  -4.142  23.957  0.00  0.00    -0.303 N 
ATOM      6  H   UNL     1       9.458  -4.505  24.257  0.00  0.00    +0.153 HD
ATOM      7  C   UNL     1       7.518  -5.007  23.781  0.00  0.00    +0.209 C 
ATOM      8  N   UNL     1       6.318  -4.789  23.386  0.00  0.00    -0.121 NA
ATOM      9  C   UNL     1       9.555  -1.932  23.852  0.00  0.00    +0.047 A 
ATOM     10  S   UNL     1       5.864  -3.282  23.016  0.00  0.00    +0.102 S 
ATOM     11  O   UNL     1       4.892  -2.834  23.995  0.00  0.00    -0.146 OA
ATOM     12  O   UNL     1       5.569  -3.222  21.598  0.00  0.00    -0.146 OA
ATOM     13  C   UNL     1       9.467  -0.560  23.565  0.00  0.00    +0.069 A 
ATOM     14 CL   UNL     1      10.905   0.365  23.812  0.00  0.00    -0.081 Cl
ENDROOT
BRANCH   1  15
ATOM     15  S   UNL     1       8.119   1.677  22.660  0.00  0.00    +0.057 S 
ATOM     16  O   UNL     1       6.810   1.905  22.099  0.00  0.00    -0.153 OA
ATOM     17  O   UNL     1       8.644   2.489  23.737  0.00  0.00    -0.153 OA
BRANCH  15  18
ATOM     18  N   UNL     1       9.231   1.841  21.414  0.00  0.00    -0.203 NA
ATOM     19  H   UNL     1       8.786   2.275  20.603  0.00  0.00    +0.144 HD
ATOM     20  H   UNL     1      10.051   2.350  21.750  0.00  0.00    +0.144 HD
ENDBRANCH  15  18
ENDBRANCH   1  15
TORSDOF 2
ENDMDL
MODEL 6
REMARK VINA RESULT:      -6.0      2.661      5.697
REMARK  Name = 
REMARK  2 active torsions:
REMARK  status: ('A' for Active; 'I' for Inactive)
REMARK    1  A    between atoms: N_1  and  S_2
REMARK    2  A    between atoms: S_2  and  C_5
REMARK                            x       y       z     vdW  Elec       q    Type
REMARK                         _______ _______ _______ _____ _____    ______ ____
ROOT
ATOM      1  C   UNL     1       8.751  -1.172  23.919  0.00  0.00    +0.125 A 
ATOM      2  C   UNL     1       8.757  -2.569  23.825  0.00  0.00    +0.061 A 
ATOM      3  C   UNL     1       8.189  -3.323  24.861  0.00  0.00    +0.135 A 
ATOM      4  C   UNL     1       7.618  -2.730  25.982  0.00  0.00    +0.061 A 
ATOM      5  N   UNL     1       7.069  -3.497  27.006  0.00  0.00    -0.303 N 
ATOM      6  H   UNL     1       6.684  -3.015  27.812  0.00  0.00    +0.153 HD
ATOM      7  C   UNL     1       7.082  -4.861  26.990  0.00  0.00    +0.209 C 
ATOM      8  N   UNL     1       7.535  -5.674  26.109  0.00  0.00    -0.121 NA
ATOM      9  C   UNL     1       7.609  -1.333  26.050  0.00  0.00    +0.047 A 
ATOM     10  S   UNL     1       8.217  -5.091  24.763  0.00  0.00    +0.102 S 
ATOM     11  O   UNL     1       7.369  -5.417  23.632  0.00  0.00    -0.146 OA
ATOM     12  O   UNL     1       9.622  -5.448  24.764  0.00  0.00    -0.146 OA
ATOM     13  C   UNL     1       8.174  -0.550  25.029  0.00  0.00    +0.069 A 
ATOM     14 CL   UNL     1       8.097   1.162  25.250  0.00  0.00    -0.081 Cl
ENDROOT
BRANCH   1  15
ATOM     15  S   UNL     1       9.546  -0.236  22.650  0.00  0.00    +0.057 S 
ATOM     16  O   UNL     1       8.546   0.496  21.914  0.00  0.00    -0.153 OA
ATOM     17  O   UNL     1      10.713   0.411  23.211  0.00  0.00    -0.153 OA
BRANCH  15  18
ATOM     18  N   UNL     1      10.158  -1.414  21.624  0.00  0.00    -0.203 NA
ATOM     19  H   UNL     1       9.846  -1.240  20.667  0.00  0.00    +0.144 HD
ATOM     20  H   UNL     1      11.174  -1.459  21.719  0.00  0.00    +0.144 HD
ENDBRANCH  15  18
ENDBRANCH   1  15
TORSDOF 2
ENDMDL
MODEL 7
REMARK VINA RESULT:      -5.9      2.414      5.244
REMARK  Name = 
REMARK  2 active torsions:
REMARK  status: ('A' for Active; 'I' for Inactive)
REMARK    1  A    between atoms: N_1  and  S_2
REMARK    2  A    between atoms: S_2  and  C_5
REMARK                            x       y       z     vdW  Elec       q    Type
REMARK                         _______ _______ _______ _____ _____    ______ ____
ROOT
ATOM      1  C   UNL     1       8.721  -0.268  23.897  0.00  0.00    +0.125 A 
ATOM      2  C   UNL     1       9.121  -1.450  24.533  0.00  0.00    +0.061 A 
ATOM      3  C   UNL     1       8.301  -2.583  24.443  0.00  0.00    +0.135 A 
ATOM      4  C   UNL     1       7.101  -2.574  23.741  0.00  0.00    +0.061 A 
ATOM      5  N   UNL     1       6.295  -3.707  23.672  0.00  0.00    -0.303 N 
ATOM      6  H   UNL     1       5.418  -3.642  23.165  0.00  0.00    +0.153 HD
ATOM      7  C   UNL     1       6.612  -4.873  24.305  0.00  0.00    +0.209 C 
ATOM      8  N   UNL     1       7.632  -5.177  25.019  0.00  0.00    -0.121 NA
ATOM      9  C   UNL     1       6.726  -1.388  23.100  0.00  0.00    +0.047 A 
ATOM     10  S   UNL     1       8.787  -4.073  25.268  0.00  0.00    +0.102 S 
ATOM     11  O   UNL     1       9.995  -4.501  24.589  0.00  0.00    -0.146 OA
ATOM     12  O   UNL     1       8.809  -3.735  26.678  0.00  0.00    -0.146 OA
ATOM     13  C   UNL     1       7.525  -0.235  23.176  0.00  0.00    +0.069 A 
ATOM     14 CL   UNL     1       6.934   1.157  22.341  0.00  0.00    -0.081 Cl
ENDROOT
BRANCH   1  15
ATOM     15  S   UNL     1       9.718   1.176  24.091  0.00  0.00    +0.057 S 
ATOM     16  O   UNL     1      10.292   1.522  22.813  0.00  0.00    -0.153 OA
ATOM     17  O   UNL     1       8.993   2.138  24.891  0.00  0.00    -0.153 OA
BRANCH  15  18
ATOM     18  N   UNL     1      10.973   0.653  25.076  0.00  0.00    -0.203 NA
ATOM     19  H   UNL     1      11.770   1.286  24.991  0.00  0.00    +0.144 HD
ATOM     20  H   UNL     1      10.636   0.547  26.034  0.00  0.00    +0.144 HD
ENDBRANCH  15  18
ENDBRANCH   1  15
TORSDOF 2
ENDMDL
MODEL 8
REMARK VINA RESULT:      -5.9      3.417      4.608
REMARK  Name = 
REMARK  2 active torsions:
REMARK  status: ('A' for Active; 'I' for Inactive)
REMARK    1  A    between atoms: N_1  and  S_2
REMARK    2  A    between atoms: S_2  and  C_5
REMARK                            x       y       z     vdW  Elec       q    Type
REMARK                         _______ _______ _______ _____ _____    ______ ____
ROOT
ATOM      1  C   UNL     1       4.995  -5.502  24.942  0.00  0.00    +0.125 A 
ATOM      2  C   UNL     1       6.337  -5.314  25.295  0.00  0.00    +0.061 A 
ATOM      3  C   UNL     1       7.122  -4.429  24.544  0.00  0.00    +0.135 A 
ATOM      4  C   UNL     1       6.612  -3.727  23.456  0.00  0.00    +0.061 A 
ATOM      5  N   UNL     1       7.410  -2.861  22.715  0.00  0.00    -0.303 N 
ATOM      6  H   UNL     1       6.995  -2.389  21.919  0.00  0.00    +0.153 HD
ATOM      7  C   UNL     1       8.734  -2.669  22.986  0.00  0.00    +0.209 C 
ATOM      8  N   UNL     1       9.472  -3.172  23.905  0.00  0.00    -0.121 NA
ATOM      9  C   UNL     1       5.265  -3.917  23.129  0.00  0.00    +0.047 A 
ATOM     10  S   UNL     1       8.827  -4.208  24.966  0.00  0.00    +0.102 S 
ATOM     11  O   UNL     1       8.811  -3.584  26.276  0.00  0.00    -0.146 OA
ATOM     12  O   UNL     1       9.437  -5.509  24.773  0.00  0.00    -0.146 OA
ATOM     13  C   UNL     1       4.455  -4.801  23.861  0.00  0.00    +0.069 A 
ATOM     14 CL   UNL     1       2.813  -4.939  23.339  0.00  0.00    -0.081 Cl
ENDROOT
BRANCH   1  15
ATOM     15  S   UNL     1       4.041  -6.684  25.841  0.00  0.00    +0.057 S 
ATOM     16  O   UNL     1       2.944  -6.005  26.485  0.00  0.00    -0.153 OA
ATOM     17  O   UNL     1       3.839  -7.849  25.008  0.00  0.00    -0.153 OA
BRANCH  15  18
ATOM     18  N   UNL     1       5.090  -7.192  27.049  0.00  0.00    -0.203 NA
ATOM     19  H   UNL     1       4.948  -6.634  27.893  0.00  0.00    +0.144 HD
ATOM     20  H   UNL     1       4.980  -8.197  27.200  0.00  0.00    +0.144 HD
ENDBRANCH  15  18
ENDBRANCH   1  15
TORSDOF 2
ENDMDL
MODEL 9
REMARK VINA RESULT:      -5.9      2.381      5.100
REMARK  Name = 
REMARK  2 active torsions:
REMARK  status: ('A' for Active; 'I' for Inactive)
REMARK    1  A    between atoms: N_1  and  S_2
REMARK    2  A    between atoms: S_2  and  C_5
REMARK                            x       y       z     vdW  Elec       q    Type
REMARK                         _______ _______ _______ _____ _____    ______ ____
ROOT
ATOM      1  C   UNL     1       8.925  -1.104  24.167  0.00  0.00    +0.125 A 
ATOM      2  C   UNL     1       8.310  -2.152  24.864  0.00  0.00    +0.061 A 
ATOM      3  C   UNL     1       7.738  -3.207  24.141  0.00  0.00    +0.135 A 
ATOM      4  C   UNL     1       7.760  -3.250  22.751  0.00  0.00    +0.061 A 
ATOM      5  N   UNL     1       7.175  -4.302  22.051  0.00  0.00    -0.303 N 
ATOM      6  H   UNL     1       7.200  -4.275  21.037  0.00  0.00    +0.153 HD
ATOM      7  C   UNL     1       6.528  -5.328  22.673  0.00  0.00    +0.209 C 
ATOM      8  N   UNL     1       6.342  -5.556  23.921  0.00  0.00    -0.121 NA
ATOM      9  C   UNL     1       8.391  -2.201  22.074  0.00  0.00    +0.047 A 
ATOM     10  S   UNL     1       6.934  -4.522  25.014  0.00  0.00    +0.102 S 
ATOM     11  O   UNL     1       7.993  -5.182  25.754  0.00  0.00    -0.146 OA
ATOM     12  O   UNL     1       5.826  -3.894  25.707  0.00  0.00    -0.146 OA
ATOM     13  C   UNL     1       8.970  -1.128  22.771  0.00  0.00    +0.069 A 
ATOM     14 CL   UNL     1       9.709   0.098  21.804  0.00  0.00    -0.081 Cl
ENDROOT
BRANCH   1  15
ATOM     15  S   UNL     1       9.565   0.262  25.085  0.00  0.00    +0.057 S 
ATOM     16  O   UNL     1      10.995   0.317  24.903  0.00  0.00    -0.153 OA
ATOM     17  O   UNL     1       8.718   1.412  24.859  0.00  0.00    -0.153 OA
BRANCH  15  18
ATOM     18  N   UNL     1       9.282  -0.176  26.681  0.00  0.00    -0.203 NA
ATOM     19  H   UNL     1       9.617   0.557  27.308  0.00  0.00    +0.144 HD
ATOM     20  H   UNL     1       8.293  -0.399  26.806  0.00  0.00    +0.144 HD
ENDBRANCH  15  18
ENDBRANCH   1  15
TORSDOF 2
ENDMDL
