MODEL 1
REMARK VINA RESULT:      -6.9      0.000      0.000
REMARK  Name = 
REMARK  5 active torsions:
REMARK  status: ('A' for Active; 'I' for Inactive)
REMARK    1  A    between atoms: C_1  and  O_2
REMARK    2  A    between atoms: O_2  and  C_3
REMARK    3  A    between atoms: C_7  and  O_8
REMARK    4  A    between atoms: O_8  and  C_9
REMARK    5  A    between atoms: C_10  and  C_11
REMARK                            x       y       z     vdW  Elec       q    Type
REMARK                         _______ _______ _______ _____ _____    ______ ____
ROOT
ATOM      1  C   UNL     1       7.935  -3.543  26.217  0.00  0.00    +0.029 A 
ATOM      2  C   UNL     1       8.505  -4.748  26.669  0.00  0.00    +0.127 A 
ATOM      3  N   UNL     1       9.786  -5.170  26.312  0.00  0.00    -0.343 N 
ATOM      4  H   UNL     1      10.459  -4.425  26.461  0.00  0.00    +0.144 HD
ATOM      5  H   UNL     1       9.987  -5.998  26.868  0.00  0.00    +0.144 HD
ATOM      6  N   UNL     1       7.844  -5.687  27.396  0.00  0.00    -0.212 NA
ATOM      7  C   UNL     1       6.543  -5.554  27.645  0.00  0.00    +0.167 A 
ATOM      8  C   UNL     1       5.882  -4.413  27.230  0.00  0.00    +0.038 A 
ATOM      9  C   UNL     1       4.517  -4.394  27.436  0.00  0.00    +0.126 A 
ATOM     10  N   UNL     1       3.842  -5.406  28.007  0.00  0.00    -0.222 NA
ATOM     11  C   UNL     1       4.575  -6.454  28.377  0.00  0.00    +0.214 A 
ATOM     12  N   UNL     1       3.906  -7.507  28.964  0.00  0.00    -0.327 N 
ATOM     13  H   UNL     1       4.522  -8.020  29.579  0.00  0.00    +0.145 HD
ATOM     14  H   UNL     1       3.018  -7.198  29.336  0.00  0.00    +0.145 HD
ATOM     15  N   UNL     1       5.896  -6.552  28.247  0.00  0.00    -0.195 NA
ATOM     16  C   UNL     1       6.595  -3.377  26.603  0.00  0.00    +0.025 A 
ENDROOT
BRANCH   1  18
ATOM     17  C   UNL     1       8.921  -2.799  23.977  0.00  0.00    +0.131 A 
ATOM     18  C   UNL     1       8.616  -2.503  25.346  0.00  0.00    +0.069 A 
ATOM     19  C   UNL     1       8.981  -1.200  25.807  0.00  0.00    +0.131 A 
ATOM     20  C   UNL     1       9.628  -0.290  24.950  0.00  0.00    +0.046 A 
ATOM     21  C   UNL     1       9.875  -0.603  23.621  0.00  0.00    +0.007 A 
ATOM     22  C   UNL     1       9.509  -1.846  23.132  0.00  0.00    +0.046 A 
BRANCH  17  24
ATOM     23  C   UNL     1       7.450  -4.118  22.620  0.00  0.00    +0.277 C 
ATOM     24  O   UNL     1       8.568  -4.041  23.495  0.00  0.00    -0.494 OA
ENDBRANCH  17  24
BRANCH  19  25
ATOM     25  O   UNL     1       8.688  -0.874  27.112  0.00  0.00    -0.494 OA
ATOM     26  C   UNL     1       7.642   0.063  27.357  0.00  0.00    +0.277 C 
ENDBRANCH  19  25
ENDBRANCH   1  18
TORSDOF 3
ENDMDL
MODEL 2
REMARK VINA RESULT:      -6.9      0.069      2.611
REMARK  Name = 
REMARK  5 active torsions:
REMARK  status: ('A' for Active; 'I' for Inactive)
REMARK    1  A    between atoms: C_1  and  O_2
REMARK    2  A    between atoms: O_2  and  C_3
REMARK    3  A    between atoms: C_7  and  O_8
REMARK    4  A    between atoms: O_8  and  C_9
REMARK    5  A    between atoms: C_10  and  C_11
REMARK                            x       y       z     vdW  Elec       q    Type
REMARK                         _______ _______ _______ _____ _____    ______ ____
ROOT
ATOM      1  C   UNL     1       7.899  -3.567  26.163  0.00  0.00    +0.029 A 
ATOM      2  C   UNL     1       8.482  -4.756  26.642  0.00  0.00    +0.127 A 
ATOM      3  N   UNL     1       9.764  -5.176  26.287  0.00  0.00    -0.343 N 
ATOM      4  H   UNL     1      10.432  -4.421  26.413  0.00  0.00    +0.144 HD
ATOM      5  H   UNL     1       9.976  -5.988  26.863  0.00  0.00    +0.144 HD
ATOM      6  N   UNL     1       7.833  -5.682  27.396  0.00  0.00    -0.212 NA
ATOM      7  C   UNL     1       6.533  -5.553  27.650  0.00  0.00    +0.167 A 
ATOM      8  C   UNL     1       5.860  -4.429  27.210  0.00  0.00    +0.038 A 
ATOM      9  C   UNL     1       4.495  -4.416  27.424  0.00  0.00    +0.126 A 
ATOM     10  N   UNL     1       3.832  -5.418  28.024  0.00  0.00    -0.222 NA
ATOM     11  C   UNL     1       4.576  -6.451  28.417  0.00  0.00    +0.214 A 
ATOM     12  N   UNL     1       3.920  -7.494  29.034  0.00  0.00    -0.327 N 
ATOM     13  H   UNL     1       4.544  -7.986  29.658  0.00  0.00    +0.145 HD
ATOM     14  H   UNL     1       3.032  -7.183  29.404  0.00  0.00    +0.145 HD
ATOM     15  N   UNL     1       5.897  -6.541  28.281  0.00  0.00    -0.195 NA
ATOM     16  C   UNL     1       6.560  -3.403  26.553  0.00  0.00    +0.025 A 
ENDROOT
BRANCH   1  18
ATOM     17  C   UNL     1       8.910  -1.249  25.774  0.00  0.00    +0.131 A 
ATOM     18  C   UNL     1       8.566  -2.544  25.262  0.00  0.00    +0.069 A 
ATOM     19  C   UNL     1       8.895  -2.789  23.893  0.00  0.00    +0.131 A 
ATOM     20  C   UNL     1       9.496  -1.787  23.108  0.00  0.00    +0.046 A 
ATOM     21  C   UNL     1       9.845  -0.559  23.651  0.00  0.00    +0.007 A 
ATOM     22  C   UNL     1       9.567  -0.297  24.982  0.00  0.00    +0.046 A 
BRANCH  17  24
ATOM     23  C   UNL     1       7.658   0.021  27.375  0.00  0.00    +0.277 C 
ATOM     24  O   UNL     1       8.623  -0.985  27.096  0.00  0.00    -0.494 OA
ENDBRANCH  17  24
BRANCH  19  25
ATOM     25  O   UNL     1       8.594  -4.027  23.371  0.00  0.00    -0.494 OA
ATOM     26  C   UNL     1       7.410  -4.161  22.587  0.00  0.00    +0.277 C 
ENDBRANCH  19  25
ENDBRANCH   1  18
TORSDOF 3
ENDMDL
MODEL 3
REMARK VINA RESULT:      -6.9      4.892      7.238
REMARK  Name = 
REMARK  5 active torsions:
REMARK  status: ('A' for Active; 'I' for Inactive)
REMARK    1  A    between atoms: C_1  and  O_2
REMARK    2  A    between atoms: O_2  and  C_3
REMARK    3  A    between atoms: C_7  and  O_8
REMARK    4  A    between atoms: O_8  and  C_9
REMARK    5  A    between atoms: C_10  and  C_11
REMARK                            x       y       z     vdW  Elec       q    Type
REMARK                         _______ _______ _______ _____ _____    ______ ____
ROOT
ATOM      1  C   UNL     1       9.491   2.314  23.806  0.00  0.00    +0.029 A 
ATOM      2  C   UNL     1       9.942   1.552  22.711  0.00  0.00    +0.127 A 
ATOM      3  N   UNL     1      10.182   2.094  21.448  0.00  0.00    -0.343 N 
ATOM      4  H   UNL     1      10.767   2.921  21.523  0.00  0.00    +0.144 HD
ATOM      5  H   UNL     1      10.610   1.360  20.890  0.00  0.00    +0.144 HD
ATOM      6  N   UNL     1      10.080   0.200  22.719  0.00  0.00    -0.212 NA
ATOM      7  C   UNL     1       9.686  -0.511  23.774  0.00  0.00    +0.167 A 
ATOM      8  C   UNL     1       9.211   0.140  24.897  0.00  0.00    +0.038 A 
ATOM      9  C   UNL     1       8.730  -0.669  25.908  0.00  0.00    +0.126 A 
ATOM     10  N   UNL     1       8.714  -2.010  25.838  0.00  0.00    -0.222 NA
ATOM     11  C   UNL     1       9.202  -2.536  24.715  0.00  0.00    +0.214 A 
ATOM     12  N   UNL     1       9.196  -3.911  24.616  0.00  0.00    -0.327 N 
ATOM     13  H   UNL     1       9.931  -4.225  23.999  0.00  0.00    +0.145 HD
ATOM     14  H   UNL     1       9.139  -4.330  25.534  0.00  0.00    +0.145 HD
ATOM     15  N   UNL     1       9.713  -1.842  23.701  0.00  0.00    -0.195 NA
ATOM     16  C   UNL     1       9.202   1.544  24.944  0.00  0.00    +0.025 A 
ENDROOT
BRANCH   1  18
ATOM     17  C   UNL     1      10.367   4.716  23.724  0.00  0.00    +0.131 A 
ATOM     18  C   UNL     1       9.257   3.814  23.816  0.00  0.00    +0.069 A 
ATOM     19  C   UNL     1       7.963   4.413  23.905  0.00  0.00    +0.131 A 
ATOM     20  C   UNL     1       7.819   5.814  23.928  0.00  0.00    +0.046 A 
ATOM     21  C   UNL     1       8.917   6.652  23.802  0.00  0.00    +0.007 A 
ATOM     22  C   UNL     1      10.184   6.106  23.684  0.00  0.00    +0.046 A 
BRANCH  17  24
ATOM     23  C   UNL     1      12.681   5.017  23.171  0.00  0.00    +0.277 C 
ATOM     24  O   UNL     1      11.629   4.172  23.619  0.00  0.00    -0.494 OA
ENDBRANCH  17  24
BRANCH  19  25
ATOM     25  O   UNL     1       6.870   3.578  23.978  0.00  0.00    -0.494 OA
ATOM     26  C   UNL     1       6.080   3.393  22.805  0.00  0.00    +0.277 C 
ENDBRANCH  19  25
ENDBRANCH   1  18
TORSDOF 3
ENDMDL
MODEL 4
REMARK VINA RESULT:      -6.8      4.837      7.147
REMARK  Name = 
REMARK  5 active torsions:
REMARK  status: ('A' for Active; 'I' for Inactive)
REMARK    1  A    between atoms: C_1  and  O_2
REMARK    2  A    between atoms: O_2  and  C_3
REMARK    3  A    between atoms: C_7  and  O_8
REMARK    4  A    between atoms: O_8  and  C_9
REMARK    5  A    between atoms: C_10  and  C_11
REMARK                            x       y       z     vdW  Elec       q    Type
REMARK                         _______ _______ _______ _____ _____    ______ ____
ROOT
ATOM      1  C   UNL     1       9.605   2.258  23.850  0.00  0.00    +0.029 A 
ATOM      2  C   UNL     1       9.942   1.508  22.707  0.00  0.00    +0.127 A 
ATOM      3  N   UNL     1      10.121   2.074  21.445  0.00  0.00    -0.343 N 
ATOM      4  H   UNL     1      10.750   2.869  21.499  0.00  0.00    +0.144 HD
ATOM      5  H   UNL     1      10.473   1.335  20.840  0.00  0.00    +0.144 HD
ATOM      6  N   UNL     1      10.012   0.151  22.672  0.00  0.00    -0.212 NA
ATOM      7  C   UNL     1       9.657  -0.571  23.733  0.00  0.00    +0.167 A 
ATOM      8  C   UNL     1       9.293   0.070  24.902  0.00  0.00    +0.038 A 
ATOM      9  C   UNL     1       8.843  -0.744  25.924  0.00  0.00    +0.126 A 
ATOM     10  N   UNL     1       8.756  -2.080  25.820  0.00  0.00    -0.222 NA
ATOM     11  C   UNL     1       9.139  -2.596  24.654  0.00  0.00    +0.214 A 
ATOM     12  N   UNL     1       9.057  -3.966  24.521  0.00  0.00    -0.327 N 
ATOM     13  H   UNL     1       9.732  -4.297  23.846  0.00  0.00    +0.145 HD
ATOM     14  H   UNL     1       9.043  -4.409  25.430  0.00  0.00    +0.145 HD
ATOM     15  N   UNL     1       9.613  -1.899  23.624  0.00  0.00    -0.195 NA
ATOM     16  C   UNL     1       9.357   1.471  24.985  0.00  0.00    +0.025 A 
ENDROOT
BRANCH   1  18
ATOM     17  C   UNL     1       8.163   4.346  24.177  0.00  0.00    +0.131 A 
ATOM     18  C   UNL     1       9.447   3.767  23.914  0.00  0.00    +0.069 A 
ATOM     19  C   UNL     1      10.528   4.684  23.733  0.00  0.00    +0.131 A 
ATOM     20  C   UNL     1      10.308   6.074  23.786  0.00  0.00    +0.046 A 
ATOM     21  C   UNL     1       9.055   6.594  24.078  0.00  0.00    +0.007 A 
ATOM     22  C   UNL     1       7.990   5.733  24.288  0.00  0.00    +0.046 A 
BRANCH  17  24
ATOM     23  C   UNL     1       6.130   3.390  23.340  0.00  0.00    +0.277 C 
ATOM     24  O   UNL     1       7.101   3.489  24.374  0.00  0.00    -0.494 OA
ENDBRANCH  17  24
BRANCH  19  25
ATOM     25  O   UNL     1      11.781   4.165  23.495  0.00  0.00    -0.494 OA
ATOM     26  C   UNL     1      12.826   5.062  23.126  0.00  0.00    +0.277 C 
ENDBRANCH  19  25
ENDBRANCH   1  18
TORSDOF 3
ENDMDL
MODEL 5
REMARK VINA RESULT:      -6.8      4.839      7.325
REMARK  Name = 
REMARK  5 active torsions:
REMARK  status: ('A' for Active; 'I' for Inactive)
REMARK    1  A    between atoms: C_1  and  O_2
REMARK    2  A    between atoms: O_2  and  C_3
REMARK    3  A    between atoms: C_7  and  O_8
REMARK    4  A    between atoms: O_8  and  C_9
REMARK    5  A    between atoms: C_10  and  C_11
REMARK                            x       y       z     vdW  Elec       q    Type
REMARK                         _______ _______ _______ _____ _____    ______ ____
ROOT
ATOM      1  C   UNL     1       8.088  -1.183  23.051  0.00  0.00    +0.029 A 
ATOM      2  C   UNL     1       8.995  -0.628  22.129  0.00  0.00    +0.127 A 
ATOM      3  N   UNL     1      10.163  -1.274  21.721  0.00  0.00    -0.343 N 
ATOM      4  H   UNL     1       9.959  -2.227  21.434  0.00  0.00    +0.144 HD
ATOM      5  H   UNL     1      10.561  -0.714  20.971  0.00  0.00    +0.144 HD
ATOM      6  N   UNL     1       8.908   0.631  21.625  0.00  0.00    -0.212 NA
ATOM      7  C   UNL     1       7.977   1.472  22.071  0.00  0.00    +0.167 A 
ATOM      8  C   UNL     1       7.045   1.032  22.992  0.00  0.00    +0.038 A 
ATOM      9  C   UNL     1       6.176   1.989  23.480  0.00  0.00    +0.126 A 
ATOM     10  N   UNL     1       6.206   3.276  23.100  0.00  0.00    -0.222 NA
ATOM     11  C   UNL     1       7.138   3.593  22.202  0.00  0.00    +0.214 A 
ATOM     12  N   UNL     1       7.192   4.910  21.796  0.00  0.00    -0.327 N 
ATOM     13  H   UNL     1       7.578   4.978  20.865  0.00  0.00    +0.145 HD
ATOM     14  H   UNL     1       6.311   5.371  21.977  0.00  0.00    +0.145 HD
ATOM     15  N   UNL     1       7.998   2.739  21.654  0.00  0.00    -0.195 NA
ATOM     16  C   UNL     1       7.046  -0.311  23.406  0.00  0.00    +0.025 A 
ENDROOT
BRANCH   1  18
ATOM     17  C   UNL     1       8.823  -2.713  24.965  0.00  0.00    +0.131 A 
ATOM     18  C   UNL     1       8.188  -2.557  23.689  0.00  0.00    +0.069 A 
ATOM     19  C   UNL     1       7.670  -3.747  23.092  0.00  0.00    +0.131 A 
ATOM     20  C   UNL     1       7.815  -4.994  23.730  0.00  0.00    +0.046 A 
ATOM     21  C   UNL     1       8.405  -5.097  24.982  0.00  0.00    +0.007 A 
ATOM     22  C   UNL     1       8.893  -3.959  25.604  0.00  0.00    +0.046 A 
BRANCH  17  24
ATOM     23  C   UNL     1       8.637  -1.099  26.728  0.00  0.00    +0.277 C 
ATOM     24  O   UNL     1       9.319  -1.582  25.578  0.00  0.00    -0.494 OA
ENDBRANCH  17  24
BRANCH  19  25
ATOM     25  O   UNL     1       7.039  -3.634  21.873  0.00  0.00    -0.494 OA
ATOM     26  C   UNL     1       5.622  -3.477  21.858  0.00  0.00    +0.277 C 
ENDBRANCH  19  25
ENDBRANCH   1  18
TORSDOF 3
ENDMDL
MODEL 6
REMARK VINA RESULT:      -6.7      4.815      6.912
REMARK  Name = 
REMARK  5 active torsions:
REMARK  status: ('A' for Active; 'I' for Inactive)
REMARK    1  A    between atoms: C_1  and  O_2
REMARK    2  A    between atoms: O_2  and  C_3
REMARK    3  A    between atoms: C_7  and  O_8
REMARK    4  A    between atoms: O_8  and  C_9
REMARK    5  A    between atoms: C_10  and  C_11
REMARK                            x       y       z     vdW  Elec       q    Type
REMARK                         _______ _______ _______ _____ _____    ______ ____
ROOT
ATOM      1  C   UNL     1       8.036  -1.152  23.112  0.00  0.00    +0.029 A 
ATOM      2  C   UNL     1       8.918  -0.622  22.152  0.00  0.00    +0.127 A 
ATOM      3  N   UNL     1      10.070  -1.283  21.724  0.00  0.00    -0.343 N 
ATOM      4  H   UNL     1       9.853  -2.240  21.462  0.00  0.00    +0.144 HD
ATOM      5  H   UNL     1      10.448  -0.741  20.950  0.00  0.00    +0.144 HD
ATOM      6  N   UNL     1       8.822   0.627  21.625  0.00  0.00    -0.212 NA
ATOM      7  C   UNL     1       7.909   1.482  22.081  0.00  0.00    +0.167 A 
ATOM      8  C   UNL     1       7.003   1.066  23.038  0.00  0.00    +0.038 A 
ATOM      9  C   UNL     1       6.154   2.038  23.532  0.00  0.00    +0.126 A 
ATOM     10  N   UNL     1       6.179   3.317  23.124  0.00  0.00    -0.222 NA
ATOM     11  C   UNL     1       7.085   3.610  22.193  0.00  0.00    +0.214 A 
ATOM     12  N   UNL     1       7.133   4.918  21.758  0.00  0.00    -0.327 N 
ATOM     13  H   UNL     1       7.491   4.964  20.815  0.00  0.00    +0.145 HD
ATOM     14  H   UNL     1       6.259   5.387  21.955  0.00  0.00    +0.145 HD
ATOM     15  N   UNL     1       7.924   2.739  21.637  0.00  0.00    -0.195 NA
ATOM     16  C   UNL     1       7.010  -0.267  23.481  0.00  0.00    +0.025 A 
ENDROOT
BRANCH   1  18
ATOM     17  C   UNL     1       7.612  -3.676  23.131  0.00  0.00    +0.131 A 
ATOM     18  C   UNL     1       8.149  -2.513  23.776  0.00  0.00    +0.069 A 
ATOM     19  C   UNL     1       8.782  -2.728  25.038  0.00  0.00    +0.131 A 
ATOM     20  C   UNL     1       8.835  -4.016  25.607  0.00  0.00    +0.046 A 
ATOM     21  C   UNL     1       8.333  -5.120  24.933  0.00  0.00    +0.007 A 
ATOM     22  C   UNL     1       7.739  -4.953  23.694  0.00  0.00    +0.046 A 
BRANCH  17  24
ATOM     23  C   UNL     1       6.148  -4.539  21.440  0.00  0.00    +0.277 C 
ATOM     24  O   UNL     1       7.009  -3.507  21.903  0.00  0.00    -0.494 OA
ENDBRANCH  17  24
BRANCH  19  25
ATOM     25  O   UNL     1       9.324  -1.638  25.681  0.00  0.00    -0.494 OA
ATOM     26  C   UNL     1       8.619  -1.087  26.791  0.00  0.00    +0.277 C 
ENDBRANCH  19  25
ENDBRANCH   1  18
TORSDOF 3
ENDMDL
MODEL 7
REMARK VINA RESULT:      -6.6      3.124      6.537
REMARK  Name = 
REMARK  5 active torsions:
REMARK  status: ('A' for Active; 'I' for Inactive)
REMARK    1  A    between atoms: C_1  and  O_2
REMARK    2  A    between atoms: O_2  and  C_3
REMARK    3  A    between atoms: C_7  and  O_8
REMARK    4  A    between atoms: O_8  and  C_9
REMARK    5  A    between atoms: C_10  and  C_11
REMARK                            x       y       z     vdW  Elec       q    Type
REMARK                         _______ _______ _______ _____ _____    ______ ____
ROOT
ATOM      1  C   UNL     1       7.318  -4.185  24.410  0.00  0.00    +0.029 A 
ATOM      2  C   UNL     1       8.705  -4.418  24.461  0.00  0.00    +0.127 A 
ATOM      3  N   UNL     1       9.262  -5.654  24.793  0.00  0.00    -0.343 N 
ATOM      4  H   UNL     1       8.835  -6.394  24.244  0.00  0.00    +0.144 HD
ATOM      5  H   UNL     1      10.264  -5.575  24.635  0.00  0.00    +0.144 HD
ATOM      6  N   UNL     1       9.653  -3.455  24.314  0.00  0.00    -0.212 NA
ATOM      7  C   UNL     1       9.303  -2.175  24.208  0.00  0.00    +0.167 A 
ATOM      8  C   UNL     1       7.963  -1.836  24.165  0.00  0.00    +0.038 A 
ATOM      9  C   UNL     1       7.681  -0.484  24.156  0.00  0.00    +0.126 A 
ATOM     10  N   UNL     1       8.627   0.469  24.182  0.00  0.00    -0.222 NA
ATOM     11  C   UNL     1       9.885   0.034  24.215  0.00  0.00    +0.214 A 
ATOM     12  N   UNL     1      10.876   0.992  24.244  0.00  0.00    -0.327 N 
ATOM     13  H   UNL     1      11.729   0.632  23.840  0.00  0.00    +0.145 HD
ATOM     14  H   UNL     1      10.525   1.874  23.896  0.00  0.00    +0.145 HD
ATOM     15  N   UNL     1      10.257  -1.244  24.197  0.00  0.00    -0.195 NA
ATOM     16  C   UNL     1       6.983  -2.842  24.173  0.00  0.00    +0.025 A 
ENDROOT
BRANCH   1  18
ATOM     17  C   UNL     1       5.994  -5.740  25.952  0.00  0.00    +0.131 A 
ATOM     18  C   UNL     1       6.228  -5.218  24.637  0.00  0.00    +0.069 A 
ATOM     19  C   UNL     1       5.384  -5.719  23.600  0.00  0.00    +0.131 A 
ATOM     20  C   UNL     1       4.404  -6.693  23.877  0.00  0.00    +0.046 A 
ATOM     21  C   UNL     1       4.187  -7.146  25.170  0.00  0.00    +0.007 A 
ATOM     22  C   UNL     1       4.968  -6.660  26.206  0.00  0.00    +0.046 A 
BRANCH  17  24
ATOM     23  C   UNL     1       6.493  -5.717  28.297  0.00  0.00    +0.277 C 
ATOM     24  O   UNL     1       6.780  -5.265  26.980  0.00  0.00    -0.494 OA
ENDBRANCH  17  24
BRANCH  19  25
ATOM     25  O   UNL     1       5.568  -5.229  22.326  0.00  0.00    -0.494 OA
ATOM     26  C   UNL     1       6.390  -5.972  21.428  0.00  0.00    +0.277 C 
ENDBRANCH  19  25
ENDBRANCH   1  18
TORSDOF 3
ENDMDL
MODEL 8
REMARK VINA RESULT:      -6.6      3.953      7.121
REMARK  Name = 
REMARK  5 active torsions:
REMARK  status: ('A' for Active; 'I' for Inactive)
REMARK    1  A    between atoms: C_1  and  O_2
REMARK    2  A    between atoms: O_2  and  C_3
REMARK    3  A    between atoms: C_7  and  O_8
REMARK    4  A    between atoms: O_8  and  C_9
REMARK    5  A    between atoms: C_10  and  C_11
REMARK                            x       y       z     vdW  Elec       q    Type
REMARK                         _______ _______ _______ _____ _____    ______ ____
ROOT
ATOM      1  C   UNL     1       8.214  -1.676  24.343  0.00  0.00    +0.029 A 
ATOM      2  C   UNL     1       8.839  -1.076  25.452  0.00  0.00    +0.127 A 
ATOM      3  N   UNL     1       8.590  -1.459  26.771  0.00  0.00    -0.343 N 
ATOM      4  H   UNL     1       8.669  -2.467  26.868  0.00  0.00    +0.144 HD
ATOM      5  H   UNL     1       9.255  -0.955  27.353  0.00  0.00    +0.144 HD
ATOM      6  N   UNL     1       9.654   0.010  25.383  0.00  0.00    -0.212 NA
ATOM      7  C   UNL     1       9.832   0.645  24.227  0.00  0.00    +0.167 A 
ATOM      8  C   UNL     1       9.248   0.147  23.077  0.00  0.00    +0.038 A 
ATOM      9  C   UNL     1       9.395   0.917  21.940  0.00  0.00    +0.126 A 
ATOM     10  N   UNL     1      10.064   2.082  21.917  0.00  0.00    -0.222 NA
ATOM     11  C   UNL     1      10.595   2.467  23.077  0.00  0.00    +0.214 A 
ATOM     12  N   UNL     1      11.285   3.660  23.082  0.00  0.00    -0.327 N 
ATOM     13  H   UNL     1      11.984   3.662  23.810  0.00  0.00    +0.145 HD
ATOM     14  H   UNL     1      11.578   3.902  22.145  0.00  0.00    +0.145 HD
ATOM     15  N   UNL     1      10.531   1.781  24.216  0.00  0.00    -0.195 NA
ATOM     16  C   UNL     1       8.522  -1.055  23.122  0.00  0.00    +0.025 A 
ENDROOT
BRANCH   1  18
ATOM     17  C   UNL     1       5.837  -2.606  24.518  0.00  0.00    +0.131 A 
ATOM     18  C   UNL     1       7.245  -2.844  24.386  0.00  0.00    +0.069 A 
ATOM     19  C   UNL     1       7.648  -4.211  24.292  0.00  0.00    +0.131 A 
ATOM     20  C   UNL     1       6.696  -5.247  24.358  0.00  0.00    +0.046 A 
ATOM     21  C   UNL     1       5.339  -4.974  24.452  0.00  0.00    +0.007 A 
ATOM     22  C   UNL     1       4.910  -3.658  24.515  0.00  0.00    +0.046 A 
BRANCH  17  24
ATOM     23  C   UNL     1       5.039  -0.794  25.870  0.00  0.00    +0.277 C 
ATOM     24  O   UNL     1       5.412  -1.297  24.593  0.00  0.00    -0.494 OA
ENDBRANCH  17  24
BRANCH  19  25
ATOM     25  O   UNL     1       8.991  -4.479  24.147  0.00  0.00    -0.494 OA
ATOM     26  C   UNL     1       9.716  -4.935  25.287  0.00  0.00    +0.277 C 
ENDBRANCH  19  25
ENDBRANCH   1  18
TORSDOF 3
ENDMDL
MODEL 9
REMARK VINA RESULT:      -6.6      3.961      6.901
REMARK  Name = 
REMARK  5 active torsions:
REMARK  status: ('A' for Active; 'I' for Inactive)
REMARK    1  A    between atoms: C_1  and  O_2
REMARK    2  A    between atoms: O_2  and  C_3
REMARK    3  A    between atoms: C_7  and  O_8
REMARK    4  A    between atoms: O_8  and  C_9
REMARK    5  A    between atoms: C_10  and  C_11
REMARK                            x       y       z     vdW  Elec       q    Type
REMARK                         _______ _______ _______ _____ _____    ______ ____
ROOT
ATOM      1  C   UNL     1       8.204  -1.654  24.325  0.00  0.00    +0.029 A 
ATOM      2  C   UNL     1       8.835  -1.061  25.435  0.00  0.00    +0.127 A 
ATOM      3  N   UNL     1       8.586  -1.445  26.753  0.00  0.00    -0.343 N 
ATOM      4  H   UNL     1       8.658  -2.453  26.848  0.00  0.00    +0.144 HD
ATOM      5  H   UNL     1       9.256  -0.947  27.335  0.00  0.00    +0.144 HD
ATOM      6  N   UNL     1       9.658   0.019  25.366  0.00  0.00    -0.212 NA
ATOM      7  C   UNL     1       9.838   0.656  24.211  0.00  0.00    +0.167 A 
ATOM      8  C   UNL     1       9.248   0.165  23.062  0.00  0.00    +0.038 A 
ATOM      9  C   UNL     1       9.399   0.936  21.925  0.00  0.00    +0.126 A 
ATOM     10  N   UNL     1      10.076   2.095  21.904  0.00  0.00    -0.222 NA
ATOM     11  C   UNL     1      10.611   2.474  23.063  0.00  0.00    +0.214 A 
ATOM     12  N   UNL     1      11.310   3.663  23.070  0.00  0.00    -0.327 N 
ATOM     13  H   UNL     1      12.011   3.658  23.797  0.00  0.00    +0.145 HD
ATOM     14  H   UNL     1      11.604   3.904  22.133  0.00  0.00    +0.145 HD
ATOM     15  N   UNL     1      10.545   1.787  24.201  0.00  0.00    -0.195 NA
ATOM     16  C   UNL     1       8.514  -1.033  23.105  0.00  0.00    +0.025 A 
ENDROOT
BRANCH   1  18
ATOM     17  C   UNL     1       7.704  -4.163  24.275  0.00  0.00    +0.131 A 
ATOM     18  C   UNL     1       7.226  -2.815  24.368  0.00  0.00    +0.069 A 
ATOM     19  C   UNL     1       5.813  -2.655  24.507  0.00  0.00    +0.131 A 
ATOM     20  C   UNL     1       4.960  -3.775  24.520  0.00  0.00    +0.046 A 
ATOM     21  C   UNL     1       5.467  -5.066  24.462  0.00  0.00    +0.007 A 
ATOM     22  C   UNL     1       6.834  -5.259  24.356  0.00  0.00    +0.046 A 
BRANCH  17  24
ATOM     23  C   UNL     1       9.753  -4.919  25.265  0.00  0.00    +0.277 C 
ATOM     24  O   UNL     1       9.064  -4.355  24.156  0.00  0.00    -0.494 OA
ENDBRANCH  17  24
BRANCH  19  25
ATOM     25  O   UNL     1       5.318  -1.375  24.616  0.00  0.00    -0.494 OA
ATOM     26  C   UNL     1       5.011  -0.877  25.917  0.00  0.00    +0.277 C 
ENDBRANCH  19  25
ENDBRANCH   1  18
TORSDOF 3
ENDMDL
