MODEL 1
REMARK VINA RESULT:      -6.7      0.000      0.000
REMARK  Name = 
REMARK  16 active torsions:
REMARK  status: ('A' for Active; 'I' for Inactive)
REMARK    1  A    between atoms: C_1  and  C_2
REMARK    2  A    between atoms: C_2  and  O_3
REMARK    3  A    between atoms: C_2  and  O_22
REMARK    4  A    between atoms: C_2  and  C_27
REMARK    5  A    between atoms: O_3  and  C_4
REMARK    6  A    between atoms: C_7  and  C_19
REMARK    7  A    between atoms: C_9  and  O_11
REMARK    8  A    between atoms: O_11  and  P_12
REMARK    9  A    between atoms: P_12  and  O_13
REMARK   10  A    between atoms: P_12  and  O_14
REMARK   11  A    between atoms: C_16  and  O_18
REMARK   12  A    between atoms: C_19  and  O_20
REMARK   13  A    between atoms: O_22  and  P_23
REMARK   14  A    between atoms: P_23  and  O_24
REMARK   15  A    between atoms: P_23  and  O_25
REMARK   16  A    between atoms: C_27  and  O_28
REMARK                            x       y       z     vdW  Elec       q    Type
REMARK                         _______ _______ _______ _____ _____    ______ ____
ROOT
ATOM      1  C   UNL     1       7.628  -2.159  23.830  0.00  0.00    +0.158 C 
ATOM      2  C   UNL     1       7.730  -2.838  25.211  0.00  0.00    +0.177 C 
ATOM      3  C   UNL     1       7.196  -4.287  25.306  0.00  0.00    +0.185 C 
ATOM      4  C   UNL     1       6.688  -4.953  24.067  0.00  0.00    +0.018 C 
ATOM      5  C   UNL     1       6.641  -4.362  22.864  0.00  0.00    +0.038 C 
ATOM      6  C   UNL     1       7.131  -2.989  22.651  0.00  0.00    +0.076 C 
ENDROOT
BRANCH   2   7
ATOM      7  O   UNL     1       7.086  -2.006  26.196  0.00  0.00    -0.386 OA
ATOM      8  H   UNL     1       6.744  -1.208  25.758  0.00  0.00    +0.210 HD
ENDBRANCH   2   7
BRANCH   5   9
ATOM      9  C   UNL     1       6.164  -5.126  21.681  0.00  0.00    +0.333 C 
ATOM     10  O   UNL     1       5.824  -4.557  20.655  0.00  0.00    -0.245 OA
BRANCH   9  11
ATOM     11  O   UNL     1       6.080  -6.457  21.830  0.00  0.00    -0.477 OA
ATOM     12  H   UNL     1       5.271  -6.858  22.202  0.00  0.00    +0.295 HD
ENDBRANCH   9  11
ENDBRANCH   5   9
BRANCH   1  13
ATOM     13  O   UNL     1       8.959  -1.691  23.484  0.00  0.00    -0.334 OA
BRANCH  13  15
ATOM     14  C   UNL     1       7.739   0.260  23.872  0.00  0.00    +0.087 C 
ATOM     15  C   UNL     1       9.167  -0.295  23.696  0.00  0.00    +0.276 C 
BRANCH  15  16
ATOM     16  C   UNL     1      10.072   0.130  24.937  0.00  0.00    +0.365 C 
ATOM     17  O   UNL     1      11.191   0.603  24.817  0.00  0.00    -0.245 OA
BRANCH  16  18
ATOM     18  O   UNL     1       9.552  -0.037  26.168  0.00  0.00    -0.477 OA
ATOM     19  H   UNL     1      10.086   0.194  26.947  0.00  0.00    +0.295 HD
ENDBRANCH  16  18
ENDBRANCH  15  16
BRANCH  15  20
ATOM     20  O   UNL     1       9.744   0.267  22.516  0.00  0.00    -0.243 OA
BRANCH  20  21
ATOM     21  P   UNL     1       8.855   1.705  22.146  0.00  0.00    +0.475 P 
ATOM     22  O   UNL     1       8.059   2.991  21.817  0.00  0.00    -0.227 OA
BRANCH  21  23
ATOM     23  O   UNL     1       8.673   1.049  20.654  0.00  0.00    -0.303 OA
ATOM     24  H   UNL     1       8.965   1.634  19.935  0.00  0.00    +0.222 HD
ENDBRANCH  21  23
BRANCH  21  25
ATOM     25  O   UNL     1      10.320   2.334  21.801  0.00  0.00    -0.303 OA
ATOM     26  H   UNL     1      10.758   1.736  21.169  0.00  0.00    +0.222 HD
ENDBRANCH  21  25
ENDBRANCH  20  21
ENDBRANCH  15  20
ENDBRANCH  13  15
ENDBRANCH   1  13
BRANCH   3  27
ATOM     27  O   UNL     1       6.261  -4.445  26.361  0.00  0.00    -0.277 OA
BRANCH  27  28
ATOM     28  P   UNL     1       6.549  -5.517  27.512  0.00  0.00    +0.473 P 
ATOM     29  O   UNL     1       6.216  -5.166  28.921  0.00  0.00    -0.228 OA
BRANCH  28  30
ATOM     30  O   UNL     1       8.036  -6.001  27.198  0.00  0.00    -0.303 OA
ATOM     31  H   UNL     1       8.237  -5.880  26.257  0.00  0.00    +0.222 HD
ENDBRANCH  28  30
BRANCH  28  32
ATOM     32  O   UNL     1       5.713  -6.773  26.978  0.00  0.00    -0.303 OA
ATOM     33  H   UNL     1       5.609  -6.726  26.011  0.00  0.00    +0.222 HD
ENDBRANCH  28  32
ENDBRANCH  27  28
ENDBRANCH   3  27
TORSDOF 15
ENDMDL
MODEL 2
REMARK VINA RESULT:      -6.6      1.868      3.870
REMARK  Name = 
REMARK  16 active torsions:
REMARK  status: ('A' for Active; 'I' for Inactive)
REMARK    1  A    between atoms: C_1  and  C_2
REMARK    2  A    between atoms: C_2  and  O_3
REMARK    3  A    between atoms: C_2  and  O_22
REMARK    4  A    between atoms: C_2  and  C_27
REMARK    5  A    between atoms: O_3  and  C_4
REMARK    6  A    between atoms: C_7  and  C_19
REMARK    7  A    between atoms: C_9  and  O_11
REMARK    8  A    between atoms: O_11  and  P_12
REMARK    9  A    between atoms: P_12  and  O_13
REMARK   10  A    between atoms: P_12  and  O_14
REMARK   11  A    between atoms: C_16  and  O_18
REMARK   12  A    between atoms: C_19  and  O_20
REMARK   13  A    between atoms: O_22  and  P_23
REMARK   14  A    between atoms: P_23  and  O_24
REMARK   15  A    between atoms: P_23  and  O_25
REMARK   16  A    between atoms: C_27  and  O_28
REMARK                            x       y       z     vdW  Elec       q    Type
REMARK                         _______ _______ _______ _____ _____    ______ ____
ROOT
ATOM      1  C   UNL     1       8.129  -2.399  23.964  0.00  0.00    +0.158 C 
ATOM      2  C   UNL     1       6.791  -2.461  23.199  0.00  0.00    +0.177 C 
ATOM      3  C   UNL     1       5.744  -3.471  23.726  0.00  0.00    +0.185 C 
ATOM      4  C   UNL     1       6.057  -4.260  24.957  0.00  0.00    +0.018 C 
ATOM      5  C   UNL     1       7.212  -4.168  25.634  0.00  0.00    +0.038 C 
ATOM      6  C   UNL     1       8.277  -3.233  25.231  0.00  0.00    +0.076 C 
ENDROOT
BRANCH   2   7
ATOM      7  O   UNL     1       7.054  -2.701  21.803  0.00  0.00    -0.386 OA
ATOM      8  H   UNL     1       7.226  -1.851  21.365  0.00  0.00    +0.210 HD
ENDBRANCH   2   7
BRANCH   5   9
ATOM      9  C   UNL     1       7.408  -4.961  26.876  0.00  0.00    +0.333 C 
ATOM     10  O   UNL     1       6.785  -4.704  27.895  0.00  0.00    -0.245 OA
BRANCH   9  11
ATOM     11  O   UNL     1       8.338  -5.926  26.824  0.00  0.00    -0.477 OA
ATOM     12  H   UNL     1       8.125  -6.790  26.420  0.00  0.00    +0.295 HD
ENDBRANCH   9  11
ENDBRANCH   5   9
BRANCH   1  13
ATOM     13  O   UNL     1       8.342  -1.013  24.344  0.00  0.00    -0.334 OA
BRANCH  13  15
ATOM     14  C   UNL     1      10.413   0.019  24.640  0.00  0.00    +0.087 C 
ATOM     15  C   UNL     1       9.347  -0.341  23.586  0.00  0.00    +0.276 C 
BRANCH  15  16
ATOM     16  C   UNL     1      10.017  -1.146  22.385  0.00  0.00    +0.365 C 
ATOM     17  O   UNL     1      10.925  -1.947  22.541  0.00  0.00    -0.245 OA
BRANCH  16  18
ATOM     18  O   UNL     1       9.532  -0.927  21.148  0.00  0.00    -0.477 OA
ATOM     19  H   UNL     1       9.783  -1.527  20.424  0.00  0.00    +0.295 HD
ENDBRANCH  16  18
ENDBRANCH  15  16
BRANCH  15  20
ATOM     20  O   UNL     1       8.791   0.863  23.054  0.00  0.00    -0.243 OA
BRANCH  20  21
ATOM     21  P   UNL     1       9.995   2.095  23.212  0.00  0.00    +0.475 P 
ATOM     22  O   UNL     1      11.073   3.198  23.353  0.00  0.00    -0.227 OA
BRANCH  21  23
ATOM     23  O   UNL     1       8.729   3.123  23.388  0.00  0.00    -0.303 OA
ATOM     24  H   UNL     1       8.070   3.053  22.677  0.00  0.00    +0.222 HD
ENDBRANCH  21  23
BRANCH  21  25
ATOM     25  O   UNL     1       9.935   2.143  21.582  0.00  0.00    -0.303 OA
ATOM     26  H   UNL     1      10.845   2.257  21.254  0.00  0.00    +0.222 HD
ENDBRANCH  21  25
ENDBRANCH  20  21
ENDBRANCH  15  20
ENDBRANCH  13  15
ENDBRANCH   1  13
BRANCH   3  27
ATOM     27  O   UNL     1       5.270  -4.333  22.704  0.00  0.00    -0.277 OA
BRANCH  27  28
ATOM     28  P   UNL     1       6.137  -5.611  22.289  0.00  0.00    +0.473 P 
ATOM     29  O   UNL     1       7.579  -5.653  22.660  0.00  0.00    -0.228 OA
BRANCH  28  30
ATOM     30  O   UNL     1       5.758  -5.830  20.756  0.00  0.00    -0.303 OA
ATOM     31  H   UNL     1       5.650  -6.776  20.568  0.00  0.00    +0.222 HD
ENDBRANCH  28  30
BRANCH  28  32
ATOM     32  O   UNL     1       5.293  -6.788  22.970  0.00  0.00    -0.303 OA
ATOM     33  H   UNL     1       4.339  -6.608  22.900  0.00  0.00    +0.222 HD
ENDBRANCH  28  32
ENDBRANCH  27  28
ENDBRANCH   3  27
TORSDOF 15
ENDMDL
MODEL 3
REMARK VINA RESULT:      -6.3      1.311      2.160
REMARK  Name = 
REMARK  16 active torsions:
REMARK  status: ('A' for Active; 'I' for Inactive)
REMARK    1  A    between atoms: C_1  and  C_2
REMARK    2  A    between atoms: C_2  and  O_3
REMARK    3  A    between atoms: C_2  and  O_22
REMARK    4  A    between atoms: C_2  and  C_27
REMARK    5  A    between atoms: O_3  and  C_4
REMARK    6  A    between atoms: C_7  and  C_19
REMARK    7  A    between atoms: C_9  and  O_11
REMARK    8  A    between atoms: O_11  and  P_12
REMARK    9  A    between atoms: P_12  and  O_13
REMARK   10  A    between atoms: P_12  and  O_14
REMARK   11  A    between atoms: C_16  and  O_18
REMARK   12  A    between atoms: C_19  and  O_20
REMARK   13  A    between atoms: O_22  and  P_23
REMARK   14  A    between atoms: P_23  and  O_24
REMARK   15  A    between atoms: P_23  and  O_25
REMARK   16  A    between atoms: C_27  and  O_28
REMARK                            x       y       z     vdW  Elec       q    Type
REMARK                         _______ _______ _______ _____ _____    ______ ____
ROOT
ATOM      1  C   UNL     1       7.597  -2.352  23.759  0.00  0.00    +0.158 C 
ATOM      2  C   UNL     1       7.641  -2.933  25.187  0.00  0.00    +0.177 C 
ATOM      3  C   UNL     1       7.136  -4.385  25.354  0.00  0.00    +0.185 C 
ATOM      4  C   UNL     1       6.709  -5.147  24.140  0.00  0.00    +0.018 C 
ATOM      5  C   UNL     1       6.711  -4.640  22.898  0.00  0.00    +0.038 C 
ATOM      6  C   UNL     1       7.180  -3.272  22.616  0.00  0.00    +0.076 C 
ENDROOT
BRANCH   2   7
ATOM      7  O   UNL     1       6.928  -2.053  26.078  0.00  0.00    -0.386 OA
ATOM      8  H   UNL     1       7.571  -1.518  26.573  0.00  0.00    +0.210 HD
ENDBRANCH   2   7
BRANCH   5   9
ATOM      9  C   UNL     1       6.314  -5.495  21.748  0.00  0.00    +0.333 C 
ATOM     10  O   UNL     1       5.940  -5.004  20.694  0.00  0.00    -0.245 OA
BRANCH   9  11
ATOM     11  O   UNL     1       6.340  -6.819  21.957  0.00  0.00    -0.477 OA
ATOM     12  H   UNL     1       7.168  -7.256  22.237  0.00  0.00    +0.295 HD
ENDBRANCH   9  11
ENDBRANCH   5   9
BRANCH   1  13
ATOM     13  O   UNL     1       8.933  -1.874  23.449  0.00  0.00    -0.334 OA
BRANCH  13  15
ATOM     14  C   UNL     1       9.943  -0.042  24.482  0.00  0.00    +0.087 C 
ATOM     15  C   UNL     1       9.034  -0.457  23.308  0.00  0.00    +0.276 C 
BRANCH  15  16
ATOM     16  C   UNL     1       9.625   0.101  21.937  0.00  0.00    +0.365 C 
ATOM     17  O   UNL     1      10.132   1.206  21.828  0.00  0.00    -0.245 OA
BRANCH  16  18
ATOM     18  O   UNL     1       9.566  -0.710  20.863  0.00  0.00    -0.477 OA
ATOM     19  H   UNL     1       8.777  -0.693  20.295  0.00  0.00    +0.295 HD
ENDBRANCH  16  18
ENDBRANCH  15  16
BRANCH  15  20
ATOM     20  O   UNL     1       7.739   0.115  23.495  0.00  0.00    -0.243 OA
BRANCH  20  21
ATOM     21  P   UNL     1       7.907   1.396  24.647  0.00  0.00    +0.475 P 
ATOM     22  O   UNL     1       8.059   2.541  25.677  0.00  0.00    -0.227 OA
BRANCH  21  23
ATOM     23  O   UNL     1       6.495   0.841  25.271  0.00  0.00    -0.303 OA
ATOM     24  H   UNL     1       6.146   1.392  25.991  0.00  0.00    +0.222 HD
ENDBRANCH  21  23
BRANCH  21  25
ATOM     25  O   UNL     1       7.165   2.303  23.512  0.00  0.00    -0.303 OA
ATOM     26  H   UNL     1       6.248   2.454  23.806  0.00  0.00    +0.222 HD
ENDBRANCH  21  25
ENDBRANCH  20  21
ENDBRANCH  15  20
ENDBRANCH  13  15
ENDBRANCH   1  13
BRANCH   3  27
ATOM     27  O   UNL     1       6.150  -4.496  26.369  0.00  0.00    -0.277 OA
BRANCH  27  28
ATOM     28  P   UNL     1       6.418  -5.453  27.622  0.00  0.00    +0.473 P 
ATOM     29  O   UNL     1       5.963  -5.014  28.971  0.00  0.00    -0.228 OA
BRANCH  28  30
ATOM     30  O   UNL     1       7.950  -5.862  27.450  0.00  0.00    -0.303 OA
ATOM     31  H   UNL     1       8.464  -5.108  27.122  0.00  0.00    +0.222 HD
ENDBRANCH  28  30
BRANCH  28  32
ATOM     32  O   UNL     1       5.700  -6.799  27.140  0.00  0.00    -0.303 OA
ATOM     33  H   UNL     1       5.253  -6.660  26.285  0.00  0.00    +0.222 HD
ENDBRANCH  28  32
ENDBRANCH  27  28
ENDBRANCH   3  27
TORSDOF 15
ENDMDL
MODEL 4
REMARK VINA RESULT:      -6.3      1.285      2.298
REMARK  Name = 
REMARK  16 active torsions:
REMARK  status: ('A' for Active; 'I' for Inactive)
REMARK    1  A    between atoms: C_1  and  C_2
REMARK    2  A    between atoms: C_2  and  O_3
REMARK    3  A    between atoms: C_2  and  O_22
REMARK    4  A    between atoms: C_2  and  C_27
REMARK    5  A    between atoms: O_3  and  C_4
REMARK    6  A    between atoms: C_7  and  C_19
REMARK    7  A    between atoms: C_9  and  O_11
REMARK    8  A    between atoms: O_11  and  P_12
REMARK    9  A    between atoms: P_12  and  O_13
REMARK   10  A    between atoms: P_12  and  O_14
REMARK   11  A    between atoms: C_16  and  O_18
REMARK   12  A    between atoms: C_19  and  O_20
REMARK   13  A    between atoms: O_22  and  P_23
REMARK   14  A    between atoms: P_23  and  O_24
REMARK   15  A    between atoms: P_23  and  O_25
REMARK   16  A    between atoms: C_27  and  O_28
REMARK                            x       y       z     vdW  Elec       q    Type
REMARK                         _______ _______ _______ _____ _____    ______ ____
ROOT
ATOM      1  C   UNL     1       7.340  -2.260  23.298  0.00  0.00    +0.158 C 
ATOM      2  C   UNL     1       7.555  -2.702  24.760  0.00  0.00    +0.177 C 
ATOM      3  C   UNL     1       7.199  -4.169  25.094  0.00  0.00    +0.185 C 
ATOM      4  C   UNL     1       6.743  -5.072  23.991  0.00  0.00    +0.018 C 
ATOM      5  C   UNL     1       6.596  -4.682  22.716  0.00  0.00    +0.038 C 
ATOM      6  C   UNL     1       6.915  -3.312  22.279  0.00  0.00    +0.076 C 
ENDROOT
BRANCH   2   7
ATOM      7  O   UNL     1       6.841  -1.806  25.634  0.00  0.00    -0.386 OA
ATOM      8  H   UNL     1       6.960  -2.102  26.553  0.00  0.00    +0.210 HD
ENDBRANCH   2   7
BRANCH   5   9
ATOM      9  C   UNL     1       6.184  -5.669  21.683  0.00  0.00    +0.333 C 
ATOM     10  O   UNL     1       5.950  -5.323  20.535  0.00  0.00    -0.245 OA
BRANCH   9  11
ATOM     11  O   UNL     1       6.034  -6.935  22.099  0.00  0.00    -0.477 OA
ATOM     12  H   UNL     1       5.140  -7.303  22.239  0.00  0.00    +0.295 HD
ENDBRANCH   9  11
ENDBRANCH   5   9
BRANCH   1  13
ATOM     13  O   UNL     1       8.597  -1.703  22.829  0.00  0.00    -0.334 OA
BRANCH  13  15
ATOM     14  C   UNL     1       9.464   0.130  21.674  0.00  0.00    +0.087 C 
ATOM     15  C   UNL     1       8.692  -0.283  22.943  0.00  0.00    +0.276 C 
BRANCH  15  16
ATOM     16  C   UNL     1       7.329   0.535  23.043  0.00  0.00    +0.365 C 
ATOM     17  O   UNL     1       6.750   0.992  22.071  0.00  0.00    -0.245 OA
BRANCH  16  18
ATOM     18  O   UNL     1       6.798   0.706  24.270  0.00  0.00    -0.477 OA
ATOM     19  H   UNL     1       7.380   0.681  25.049  0.00  0.00    +0.295 HD
ENDBRANCH  16  18
ENDBRANCH  15  16
BRANCH  15  20
ATOM     20  O   UNL     1       9.481   0.032  24.092  0.00  0.00    -0.243 OA
BRANCH  20  21
ATOM     21  P   UNL     1      10.267   1.540  23.775  0.00  0.00    +0.475 P 
ATOM     22  O   UNL     1      10.970   2.889  23.490  0.00  0.00    -0.227 OA
BRANCH  21  23
ATOM     23  O   UNL     1      11.500   0.933  24.671  0.00  0.00    -0.303 OA
ATOM     24  H   UNL     1      11.505  -0.038  24.717  0.00  0.00    +0.222 HD
ENDBRANCH  21  23
BRANCH  21  25
ATOM     25  O   UNL     1       9.444   2.065  25.082  0.00  0.00    -0.303 OA
ATOM     26  H   UNL     1       8.497   2.064  24.857  0.00  0.00    +0.222 HD
ENDBRANCH  21  25
ENDBRANCH  20  21
ENDBRANCH  15  20
ENDBRANCH  13  15
ENDBRANCH   1  13
BRANCH   3  27
ATOM     27  O   UNL     1       6.315  -4.268  26.199  0.00  0.00    -0.277 OA
BRANCH  27  28
ATOM     28  P   UNL     1       6.443  -5.510  27.198  0.00  0.00    +0.473 P 
ATOM     29  O   UNL     1       5.727  -6.775  26.869  0.00  0.00    -0.228 OA
BRANCH  28  30
ATOM     30  O   UNL     1       6.179  -4.858  28.629  0.00  0.00    -0.303 OA
ATOM     31  H   UNL     1       6.055  -3.900  28.544  0.00  0.00    +0.222 HD
ENDBRANCH  28  30
BRANCH  28  32
ATOM     32  O   UNL     1       8.031  -5.700  27.251  0.00  0.00    -0.303 OA
ATOM     33  H   UNL     1       8.445  -4.967  27.741  0.00  0.00    +0.222 HD
ENDBRANCH  28  32
ENDBRANCH  27  28
ENDBRANCH   3  27
TORSDOF 15
ENDMDL
MODEL 5
REMARK VINA RESULT:      -6.3      1.791      3.787
REMARK  Name = 
REMARK  16 active torsions:
REMARK  status: ('A' for Active; 'I' for Inactive)
REMARK    1  A    between atoms: C_1  and  C_2
REMARK    2  A    between atoms: C_2  and  O_3
REMARK    3  A    between atoms: C_2  and  O_22
REMARK    4  A    between atoms: C_2  and  C_27
REMARK    5  A    between atoms: O_3  and  C_4
REMARK    6  A    between atoms: C_7  and  C_19
REMARK    7  A    between atoms: C_9  and  O_11
REMARK    8  A    between atoms: O_11  and  P_12
REMARK    9  A    between atoms: P_12  and  O_13
REMARK   10  A    between atoms: P_12  and  O_14
REMARK   11  A    between atoms: C_16  and  O_18
REMARK   12  A    between atoms: C_19  and  O_20
REMARK   13  A    between atoms: O_22  and  P_23
REMARK   14  A    between atoms: P_23  and  O_24
REMARK   15  A    between atoms: P_23  and  O_25
REMARK   16  A    between atoms: C_27  and  O_28
REMARK                            x       y       z     vdW  Elec       q    Type
REMARK                         _______ _______ _______ _____ _____    ______ ____
ROOT
ATOM      1  C   UNL     1       8.366  -1.809  24.206  0.00  0.00    +0.158 C 
ATOM      2  C   UNL     1       7.374  -2.284  23.125  0.00  0.00    +0.177 C 
ATOM      3  C   UNL     1       6.824  -3.721  23.280  0.00  0.00    +0.185 C 
ATOM      4  C   UNL     1       7.223  -4.523  24.478  0.00  0.00    +0.018 C 
ATOM      5  C   UNL     1       8.058  -4.082  25.431  0.00  0.00    +0.038 C 
ATOM      6  C   UNL     1       8.635  -2.727  25.394  0.00  0.00    +0.076 C 
ENDROOT
BRANCH   2   7
ATOM      7  O   UNL     1       7.976  -2.120  21.826  0.00  0.00    -0.386 OA
ATOM      8  H   UNL     1       8.081  -2.994  21.415  0.00  0.00    +0.210 HD
ENDBRANCH   2   7
BRANCH   5   9
ATOM      9  C   UNL     1       8.355  -4.938  26.610  0.00  0.00    +0.333 C 
ATOM     10  O   UNL     1       7.498  -5.654  27.103  0.00  0.00    -0.245 OA
BRANCH   9  11
ATOM     11  O   UNL     1       9.590  -4.834  27.122  0.00  0.00    -0.477 OA
ATOM     12  H   UNL     1       9.750  -5.044  28.063  0.00  0.00    +0.295 HD
ENDBRANCH   9  11
ENDBRANCH   5   9
BRANCH   1  13
ATOM     13  O   UNL     1       7.848  -0.564  24.746  0.00  0.00    -0.334 OA
BRANCH  13  15
ATOM     14  C   UNL     1       7.928   1.730  25.167  0.00  0.00    +0.087 C 
ATOM     15  C   UNL     1       8.556   0.601  24.325  0.00  0.00    +0.276 C 
BRANCH  15  16
ATOM     16  C   UNL     1      10.139   0.601  24.508  0.00  0.00    +0.365 C 
ATOM     17  O   UNL     1      10.920   0.755  23.582  0.00  0.00    -0.245 OA
BRANCH  16  18
ATOM     18  O   UNL     1      10.617   0.435  25.756  0.00  0.00    -0.477 OA
ATOM     19  H   UNL     1      11.200  -0.319  25.948  0.00  0.00    +0.295 HD
ENDBRANCH  16  18
ENDBRANCH  15  16
BRANCH  15  20
ATOM     20  O   UNL     1       8.272   0.836  22.944  0.00  0.00    -0.243 OA
BRANCH  20  21
ATOM     21  P   UNL     1       8.053   2.542  22.750  0.00  0.00    +0.475 P 
ATOM     22  O   UNL     1       7.858   4.068  22.577  0.00  0.00    -0.227 OA
BRANCH  21  23
ATOM     23  O   UNL     1       6.798   2.135  21.776  0.00  0.00    -0.303 OA
ATOM     24  H   UNL     1       6.982   1.373  21.203  0.00  0.00    +0.222 HD
ENDBRANCH  21  23
BRANCH  21  25
ATOM     25  O   UNL     1       9.157   2.389  21.558  0.00  0.00    -0.303 OA
ATOM     26  H   UNL     1       9.445   3.284  21.304  0.00  0.00    +0.222 HD
ENDBRANCH  21  25
ENDBRANCH  20  21
ENDBRANCH  15  20
ENDBRANCH  13  15
ENDBRANCH   1  13
BRANCH   3  27
ATOM     27  O   UNL     1       6.997  -4.492  22.101  0.00  0.00    -0.277 OA
BRANCH  27  28
ATOM     28  P   UNL     1       5.898  -5.585  21.709  0.00  0.00    +0.473 P 
ATOM     29  O   UNL     1       4.514  -5.436  22.241  0.00  0.00    -0.228 OA
BRANCH  28  30
ATOM     30  O   UNL     1       6.648  -6.968  21.967  0.00  0.00    -0.303 OA
ATOM     31  H   UNL     1       6.273  -7.664  21.405  0.00  0.00    +0.222 HD
ENDBRANCH  28  30
BRANCH  28  32
ATOM     32  O   UNL     1       5.952  -5.516  20.111  0.00  0.00    -0.303 OA
ATOM     33  H   UNL     1       6.690  -6.054  19.772  0.00  0.00    +0.222 HD
ENDBRANCH  28  32
ENDBRANCH  27  28
ENDBRANCH   3  27
TORSDOF 15
ENDMDL
MODEL 6
REMARK VINA RESULT:      -6.1      1.951      3.024
REMARK  Name = 
REMARK  16 active torsions:
REMARK  status: ('A' for Active; 'I' for Inactive)
REMARK    1  A    between atoms: C_1  and  C_2
REMARK    2  A    between atoms: C_2  and  O_3
REMARK    3  A    between atoms: C_2  and  O_22
REMARK    4  A    between atoms: C_2  and  C_27
REMARK    5  A    between atoms: O_3  and  C_4
REMARK    6  A    between atoms: C_7  and  C_19
REMARK    7  A    between atoms: C_9  and  O_11
REMARK    8  A    between atoms: O_11  and  P_12
REMARK    9  A    between atoms: P_12  and  O_13
REMARK   10  A    between atoms: P_12  and  O_14
REMARK   11  A    between atoms: C_16  and  O_18
REMARK   12  A    between atoms: C_19  and  O_20
REMARK   13  A    between atoms: O_22  and  P_23
REMARK   14  A    between atoms: P_23  and  O_24
REMARK   15  A    between atoms: P_23  and  O_25
REMARK   16  A    between atoms: C_27  and  O_28
REMARK                            x       y       z     vdW  Elec       q    Type
REMARK                         _______ _______ _______ _____ _____    ______ ____
ROOT
ATOM      1  C   UNL     1       7.433  -1.892  23.601  0.00  0.00    +0.158 C 
ATOM      2  C   UNL     1       8.529  -2.977  23.636  0.00  0.00    +0.177 C 
ATOM      3  C   UNL     1       8.045  -4.439  23.784  0.00  0.00    +0.185 C 
ATOM      4  C   UNL     1       6.575  -4.714  23.816  0.00  0.00    +0.018 C 
ATOM      5  C   UNL     1       5.632  -3.762  23.748  0.00  0.00    +0.038 C 
ATOM      6  C   UNL     1       5.974  -2.338  23.594  0.00  0.00    +0.076 C 
ENDROOT
BRANCH   2   7
ATOM      7  O   UNL     1       9.476  -2.659  24.673  0.00  0.00    -0.386 OA
ATOM      8  H   UNL     1      10.344  -3.022  24.428  0.00  0.00    +0.210 HD
ENDBRANCH   2   7
BRANCH   5   9
ATOM      9  C   UNL     1       4.195  -4.143  23.738  0.00  0.00    +0.333 C 
ATOM     10  O   UNL     1       3.731  -4.839  22.848  0.00  0.00    -0.245 OA
BRANCH   9  11
ATOM     11  O   UNL     1       3.441  -3.636  24.724  0.00  0.00    -0.477 OA
ATOM     12  H   UNL     1       3.704  -3.762  25.657  0.00  0.00    +0.295 HD
ENDBRANCH   9  11
ENDBRANCH   5   9
BRANCH   1  13
ATOM     13  O   UNL     1       7.640  -1.112  22.394  0.00  0.00    -0.334 OA
BRANCH  13  15
ATOM     14  C   UNL     1       9.366   0.304  21.712  0.00  0.00    +0.087 C 
ATOM     15  C   UNL     1       8.125   0.211  22.623  0.00  0.00    +0.276 C 
BRANCH  15  16
ATOM     16  C   UNL     1       7.131   1.418  22.315  0.00  0.00    +0.365 C 
ATOM     17  O   UNL     1       7.409   2.338  21.562  0.00  0.00    -0.245 OA
BRANCH  16  18
ATOM     18  O   UNL     1       5.924   1.393  22.912  0.00  0.00    -0.477 OA
ATOM     19  H   UNL     1       5.466   0.543  23.028  0.00  0.00    +0.295 HD
ENDBRANCH  16  18
ENDBRANCH  15  16
BRANCH  15  20
ATOM     20  O   UNL     1       8.538   0.317  23.987  0.00  0.00    -0.243 OA
BRANCH  20  21
ATOM     21  P   UNL     1       9.953   1.312  24.016  0.00  0.00    +0.475 P 
ATOM     22  O   UNL     1      11.220   2.202  24.042  0.00  0.00    -0.227 OA
BRANCH  21  23
ATOM     23  O   UNL     1      10.471   0.308  25.205  0.00  0.00    -0.303 OA
ATOM     24  H   UNL     1      10.813   0.774  25.986  0.00  0.00    +0.222 HD
ENDBRANCH  21  23
BRANCH  21  25
ATOM     25  O   UNL     1       9.088   2.241  25.042  0.00  0.00    -0.303 OA
ATOM     26  H   UNL     1       8.897   1.709  25.835  0.00  0.00    +0.222 HD
ENDBRANCH  21  25
ENDBRANCH  20  21
ENDBRANCH  15  20
ENDBRANCH  13  15
ENDBRANCH   1  13
BRANCH   3  27
ATOM     27  O   UNL     1       8.688  -5.110  24.856  0.00  0.00    -0.277 OA
BRANCH  27  28
ATOM     28  P   UNL     1       8.310  -4.726  26.362  0.00  0.00    +0.473 P 
ATOM     29  O   UNL     1       7.401  -3.571  26.603  0.00  0.00    -0.228 OA
BRANCH  28  30
ATOM     30  O   UNL     1       9.721  -4.729  27.106  0.00  0.00    -0.303 OA
ATOM     31  H   UNL     1       9.633  -5.113  27.993  0.00  0.00    +0.222 HD
ENDBRANCH  28  30
BRANCH  28  32
ATOM     32  O   UNL     1       7.700  -6.109  26.888  0.00  0.00    -0.303 OA
ATOM     33  H   UNL     1       8.413  -6.740  27.091  0.00  0.00    +0.222 HD
ENDBRANCH  28  32
ENDBRANCH  27  28
ENDBRANCH   3  27
TORSDOF 15
ENDMDL
MODEL 7
REMARK VINA RESULT:      -6.1      1.308      1.928
REMARK  Name = 
REMARK  16 active torsions:
REMARK  status: ('A' for Active; 'I' for Inactive)
REMARK    1  A    between atoms: C_1  and  C_2
REMARK    2  A    between atoms: C_2  and  O_3
REMARK    3  A    between atoms: C_2  and  O_22
REMARK    4  A    between atoms: C_2  and  C_27
REMARK    5  A    between atoms: O_3  and  C_4
REMARK    6  A    between atoms: C_7  and  C_19
REMARK    7  A    between atoms: C_9  and  O_11
REMARK    8  A    between atoms: O_11  and  P_12
REMARK    9  A    between atoms: P_12  and  O_13
REMARK   10  A    between atoms: P_12  and  O_14
REMARK   11  A    between atoms: C_16  and  O_18
REMARK   12  A    between atoms: C_19  and  O_20
REMARK   13  A    between atoms: O_22  and  P_23
REMARK   14  A    between atoms: P_23  and  O_24
REMARK   15  A    between atoms: P_23  and  O_25
REMARK   16  A    between atoms: C_27  and  O_28
REMARK                            x       y       z     vdW  Elec       q    Type
REMARK                         _______ _______ _______ _____ _____    ______ ____
ROOT
ATOM      1  C   UNL     1       6.651  -2.405  24.348  0.00  0.00    +0.158 C 
ATOM      2  C   UNL     1       6.798  -3.107  25.714  0.00  0.00    +0.177 C 
ATOM      3  C   UNL     1       6.597  -4.640  25.725  0.00  0.00    +0.185 C 
ATOM      4  C   UNL     1       6.345  -5.346  24.430  0.00  0.00    +0.018 C 
ATOM      5  C   UNL     1       6.257  -4.726  23.243  0.00  0.00    +0.038 C 
ATOM      6  C   UNL     1       6.442  -3.270  23.110  0.00  0.00    +0.076 C 
ENDROOT
BRANCH   2   7
ATOM      7  O   UNL     1       5.912  -2.483  26.664  0.00  0.00    -0.386 OA
ATOM      8  H   UNL     1       6.110  -2.827  27.551  0.00  0.00    +0.210 HD
ENDBRANCH   2   7
BRANCH   5   9
ATOM      9  C   UNL     1       6.053  -5.522  22.005  0.00  0.00    +0.333 C 
ATOM     10  O   UNL     1       5.822  -4.980  20.935  0.00  0.00    -0.245 OA
BRANCH   9  11
ATOM     11  O   UNL     1       6.085  -6.856  22.146  0.00  0.00    -0.477 OA
ATOM     12  H   UNL     1       6.778  -7.274  22.693  0.00  0.00    +0.295 HD
ENDBRANCH   9  11
ENDBRANCH   5   9
BRANCH   1  13
ATOM     13  O   UNL     1       7.865  -1.639  24.127  0.00  0.00    -0.334 OA
BRANCH  13  15
ATOM     14  C   UNL     1       6.304   0.094  24.167  0.00  0.00    +0.087 C 
ATOM     15  C   UNL     1       7.769  -0.263  24.491  0.00  0.00    +0.276 C 
BRANCH  15  16
ATOM     16  C   UNL     1       8.101   0.119  26.002  0.00  0.00    +0.365 C 
ATOM     17  O   UNL     1       7.244   0.403  26.824  0.00  0.00    -0.245 OA
BRANCH  16  18
ATOM     18  O   UNL     1       9.395   0.105  26.373  0.00  0.00    -0.477 OA
ATOM     19  H   UNL     1       9.842  -0.747  26.517  0.00  0.00    +0.295 HD
ENDBRANCH  16  18
ENDBRANCH  15  16
BRANCH  15  20
ATOM     20  O   UNL     1       8.633   0.497  23.644  0.00  0.00    -0.243 OA
BRANCH  20  21
ATOM     21  P   UNL     1       9.574  -0.631  22.730  0.00  0.00    +0.475 P 
ATOM     22  O   UNL     1      10.416  -1.641  21.912  0.00  0.00    -0.227 OA
BRANCH  21  23
ATOM     23  O   UNL     1      10.758  -0.326  23.824  0.00  0.00    -0.303 OA
ATOM     24  H   UNL     1      11.390   0.352  23.533  0.00  0.00    +0.222 HD
ENDBRANCH  21  23
BRANCH  21  25
ATOM     25  O   UNL     1       9.950   0.665  21.813  0.00  0.00    -0.303 OA
ATOM     26  H   UNL     1       9.416   1.416  22.128  0.00  0.00    +0.222 HD
ENDBRANCH  21  25
ENDBRANCH  20  21
ENDBRANCH  15  20
ENDBRANCH  13  15
ENDBRANCH   1  13
BRANCH   3  27
ATOM     27  O   UNL     1       5.644  -5.049  26.693  0.00  0.00    -0.277 OA
BRANCH  27  28
ATOM     28  P   UNL     1       6.141  -5.795  28.018  0.00  0.00    +0.473 P 
ATOM     29  O   UNL     1       5.814  -5.199  29.344  0.00  0.00    -0.228 OA
BRANCH  28  30
ATOM     30  O   UNL     1       7.672  -6.116  27.705  0.00  0.00    -0.303 OA
ATOM     31  H   UNL     1       7.988  -6.834  28.276  0.00  0.00    +0.222 HD
ENDBRANCH  28  30
BRANCH  28  32
ATOM     32  O   UNL     1       5.491  -7.243  27.818  0.00  0.00    -0.303 OA
ATOM     33  H   UNL     1       4.840  -7.423  28.520  0.00  0.00    +0.222 HD
ENDBRANCH  28  32
ENDBRANCH  27  28
ENDBRANCH   3  27
TORSDOF 15
ENDMDL
MODEL 8
REMARK VINA RESULT:      -6.0      2.016      7.218
REMARK  Name = 
REMARK  16 active torsions:
REMARK  status: ('A' for Active; 'I' for Inactive)
REMARK    1  A    between atoms: C_1  and  C_2
REMARK    2  A    between atoms: C_2  and  O_3
REMARK    3  A    between atoms: C_2  and  O_22
REMARK    4  A    between atoms: C_2  and  C_27
REMARK    5  A    between atoms: O_3  and  C_4
REMARK    6  A    between atoms: C_7  and  C_19
REMARK    7  A    between atoms: C_9  and  O_11
REMARK    8  A    between atoms: O_11  and  P_12
REMARK    9  A    between atoms: P_12  and  O_13
REMARK   10  A    between atoms: P_12  and  O_14
REMARK   11  A    between atoms: C_16  and  O_18
REMARK   12  A    between atoms: C_19  and  O_20
REMARK   13  A    between atoms: O_22  and  P_23
REMARK   14  A    between atoms: P_23  and  O_24
REMARK   15  A    between atoms: P_23  and  O_25
REMARK   16  A    between atoms: C_27  and  O_28
REMARK                            x       y       z     vdW  Elec       q    Type
REMARK                         _______ _______ _______ _____ _____    ______ ____
ROOT
ATOM      1  C   UNL     1       6.135  -2.482  24.199  0.00  0.00    +0.158 C 
ATOM      2  C   UNL     1       7.452  -1.958  23.592  0.00  0.00    +0.177 C 
ATOM      3  C   UNL     1       7.800  -0.478  23.879  0.00  0.00    +0.185 C 
ATOM      4  C   UNL     1       6.896   0.319  24.764  0.00  0.00    +0.018 C 
ATOM      5  C   UNL     1       5.771  -0.163  25.316  0.00  0.00    +0.038 C 
ATOM      6  C   UNL     1       5.345  -1.559  25.120  0.00  0.00    +0.076 C 
ENDROOT
BRANCH   2   7
ATOM      7  O   UNL     1       7.449  -2.201  22.172  0.00  0.00    -0.386 OA
ATOM      8  H   UNL     1       6.547  -2.436  21.895  0.00  0.00    +0.210 HD
ENDBRANCH   2   7
BRANCH   5   9
ATOM      9  C   UNL     1       4.964   0.696  26.222  0.00  0.00    +0.333 C 
ATOM     10  O   UNL     1       3.921   1.207  25.846  0.00  0.00    -0.245 OA
BRANCH   9  11
ATOM     11  O   UNL     1       5.476   0.915  27.442  0.00  0.00    -0.477 OA
ATOM     12  H   UNL     1       6.292   1.443  27.545  0.00  0.00    +0.295 HD
ENDBRANCH   9  11
ENDBRANCH   5   9
BRANCH   1  13
ATOM     13  O   UNL     1       6.461  -3.669  24.970  0.00  0.00    -0.334 OA
BRANCH  13  15
ATOM     14  C   UNL     1       5.090  -4.692  23.382  0.00  0.00    +0.087 C 
ATOM     15  C   UNL     1       6.354  -4.893  24.243  0.00  0.00    +0.276 C 
BRANCH  15  16
ATOM     16  C   UNL     1       7.584  -5.303  23.317  0.00  0.00    +0.365 C 
ATOM     17  O   UNL     1       8.681  -5.605  23.757  0.00  0.00    -0.245 OA
BRANCH  16  18
ATOM     18  O   UNL     1       7.376  -5.325  21.986  0.00  0.00    -0.477 OA
ATOM     19  H   UNL     1       8.115  -5.537  21.391  0.00  0.00    +0.295 HD
ENDBRANCH  16  18
ENDBRANCH  15  16
BRANCH  15  20
ATOM     20  O   UNL     1       6.124  -5.957  25.168  0.00  0.00    -0.243 OA
BRANCH  20  21
ATOM     21  P   UNL     1       6.341  -5.309  26.758  0.00  0.00    +0.475 P 
ATOM     22  O   UNL     1       6.535  -4.728  28.180  0.00  0.00    -0.227 OA
BRANCH  21  23
ATOM     23  O   UNL     1       7.868  -5.897  26.644  0.00  0.00    -0.303 OA
ATOM     24  H   UNL     1       8.231  -6.203  27.492  0.00  0.00    +0.222 HD
ENDBRANCH  21  23
BRANCH  21  25
ATOM     25  O   UNL     1       5.723  -6.735  27.254  0.00  0.00    -0.303 OA
ATOM     26  H   UNL     1       5.256  -7.135  26.498  0.00  0.00    +0.222 HD
ENDBRANCH  21  25
ENDBRANCH  20  21
ENDBRANCH  15  20
ENDBRANCH  13  15
ENDBRANCH   1  13
BRANCH   3  27
ATOM     27  O   UNL     1       8.081   0.246  22.692  0.00  0.00    -0.277 OA
BRANCH  27  28
ATOM     28  P   UNL     1       9.601   0.541  22.292  0.00  0.00    +0.473 P 
ATOM     29  O   UNL     1      10.636   0.558  23.364  0.00  0.00    -0.228 OA
BRANCH  28  30
ATOM     30  O   UNL     1       9.490   1.820  21.346  0.00  0.00    -0.303 OA
ATOM     31  H   UNL     1       9.237   1.552  20.448  0.00  0.00    +0.222 HD
ENDBRANCH  28  30
BRANCH  28  32
ATOM     32  O   UNL     1       9.861  -0.605  21.207  0.00  0.00    -0.303 OA
ATOM     33  H   UNL     1      10.817  -0.737  21.073  0.00  0.00    +0.222 HD
ENDBRANCH  28  32
ENDBRANCH  27  28
ENDBRANCH   3  27
TORSDOF 15
ENDMDL
MODEL 9
REMARK VINA RESULT:      -6.0      2.326      4.005
REMARK  Name = 
REMARK  16 active torsions:
REMARK  status: ('A' for Active; 'I' for Inactive)
REMARK    1  A    between atoms: C_1  and  C_2
REMARK    2  A    between atoms: C_2  and  O_3
REMARK    3  A    between atoms: C_2  and  O_22
REMARK    4  A    between atoms: C_2  and  C_27
REMARK    5  A    between atoms: O_3  and  C_4
REMARK    6  A    between atoms: C_7  and  C_19
REMARK    7  A    between atoms: C_9  and  O_11
REMARK    8  A    between atoms: O_11  and  P_12
REMARK    9  A    between atoms: P_12  and  O_13
REMARK   10  A    between atoms: P_12  and  O_14
REMARK   11  A    between atoms: C_16  and  O_18
REMARK   12  A    between atoms: C_19  and  O_20
REMARK   13  A    between atoms: O_22  and  P_23
REMARK   14  A    between atoms: P_23  and  O_24
REMARK   15  A    between atoms: P_23  and  O_25
REMARK   16  A    between atoms: C_27  and  O_28
REMARK                            x       y       z     vdW  Elec       q    Type
REMARK                         _______ _______ _______ _____ _____    ______ ____
ROOT
ATOM      1  C   UNL     1       7.549  -1.716  24.434  0.00  0.00    +0.158 C 
ATOM      2  C   UNL     1       7.082  -2.844  23.492  0.00  0.00    +0.177 C 
ATOM      3  C   UNL     1       5.664  -3.408  23.743  0.00  0.00    +0.185 C 
ATOM      4  C   UNL     1       4.821  -2.793  24.815  0.00  0.00    +0.018 C 
ATOM      5  C   UNL     1       5.227  -1.787  25.603  0.00  0.00    +0.038 C 
ATOM      6  C   UNL     1       6.553  -1.164  25.449  0.00  0.00    +0.076 C 
ENDROOT
BRANCH   2   7
ATOM      7  O   UNL     1       8.051  -3.910  23.514  0.00  0.00    -0.386 OA
ATOM      8  H   UNL     1       7.608  -4.743  23.282  0.00  0.00    +0.210 HD
ENDBRANCH   2   7
BRANCH   5   9
ATOM      9  C   UNL     1       4.296  -1.212  26.609  0.00  0.00    +0.333 C 
ATOM     10  O   UNL     1       4.019  -1.817  27.633  0.00  0.00    -0.245 OA
BRANCH   9  11
ATOM     11  O   UNL     1       3.745  -0.029  26.300  0.00  0.00    -0.477 OA
ATOM     12  H   UNL     1       3.975   0.769  26.815  0.00  0.00    +0.295 HD
ENDBRANCH   9  11
ENDBRANCH   5   9
BRANCH   1  13
ATOM     13  O   UNL     1       7.960  -0.601  23.598  0.00  0.00    -0.334 OA
BRANCH  13  15
ATOM     14  C   UNL     1       9.870  -0.464  24.931  0.00  0.00    +0.087 C 
ATOM     15  C   UNL     1       9.373  -0.450  23.471  0.00  0.00    +0.276 C 
BRANCH  15  16
ATOM     16  C   UNL     1      10.153  -1.548  22.620  0.00  0.00    +0.365 C 
ATOM     17  O   UNL     1      10.787  -2.461  23.125  0.00  0.00    -0.245 OA
BRANCH  16  18
ATOM     18  O   UNL     1      10.082  -1.455  21.278  0.00  0.00    -0.477 OA
ATOM     19  H   UNL     1       9.242  -1.197  20.861  0.00  0.00    +0.295 HD
ENDBRANCH  16  18
ENDBRANCH  15  16
BRANCH  15  20
ATOM     20  O   UNL     1       9.647   0.829  22.897  0.00  0.00    -0.243 OA
BRANCH  20  21
ATOM     21  P   UNL     1       8.132   1.503  22.402  0.00  0.00    +0.475 P 
ATOM     22  O   UNL     1       6.776   2.104  21.959  0.00  0.00    -0.227 OA
BRANCH  21  23
ATOM     23  O   UNL     1       8.606   1.107  20.882  0.00  0.00    -0.303 OA
ATOM     24  H   UNL     1       9.078   1.822  20.424  0.00  0.00    +0.222 HD
ENDBRANCH  21  23
BRANCH  21  25
ATOM     25  O   UNL     1       8.943   2.919  22.392  0.00  0.00    -0.303 OA
ATOM     26  H   UNL     1       9.096   3.179  23.318  0.00  0.00    +0.222 HD
ENDBRANCH  21  25
ENDBRANCH  20  21
ENDBRANCH  15  20
ENDBRANCH  13  15
ENDBRANCH   1  13
BRANCH   3  27
ATOM     27  O   UNL     1       5.664  -4.820  23.874  0.00  0.00    -0.277 OA
BRANCH  27  28
ATOM     28  P   UNL     1       4.576  -5.683  23.081  0.00  0.00    +0.473 P 
ATOM     29  O   UNL     1       3.205  -5.125  22.905  0.00  0.00    -0.228 OA
BRANCH  28  30
ATOM     30  O   UNL     1       4.710  -7.132  23.733  0.00  0.00    -0.303 OA
ATOM     31  H   UNL     1       5.342  -7.670  23.229  0.00  0.00    +0.222 HD
ENDBRANCH  28  30
BRANCH  28  32
ATOM     32  O   UNL     1       5.326  -5.918  21.688  0.00  0.00    -0.303 OA
ATOM     33  H   UNL     1       4.739  -5.695  20.943  0.00  0.00    +0.222 HD
ENDBRANCH  28  32
ENDBRANCH  27  28
ENDBRANCH   3  27
TORSDOF 15
ENDMDL
