MODEL 1
REMARK VINA RESULT:      -7.2      0.000      0.000
REMARK  Name = 
REMARK  6 active torsions:
REMARK  status: ('A' for Active; 'I' for Inactive)
REMARK    1  A    between atoms: C_1  and  C_2
REMARK    2  A    between atoms: C_4  and  C_5
REMARK    3  A    between atoms: C_6  and  N_7
REMARK    4  A    between atoms: N_11  and  C_12
REMARK    5  A    between atoms: C_15  and  C_18
REMARK    6  A    between atoms: C_23  and  C_24
REMARK                            x       y       z     vdW  Elec       q    Type
REMARK                         _______ _______ _______ _____ _____    ______ ____
ROOT
ATOM      1  N   UNL     1       8.378  -4.362  23.901  0.00  0.00    -0.299 N 
ATOM      2  H   UNL     1       9.171  -4.942  23.661  0.00  0.00    +0.154 HD
ATOM      3  C   UNL     1       8.601  -2.999  23.623  0.00  0.00    +0.128 A 
ATOM      4  C   UNL     1       9.880  -2.515  23.819  0.00  0.00    +0.063 A 
ATOM      5  C   UNL     1      10.061  -1.169  23.644  0.00  0.00    +0.118 A 
ATOM      6  N   UNL     1       9.062  -0.335  23.333  0.00  0.00    -0.223 NA
ATOM      7  C   UNL     1       7.841  -0.868  23.175  0.00  0.00    +0.221 A 
ATOM      8  N   UNL     1       6.739  -0.060  22.904  0.00  0.00    -0.284 N 
ATOM      9  H   UNL     1       5.924  -0.642  22.779  0.00  0.00    +0.155 HD
ATOM     10  N   UNL     1       7.591  -2.183  23.273  0.00  0.00    -0.199 NA
ENDROOT
BRANCH   1  16
ATOM     11  C   UNL     1       3.278  -6.815  24.854  0.00  0.00    +0.044 C 
ATOM     12  C   UNL     1       4.655  -6.273  24.623  0.00  0.00    -0.050 A 
ATOM     13  C   UNL     1       5.147  -6.167  23.323  0.00  0.00    +0.008 A 
ATOM     14  C   UNL     1       6.420  -5.629  23.045  0.00  0.00    -0.029 A 
ATOM     15  C   UNL     1       6.822  -5.674  21.597  0.00  0.00    +0.045 C 
ATOM     16  C   UNL     1       7.195  -5.107  24.101  0.00  0.00    +0.038 A 
ATOM     17  C   UNL     1       6.738  -5.308  25.435  0.00  0.00    -0.029 A 
ATOM     18  C   UNL     1       7.600  -4.974  26.626  0.00  0.00    +0.045 C 
ATOM     19  C   UNL     1       5.469  -5.864  25.677  0.00  0.00    +0.008 A 
ENDBRANCH   1  16
BRANCH   8  20
ATOM     20  C   UNL     1       6.534   1.317  23.028  0.00  0.00    +0.034 A 
ATOM     21  C   UNL     1       5.741   1.794  24.086  0.00  0.00    +0.024 A 
ATOM     22  C   UNL     1       5.425   3.151  24.205  0.00  0.00    +0.020 A 
ATOM     23  C   UNL     1       5.895   4.066  23.257  0.00  0.00    +0.052 A 
ATOM     24  C   UNL     1       6.686   3.613  22.202  0.00  0.00    +0.020 A 
ATOM     25  C   UNL     1       6.993   2.253  22.091  0.00  0.00    +0.024 A 
BRANCH  23  26
ATOM     26  C   UNL     1       5.554   5.456  23.356  0.00  0.00    +0.099 C 
ATOM     27  N   UNL     1       5.273   6.576  23.438  0.00  0.00    -0.191 NA
ENDBRANCH  23  26
ENDBRANCH   8  20
TORSDOF 3
ENDMDL
MODEL 2
REMARK VINA RESULT:      -7.2      2.937      3.775
REMARK  Name = 
REMARK  6 active torsions:
REMARK  status: ('A' for Active; 'I' for Inactive)
REMARK    1  A    between atoms: C_1  and  C_2
REMARK    2  A    between atoms: C_4  and  C_5
REMARK    3  A    between atoms: C_6  and  N_7
REMARK    4  A    between atoms: N_11  and  C_12
REMARK    5  A    between atoms: C_15  and  C_18
REMARK    6  A    between atoms: C_23  and  C_24
REMARK                            x       y       z     vdW  Elec       q    Type
REMARK                         _______ _______ _______ _____ _____    ______ ____
ROOT
ATOM      1  N   UNL     1       6.526  -5.547  24.602  0.00  0.00    -0.299 N 
ATOM      2  H   UNL     1       6.762  -6.530  24.621  0.00  0.00    +0.154 HD
ATOM      3  C   UNL     1       7.647  -4.725  24.370  0.00  0.00    +0.128 A 
ATOM      4  C   UNL     1       8.848  -5.125  24.926  0.00  0.00    +0.063 A 
ATOM      5  C   UNL     1       9.906  -4.267  24.781  0.00  0.00    +0.118 A 
ATOM      6  N   UNL     1       9.804  -3.081  24.169  0.00  0.00    -0.223 NA
ATOM      7  C   UNL     1       8.605  -2.748  23.669  0.00  0.00    +0.221 A 
ATOM      8  N   UNL     1       8.403  -1.508  23.065  0.00  0.00    -0.284 N 
ATOM      9  H   UNL     1       7.456  -1.459  22.718  0.00  0.00    +0.155 HD
ATOM     10  N   UNL     1       7.533  -3.554  23.718  0.00  0.00    -0.199 NA
ENDROOT
BRANCH   1  16
ATOM     11  C   UNL     1       0.818  -5.278  24.063  0.00  0.00    +0.044 C 
ATOM     12  C   UNL     1       2.314  -5.249  24.157  0.00  0.00    -0.050 A 
ATOM     13  C   UNL     1       2.923  -4.834  25.340  0.00  0.00    +0.008 A 
ATOM     14  C   UNL     1       4.324  -4.824  25.498  0.00  0.00    -0.029 A 
ATOM     15  C   UNL     1       4.808  -4.264  26.806  0.00  0.00    +0.045 C 
ATOM     16  C   UNL     1       5.139  -5.319  24.459  0.00  0.00    +0.038 A 
ATOM     17  C   UNL     1       4.524  -5.645  23.217  0.00  0.00    -0.029 A 
ATOM     18  C   UNL     1       5.339  -5.977  21.992  0.00  0.00    +0.045 C 
ATOM     19  C   UNL     1       3.123  -5.628  23.089  0.00  0.00    +0.008 A 
ENDBRANCH   1  16
BRANCH   8  20
ATOM     20  C   UNL     1       9.142  -0.322  23.091  0.00  0.00    +0.034 A 
ATOM     21  C   UNL     1       9.520   0.216  24.333  0.00  0.00    +0.024 A 
ATOM     22  C   UNL     1      10.178   1.447  24.423  0.00  0.00    +0.020 A 
ATOM     23  C   UNL     1      10.468   2.173  23.264  0.00  0.00    +0.052 A 
ATOM     24  C   UNL     1      10.105   1.655  22.022  0.00  0.00    +0.020 A 
ATOM     25  C   UNL     1       9.444   0.424  21.944  0.00  0.00    +0.024 A 
BRANCH  23  26
ATOM     26  C   UNL     1      11.119   3.449  23.349  0.00  0.00    +0.099 C 
ATOM     27  N   UNL     1      11.646   4.478  23.410  0.00  0.00    -0.191 NA
ENDBRANCH  23  26
ENDBRANCH   8  20
TORSDOF 3
ENDMDL
MODEL 3
REMARK VINA RESULT:      -7.1      0.409      1.785
REMARK  Name = 
REMARK  6 active torsions:
REMARK  status: ('A' for Active; 'I' for Inactive)
REMARK    1  A    between atoms: C_1  and  C_2
REMARK    2  A    between atoms: C_4  and  C_5
REMARK    3  A    between atoms: C_6  and  N_7
REMARK    4  A    between atoms: N_11  and  C_12
REMARK    5  A    between atoms: C_15  and  C_18
REMARK    6  A    between atoms: C_23  and  C_24
REMARK                            x       y       z     vdW  Elec       q    Type
REMARK                         _______ _______ _______ _____ _____    ______ ____
ROOT
ATOM      1  N   UNL     1       8.162  -4.336  23.952  0.00  0.00    -0.299 N 
ATOM      2  H   UNL     1       8.900  -4.983  23.708  0.00  0.00    +0.154 HD
ATOM      3  C   UNL     1       8.475  -3.005  23.610  0.00  0.00    +0.128 A 
ATOM      4  C   UNL     1       9.794  -2.613  23.743  0.00  0.00    +0.063 A 
ATOM      5  C   UNL     1      10.068  -1.292  23.508  0.00  0.00    +0.118 A 
ATOM      6  N   UNL     1       9.123  -0.397  23.198  0.00  0.00    -0.223 NA
ATOM      7  C   UNL     1       7.860  -0.841  23.103  0.00  0.00    +0.221 A 
ATOM      8  N   UNL     1       6.812   0.037  22.838  0.00  0.00    -0.284 N 
ATOM      9  H   UNL     1       5.951  -0.486  22.764  0.00  0.00    +0.155 HD
ATOM     10  N   UNL     1       7.516  -2.128  23.263  0.00  0.00    -0.199 NA
ENDROOT
BRANCH   1  16
ATOM     11  C   UNL     1       3.504  -7.527  24.982  0.00  0.00    +0.044 C 
ATOM     12  C   UNL     1       4.653  -6.611  24.686  0.00  0.00    -0.050 A 
ATOM     13  C   UNL     1       5.265  -5.914  25.727  0.00  0.00    +0.008 A 
ATOM     14  C   UNL     1       6.373  -5.069  25.513  0.00  0.00    -0.029 A 
ATOM     15  C   UNL     1       6.849  -4.330  26.732  0.00  0.00    +0.045 C 
ATOM     16  C   UNL     1       6.935  -4.981  24.222  0.00  0.00    +0.038 A 
ATOM     17  C   UNL     1       6.250  -5.610  23.144  0.00  0.00    -0.029 A 
ATOM     18  C   UNL     1       6.658  -5.392  21.709  0.00  0.00    +0.045 C 
ATOM     19  C   UNL     1       5.135  -6.433  23.392  0.00  0.00    +0.008 A 
ENDBRANCH   1  16
BRANCH   8  20
ATOM     20  C   UNL     1       6.715   1.429  22.913  0.00  0.00    +0.034 A 
ATOM     21  C   UNL     1       5.945   2.003  23.939  0.00  0.00    +0.024 A 
ATOM     22  C   UNL     1       5.736   3.385  24.007  0.00  0.00    +0.020 A 
ATOM     23  C   UNL     1       6.292   4.226  23.039  0.00  0.00    +0.052 A 
ATOM     24  C   UNL     1       7.063   3.677  22.015  0.00  0.00    +0.020 A 
ATOM     25  C   UNL     1       7.262   2.294  21.954  0.00  0.00    +0.024 A 
BRANCH  23  26
ATOM     26  C   UNL     1       6.062   5.642  23.086  0.00  0.00    +0.099 C 
ATOM     27  N   UNL     1       5.882   6.784  23.129  0.00  0.00    -0.191 NA
ENDBRANCH  23  26
ENDBRANCH   8  20
TORSDOF 3
ENDMDL
MODEL 4
REMARK VINA RESULT:      -7.0      2.949      3.438
REMARK  Name = 
REMARK  6 active torsions:
REMARK  status: ('A' for Active; 'I' for Inactive)
REMARK    1  A    between atoms: C_1  and  C_2
REMARK    2  A    between atoms: C_4  and  C_5
REMARK    3  A    between atoms: C_6  and  N_7
REMARK    4  A    between atoms: N_11  and  C_12
REMARK    5  A    between atoms: C_15  and  C_18
REMARK    6  A    between atoms: C_23  and  C_24
REMARK                            x       y       z     vdW  Elec       q    Type
REMARK                         _______ _______ _______ _____ _____    ______ ____
ROOT
ATOM      1  N   UNL     1       6.555  -5.656  24.899  0.00  0.00    -0.299 N 
ATOM      2  H   UNL     1       6.788  -6.640  24.896  0.00  0.00    +0.154 HD
ATOM      3  C   UNL     1       7.661  -4.838  24.591  0.00  0.00    +0.128 A 
ATOM      4  C   UNL     1       8.897  -5.246  25.055  0.00  0.00    +0.063 A 
ATOM      5  C   UNL     1       9.946  -4.393  24.838  0.00  0.00    +0.118 A 
ATOM      6  N   UNL     1       9.805  -3.203  24.241  0.00  0.00    -0.223 NA
ATOM      7  C   UNL     1       8.574  -2.862  23.832  0.00  0.00    +0.221 A 
ATOM      8  N   UNL     1       8.335  -1.618  23.251  0.00  0.00    -0.284 N 
ATOM      9  H   UNL     1       7.366  -1.562  22.974  0.00  0.00    +0.155 HD
ATOM     10  N   UNL     1       7.505  -3.663  23.955  0.00  0.00    -0.199 NA
ENDROOT
BRANCH   1  16
ATOM     11  C   UNL     1       1.040  -4.070  24.860  0.00  0.00    +0.044 C 
ATOM     12  C   UNL     1       2.446  -4.587  24.891  0.00  0.00    -0.050 A 
ATOM     13  C   UNL     1       3.084  -4.921  23.697  0.00  0.00    +0.008 A 
ATOM     14  C   UNL     1       4.418  -5.376  23.663  0.00  0.00    -0.029 A 
ATOM     15  C   UNL     1       4.915  -5.774  22.302  0.00  0.00    +0.045 C 
ATOM     16  C   UNL     1       5.163  -5.422  24.860  0.00  0.00    +0.038 A 
ATOM     17  C   UNL     1       4.483  -5.179  26.087  0.00  0.00    -0.029 A 
ATOM     18  C   UNL     1       5.145  -5.414  27.421  0.00  0.00    +0.045 C 
ATOM     19  C   UNL     1       3.145  -4.744  26.086  0.00  0.00    +0.008 A 
ENDBRANCH   1  16
BRANCH   8  20
ATOM     20  C   UNL     1       9.079  -0.435  23.229  0.00  0.00    +0.034 A 
ATOM     21  C   UNL     1       9.429   0.170  24.448  0.00  0.00    +0.024 A 
ATOM     22  C   UNL     1      10.091   1.402  24.485  0.00  0.00    +0.020 A 
ATOM     23  C   UNL     1      10.415   2.061  23.295  0.00  0.00    +0.052 A 
ATOM     24  C   UNL     1      10.080   1.474  22.075  0.00  0.00    +0.020 A 
ATOM     25  C   UNL     1       9.414   0.244  22.049  0.00  0.00    +0.024 A 
BRANCH  23  26
ATOM     26  C   UNL     1      11.071   3.336  23.324  0.00  0.00    +0.099 C 
ATOM     27  N   UNL     1      11.606   4.362  23.350  0.00  0.00    -0.191 NA
ENDBRANCH  23  26
ENDBRANCH   8  20
TORSDOF 3
ENDMDL
MODEL 5
REMARK VINA RESULT:      -6.9      2.864      8.696
REMARK  Name = 
REMARK  6 active torsions:
REMARK  status: ('A' for Active; 'I' for Inactive)
REMARK    1  A    between atoms: C_1  and  C_2
REMARK    2  A    between atoms: C_4  and  C_5
REMARK    3  A    between atoms: C_6  and  N_7
REMARK    4  A    between atoms: N_11  and  C_12
REMARK    5  A    between atoms: C_15  and  C_18
REMARK    6  A    between atoms: C_23  and  C_24
REMARK                            x       y       z     vdW  Elec       q    Type
REMARK                         _______ _______ _______ _____ _____    ______ ____
ROOT
ATOM      1  N   UNL     1       9.567   2.177  22.242  0.00  0.00    -0.299 N 
ATOM      2  H   UNL     1      10.198   2.368  21.474  0.00  0.00    +0.154 HD
ATOM      3  C   UNL     1       9.502   0.806  22.559  0.00  0.00    +0.128 A 
ATOM      4  C   UNL     1       9.586  -0.090  21.509  0.00  0.00    +0.063 A 
ATOM      5  C   UNL     1       9.418  -1.414  21.817  0.00  0.00    +0.118 A 
ATOM      6  N   UNL     1       9.150  -1.845  23.055  0.00  0.00    -0.223 NA
ATOM      7  C   UNL     1       9.063  -0.920  24.024  0.00  0.00    +0.221 A 
ATOM      8  N   UNL     1       8.734  -1.282  25.329  0.00  0.00    -0.284 N 
ATOM      9  H   UNL     1       8.758  -0.462  25.916  0.00  0.00    +0.155 HD
ATOM     10  N   UNL     1       9.270   0.389  23.817  0.00  0.00    -0.199 NA
ENDROOT
BRANCH   1  16
ATOM     11  C   UNL     1       7.995   6.479  25.700  0.00  0.00    +0.044 C 
ATOM     12  C   UNL     1       8.396   5.425  24.713  0.00  0.00    -0.050 A 
ATOM     13  C   UNL     1       9.748   5.169  24.488  0.00  0.00    +0.008 A 
ATOM     14  C   UNL     1      10.183   4.164  23.600  0.00  0.00    -0.029 A 
ATOM     15  C   UNL     1      11.672   4.086  23.415  0.00  0.00    +0.045 C 
ATOM     16  C   UNL     1       9.228   3.336  22.974  0.00  0.00    +0.038 A 
ATOM     17  C   UNL     1       7.851   3.664  23.123  0.00  0.00    -0.029 A 
ATOM     18  C   UNL     1       6.779   2.967  22.323  0.00  0.00    +0.045 C 
ATOM     19  C   UNL     1       7.452   4.685  24.005  0.00  0.00    +0.008 A 
ENDBRANCH   1  16
BRANCH   8  20
ATOM     20  C   UNL     1       8.165  -2.441  25.864  0.00  0.00    +0.034 A 
ATOM     21  C   UNL     1       6.832  -2.404  26.305  0.00  0.00    +0.024 A 
ATOM     22  C   UNL     1       6.241  -3.505  26.934  0.00  0.00    +0.020 A 
ATOM     23  C   UNL     1       6.980  -4.673  27.142  0.00  0.00    +0.052 A 
ATOM     24  C   UNL     1       8.304  -4.732  26.708  0.00  0.00    +0.020 A 
ATOM     25  C   UNL     1       8.886  -3.623  26.083  0.00  0.00    +0.024 A 
BRANCH  23  26
ATOM     26  C   UNL     1       6.391  -5.798  27.810  0.00  0.00    +0.099 C 
ATOM     27  N   UNL     1       5.921  -6.710  28.345  0.00  0.00    -0.191 NA
ENDBRANCH  23  26
ENDBRANCH   8  20
TORSDOF 3
ENDMDL
MODEL 6
REMARK VINA RESULT:      -6.9      2.768      8.616
REMARK  Name = 
REMARK  6 active torsions:
REMARK  status: ('A' for Active; 'I' for Inactive)
REMARK    1  A    between atoms: C_1  and  C_2
REMARK    2  A    between atoms: C_4  and  C_5
REMARK    3  A    between atoms: C_6  and  N_7
REMARK    4  A    between atoms: N_11  and  C_12
REMARK    5  A    between atoms: C_15  and  C_18
REMARK    6  A    between atoms: C_23  and  C_24
REMARK                            x       y       z     vdW  Elec       q    Type
REMARK                         _______ _______ _______ _____ _____    ______ ____
ROOT
ATOM      1  N   UNL     1       9.249   1.804  22.187  0.00  0.00    -0.299 N 
ATOM      2  H   UNL     1       9.890   1.989  21.426  0.00  0.00    +0.154 HD
ATOM      3  C   UNL     1       9.235   0.446  22.564  0.00  0.00    +0.128 A 
ATOM      4  C   UNL     1       9.383  -0.490  21.557  0.00  0.00    +0.063 A 
ATOM      5  C   UNL     1       9.264  -1.805  21.920  0.00  0.00    +0.118 A 
ATOM      6  N   UNL     1       8.984  -2.193  23.170  0.00  0.00    -0.223 NA
ATOM      7  C   UNL     1       8.835  -1.232  24.094  0.00  0.00    +0.221 A 
ATOM      8  N   UNL     1       8.490  -1.551  25.406  0.00  0.00    -0.284 N 
ATOM      9  H   UNL     1       8.465  -0.705  25.957  0.00  0.00    +0.155 HD
ATOM     10  N   UNL     1       8.991   0.075  23.833  0.00  0.00    -0.199 NA
ENDROOT
BRANCH   1  16
ATOM     11  C   UNL     1       7.844   6.908  24.404  0.00  0.00    +0.044 C 
ATOM     12  C   UNL     1       8.207   5.534  23.927  0.00  0.00    -0.050 A 
ATOM     13  C   UNL     1       7.213   4.692  23.431  0.00  0.00    +0.008 A 
ATOM     14  C   UNL     1       7.502   3.404  22.934  0.00  0.00    -0.029 A 
ATOM     15  C   UNL     1       6.299   2.602  22.522  0.00  0.00    +0.045 C 
ATOM     16  C   UNL     1       8.844   2.978  22.859  0.00  0.00    +0.038 A 
ATOM     17  C   UNL     1       9.845   3.795  23.459  0.00  0.00    -0.029 A 
ATOM     18  C   UNL     1      11.267   3.320  23.614  0.00  0.00    +0.045 C 
ATOM     19  C   UNL     1       9.518   5.067  23.962  0.00  0.00    +0.008 A 
ENDBRANCH   1  16
BRANCH   8  20
ATOM     20  C   UNL     1       7.959  -2.709  25.980  0.00  0.00    +0.034 A 
ATOM     21  C   UNL     1       6.662  -2.668  26.520  0.00  0.00    +0.024 A 
ATOM     22  C   UNL     1       6.116  -3.768  27.189  0.00  0.00    +0.020 A 
ATOM     23  C   UNL     1       6.864  -4.940  27.338  0.00  0.00    +0.052 A 
ATOM     24  C   UNL     1       8.152  -5.002  26.806  0.00  0.00    +0.020 A 
ATOM     25  C   UNL     1       8.689  -3.894  26.142  0.00  0.00    +0.024 A 
BRANCH  23  26
ATOM     26  C   UNL     1       6.323  -6.064  28.046  0.00  0.00    +0.099 C 
ATOM     27  N   UNL     1       5.893  -6.974  28.617  0.00  0.00    -0.191 NA
ENDBRANCH  23  26
ENDBRANCH   8  20
TORSDOF 3
ENDMDL
MODEL 7
REMARK VINA RESULT:      -6.4      2.430      8.232
REMARK  Name = 
REMARK  6 active torsions:
REMARK  status: ('A' for Active; 'I' for Inactive)
REMARK    1  A    between atoms: C_1  and  C_2
REMARK    2  A    between atoms: C_4  and  C_5
REMARK    3  A    between atoms: C_6  and  N_7
REMARK    4  A    between atoms: N_11  and  C_12
REMARK    5  A    between atoms: C_15  and  C_18
REMARK    6  A    between atoms: C_23  and  C_24
REMARK                            x       y       z     vdW  Elec       q    Type
REMARK                         _______ _______ _______ _____ _____    ______ ____
ROOT
ATOM      1  N   UNL     1       9.247  -1.135  24.204  0.00  0.00    -0.299 N 
ATOM      2  H   UNL     1      10.155  -0.997  24.626  0.00  0.00    +0.154 HD
ATOM      3  C   UNL     1       8.702  -2.402  24.493  0.00  0.00    +0.128 A 
ATOM      4  C   UNL     1       9.583  -3.464  24.572  0.00  0.00    +0.063 A 
ATOM      5  C   UNL     1       9.033  -4.706  24.751  0.00  0.00    +0.118 A 
ATOM      6  N   UNL     1       7.713  -4.915  24.814  0.00  0.00    -0.223 NA
ATOM      7  C   UNL     1       6.914  -3.842  24.712  0.00  0.00    +0.221 A 
ATOM      8  N   UNL     1       5.527  -3.981  24.715  0.00  0.00    -0.284 N 
ATOM      9  H   UNL     1       5.102  -3.066  24.671  0.00  0.00    +0.155 HD
ATOM     10  N   UNL     1       7.374  -2.587  24.593  0.00  0.00    -0.199 NA
ENDROOT
BRANCH   1  16
ATOM     11  C   UNL     1       6.388   3.394  22.140  0.00  0.00    +0.044 C 
ATOM     12  C   UNL     1       7.223   2.276  22.686  0.00  0.00    -0.050 A 
ATOM     13  C   UNL     1       7.189   1.992  24.051  0.00  0.00    +0.008 A 
ATOM     14  C   UNL     1       7.924   0.928  24.613  0.00  0.00    -0.029 A 
ATOM     15  C   UNL     1       7.838   0.823  26.110  0.00  0.00    +0.045 C 
ATOM     16  C   UNL     1       8.657   0.071  23.767  0.00  0.00    +0.038 A 
ATOM     17  C   UNL     1       8.774   0.422  22.391  0.00  0.00    -0.029 A 
ATOM     18  C   UNL     1       9.707  -0.313  21.462  0.00  0.00    +0.045 C 
ATOM     19  C   UNL     1       8.040   1.501  21.866  0.00  0.00    +0.008 A 
ENDBRANCH   1  16
BRANCH   8  20
ATOM     20  C   UNL     1       4.697  -5.087  24.516  0.00  0.00    +0.034 A 
ATOM     21  C   UNL     1       3.876  -5.126  23.376  0.00  0.00    +0.024 A 
ATOM     22  C   UNL     1       2.958  -6.162  23.175  0.00  0.00    +0.020 A 
ATOM     23  C   UNL     1       2.837  -7.185  24.119  0.00  0.00    +0.052 A 
ATOM     24  C   UNL     1       3.646  -7.167  25.255  0.00  0.00    +0.020 A 
ATOM     25  C   UNL     1       4.558  -6.125  25.449  0.00  0.00    +0.024 A 
BRANCH  23  26
ATOM     26  C   UNL     1       1.880  -8.238  23.934  0.00  0.00    +0.099 C 
ATOM     27  N   UNL     1       1.102  -9.082  23.784  0.00  0.00    -0.191 NA
ENDBRANCH  23  26
ENDBRANCH   8  20
TORSDOF 3
ENDMDL
MODEL 8
REMARK VINA RESULT:      -6.4      2.510      8.127
REMARK  Name = 
REMARK  6 active torsions:
REMARK  status: ('A' for Active; 'I' for Inactive)
REMARK    1  A    between atoms: C_1  and  C_2
REMARK    2  A    between atoms: C_4  and  C_5
REMARK    3  A    between atoms: C_6  and  N_7
REMARK    4  A    between atoms: N_11  and  C_12
REMARK    5  A    between atoms: C_15  and  C_18
REMARK    6  A    between atoms: C_23  and  C_24
REMARK                            x       y       z     vdW  Elec       q    Type
REMARK                         _______ _______ _______ _____ _____    ______ ____
ROOT
ATOM      1  N   UNL     1       9.360  -1.077  24.110  0.00  0.00    -0.299 N 
ATOM      2  H   UNL     1      10.257  -0.929  24.553  0.00  0.00    +0.154 HD
ATOM      3  C   UNL     1       8.800  -2.331  24.429  0.00  0.00    +0.128 A 
ATOM      4  C   UNL     1       9.673  -3.393  24.571  0.00  0.00    +0.063 A 
ATOM      5  C   UNL     1       9.111  -4.625  24.779  0.00  0.00    +0.118 A 
ATOM      6  N   UNL     1       7.788  -4.826  24.812  0.00  0.00    -0.223 NA
ATOM      7  C   UNL     1       6.999  -3.753  24.648  0.00  0.00    +0.221 A 
ATOM      8  N   UNL     1       5.612  -3.886  24.616  0.00  0.00    -0.284 N 
ATOM      9  H   UNL     1       5.193  -2.972  24.527  0.00  0.00    +0.155 HD
ATOM     10  N   UNL     1       7.469  -2.506  24.497  0.00  0.00    -0.199 NA
ENDROOT
BRANCH   1  16
ATOM     11  C   UNL     1       7.568   4.080  22.339  0.00  0.00    +0.044 C 
ATOM     12  C   UNL     1       7.932   2.699  22.794  0.00  0.00    -0.050 A 
ATOM     13  C   UNL     1       8.417   1.774  21.870  0.00  0.00    +0.008 A 
ATOM     14  C   UNL     1       8.811   0.474  22.248  0.00  0.00    -0.029 A 
ATOM     15  C   UNL     1       9.224  -0.416  21.110  0.00  0.00    +0.045 C 
ATOM     16  C   UNL     1       8.790   0.115  23.612  0.00  0.00    +0.038 A 
ATOM     17  C   UNL     1       8.199   1.021  24.538  0.00  0.00    -0.029 A 
ATOM     18  C   UNL     1       7.943   0.634  25.973  0.00  0.00    +0.045 C 
ATOM     19  C   UNL     1       7.801   2.305  24.123  0.00  0.00    +0.008 A 
ENDBRANCH   1  16
BRANCH   8  20
ATOM     20  C   UNL     1       4.782  -4.996  24.434  0.00  0.00    +0.034 A 
ATOM     21  C   UNL     1       3.872  -4.996  23.363  0.00  0.00    +0.024 A 
ATOM     22  C   UNL     1       2.953  -6.036  23.188  0.00  0.00    +0.020 A 
ATOM     23  C   UNL     1       2.921  -7.102  24.091  0.00  0.00    +0.052 A 
ATOM     24  C   UNL     1       3.818  -7.123  25.158  0.00  0.00    +0.020 A 
ATOM     25  C   UNL     1       4.731  -6.076  25.326  0.00  0.00    +0.024 A 
BRANCH  23  26
ATOM     26  C   UNL     1       1.964  -8.160  23.935  0.00  0.00    +0.099 C 
ATOM     27  N   UNL     1       1.193  -9.015  23.816  0.00  0.00    -0.191 NA
ENDBRANCH  23  26
ENDBRANCH   8  20
TORSDOF 3
ENDMDL
MODEL 9
REMARK VINA RESULT:      -6.1      1.696      2.155
REMARK  Name = 
REMARK  6 active torsions:
REMARK  status: ('A' for Active; 'I' for Inactive)
REMARK    1  A    between atoms: C_1  and  C_2
REMARK    2  A    between atoms: C_4  and  C_5
REMARK    3  A    between atoms: C_6  and  N_7
REMARK    4  A    between atoms: N_11  and  C_12
REMARK    5  A    between atoms: C_15  and  C_18
REMARK    6  A    between atoms: C_23  and  C_24
REMARK                            x       y       z     vdW  Elec       q    Type
REMARK                         _______ _______ _______ _____ _____    ______ ____
ROOT
ATOM      1  N   UNL     1       6.954  -4.412  23.912  0.00  0.00    -0.299 N 
ATOM      2  H   UNL     1       7.185  -5.203  23.325  0.00  0.00    +0.154 HD
ATOM      3  C   UNL     1       7.340  -3.183  23.341  0.00  0.00    +0.128 A 
ATOM      4  C   UNL     1       8.514  -3.168  22.610  0.00  0.00    +0.063 A 
ATOM      5  C   UNL     1       8.933  -1.949  22.147  0.00  0.00    +0.118 A 
ATOM      6  N   UNL     1       8.279  -0.809  22.403  0.00  0.00    -0.223 NA
ATOM      7  C   UNL     1       7.156  -0.894  23.134  0.00  0.00    +0.221 A 
ATOM      8  N   UNL     1       6.448   0.252  23.489  0.00  0.00    -0.284 N 
ATOM      9  H   UNL     1       5.618  -0.016  23.998  0.00  0.00    +0.155 HD
ATOM     10  N   UNL     1       6.648  -2.054  23.576  0.00  0.00    -0.199 NA
ENDROOT
BRANCH   1  16
ATOM     11  C   UNL     1       3.258  -5.106  28.247  0.00  0.00    +0.044 C 
ATOM     12  C   UNL     1       4.234  -5.034  27.113  0.00  0.00    -0.050 A 
ATOM     13  C   UNL     1       3.765  -4.948  25.803  0.00  0.00    +0.008 A 
ATOM     14  C   UNL     1       4.636  -4.839  24.700  0.00  0.00    -0.029 A 
ATOM     15  C   UNL     1       3.961  -4.846  23.358  0.00  0.00    +0.045 C 
ATOM     16  C   UNL     1       6.025  -4.735  24.925  0.00  0.00    +0.038 A 
ATOM     17  C   UNL     1       6.509  -4.926  26.251  0.00  0.00    -0.029 A 
ATOM     18  C   UNL     1       7.982  -5.044  26.548  0.00  0.00    +0.045 C 
ATOM     19  C   UNL     1       5.610  -5.049  27.327  0.00  0.00    +0.008 A 
ENDBRANCH   1  16
BRANCH   8  20
ATOM     20  C   UNL     1       6.796   1.606  23.490  0.00  0.00    +0.034 A 
ATOM     21  C   UNL     1       6.561   2.370  22.335  0.00  0.00    +0.024 A 
ATOM     22  C   UNL     1       6.975   3.703  22.247  0.00  0.00    +0.020 A 
ATOM     23  C   UNL     1       7.642   4.302  23.319  0.00  0.00    +0.052 A 
ATOM     24  C   UNL     1       7.882   3.562  24.476  0.00  0.00    +0.020 A 
ATOM     25  C   UNL     1       7.467   2.228  24.552  0.00  0.00    +0.024 A 
BRANCH  23  26
ATOM     26  C   UNL     1       8.093   5.661  23.228  0.00  0.00    +0.099 C 
ATOM     27  N   UNL     1       8.460   6.757  23.161  0.00  0.00    -0.191 NA
ENDBRANCH  23  26
ENDBRANCH   8  20
TORSDOF 3
ENDMDL
