MODEL 1
REMARK VINA RESULT:      -4.3      0.000      0.000
REMARK  Name = 
REMARK  8 active torsions:
REMARK  status: ('A' for Active; 'I' for Inactive)
REMARK    1  A    between atoms: N_1  and  CA_2
REMARK    2  A    between atoms: CA_2  and  C_4
REMARK    3  A    between atoms: CA_2  and  C_11
REMARK    4  A    between atoms: C_4  and  C_5
REMARK    5  A    between atoms: C_5  and  C_6
REMARK    6  A    between atoms: C_6  and  N_7
REMARK    7  A    between atoms: C_8  and  S_10
REMARK    8  A    between atoms: C_11  and  O_12
REMARK                            x       y       z     vdW  Elec       q    Type
REMARK                         _______ _______ _______ _____ _____    ______ ____
ROOT
ATOM      1  C   UNL     1      10.612  -0.718  23.671  0.00  0.00    +0.032 C 
ENDROOT
BRANCH   1   2
ATOM      2  CA  UNL     1       9.510  -1.784  23.626  0.00  0.00    +0.161 C 
BRANCH   2   3
ATOM      3  N   UNL     1      10.004  -3.145  23.996  0.00  0.00    -0.318 NA
ATOM      4  H1  UNL     1       9.734  -3.351  24.962  0.00  0.00    +0.119 HD
ATOM      5  H2  UNL     1       9.469  -3.824  23.446  0.00  0.00    +0.119 HD
ENDBRANCH   2   3
BRANCH   2   6
ATOM      6  C   UNL     1       8.836  -1.844  22.243  0.00  0.00    +0.322 C 
ATOM      7  OXT UNL     1       7.816  -2.459  21.983  0.00  0.00    -0.249 OA
BRANCH   6   8
ATOM      8  O   UNL     1       9.536  -1.126  21.325  0.00  0.00    -0.480 OA
ATOM      9  H   UNL     1       8.887  -0.482  20.944  0.00  0.00    +0.295 HD
ENDBRANCH   6   8
ENDBRANCH   2   6
ENDBRANCH   1   2
BRANCH   1  10
ATOM     10  C   UNL     1      10.376   0.400  24.693  0.00  0.00    +0.025 C 
BRANCH  10  11
ATOM     11  C   UNL     1      10.444   1.777  24.034  0.00  0.00    +0.144 C 
BRANCH  11  12
ATOM     12  N   UNL     1       9.082   2.187  23.709  0.00  0.00    -0.264 NA
ATOM     13  C   UNL     1       8.764   2.233  22.472  0.00  0.00    +0.144 C 
ATOM     14  N   UNL     1       9.496   1.911  21.376  0.00  0.00    -0.338 N 
ATOM     15  H   UNL     1       8.944   1.727  20.547  0.00  0.00    +0.144 HD
ATOM     16  H   UNL     1      10.257   1.261  21.516  0.00  0.00    +0.144 HD
BRANCH  13  17
ATOM     17  S   UNL     1       7.142   2.758  22.098  0.00  0.00    -0.109 S 
ATOM     18  H   UNL     1       6.660   2.481  23.317  0.00  0.00    +0.110 HD
ENDBRANCH  13  17
ENDBRANCH  11  12
ENDBRANCH  10  11
ENDBRANCH   1  10
TORSDOF 8
ENDMDL
MODEL 2
REMARK VINA RESULT:      -4.2      3.537      4.419
REMARK  Name = 
REMARK  8 active torsions:
REMARK  status: ('A' for Active; 'I' for Inactive)
REMARK    1  A    between atoms: N_1  and  CA_2
REMARK    2  A    between atoms: CA_2  and  C_4
REMARK    3  A    between atoms: CA_2  and  C_11
REMARK    4  A    between atoms: C_4  and  C_5
REMARK    5  A    between atoms: C_5  and  C_6
REMARK    6  A    between atoms: C_6  and  N_7
REMARK    7  A    between atoms: C_8  and  S_10
REMARK    8  A    between atoms: C_11  and  O_12
REMARK                            x       y       z     vdW  Elec       q    Type
REMARK                         _______ _______ _______ _____ _____    ______ ____
ROOT
ATOM      1  C   UNL     1       8.317  -4.434  24.206  0.00  0.00    +0.032 C 
ENDROOT
BRANCH   1   2
ATOM      2  CA  UNL     1       8.996  -4.683  25.559  0.00  0.00    +0.161 C 
BRANCH   2   3
ATOM      3  N   UNL     1       9.873  -5.894  25.553  0.00  0.00    -0.318 NA
ATOM      4  H1  UNL     1      10.463  -5.887  26.389  0.00  0.00    +0.119 HD
ATOM      5  H2  UNL     1       9.267  -6.709  25.692  0.00  0.00    +0.119 HD
ENDBRANCH   2   3
BRANCH   2   6
ATOM      6  C   UNL     1       7.966  -4.804  26.696  0.00  0.00    +0.322 C 
ATOM      7  OXT UNL     1       7.202  -3.923  27.052  0.00  0.00    -0.249 OA
BRANCH   6   8
ATOM      8  O   UNL     1       8.019  -6.032  27.277  0.00  0.00    -0.480 OA
ATOM      9  H   UNL     1       7.761  -5.888  28.222  0.00  0.00    +0.295 HD
ENDBRANCH   6   8
ENDBRANCH   2   6
ENDBRANCH   1   2
BRANCH   1  10
ATOM     10  C   UNL     1       8.401  -2.985  23.709  0.00  0.00    +0.025 C 
BRANCH  10  11
ATOM     11  C   UNL     1       9.838  -2.471  23.741  0.00  0.00    +0.144 C 
BRANCH  11  12
ATOM     12  N   UNL     1       9.796  -1.015  23.649  0.00  0.00    -0.264 NA
ATOM     13  C   UNL     1       9.853  -0.502  22.479  0.00  0.00    +0.144 C 
ATOM     14  N   UNL     1       9.905  -1.109  21.267  0.00  0.00    -0.338 N 
ATOM     15  H   UNL     1       9.628  -0.516  20.494  0.00  0.00    +0.144 HD
ATOM     16  H   UNL     1       9.538  -2.049  21.217  0.00  0.00    +0.144 HD
BRANCH  13  17
ATOM     17  S   UNL     1       9.836   1.241  22.387  0.00  0.00    -0.109 S 
ATOM     18  H   UNL     1       8.528   1.346  22.656  0.00  0.00    +0.110 HD
ENDBRANCH  13  17
ENDBRANCH  11  12
ENDBRANCH  10  11
ENDBRANCH   1  10
TORSDOF 8
ENDMDL
MODEL 3
REMARK VINA RESULT:      -4.2      4.994      5.694
REMARK  Name = 
REMARK  8 active torsions:
REMARK  status: ('A' for Active; 'I' for Inactive)
REMARK    1  A    between atoms: N_1  and  CA_2
REMARK    2  A    between atoms: CA_2  and  C_4
REMARK    3  A    between atoms: CA_2  and  C_11
REMARK    4  A    between atoms: C_4  and  C_5
REMARK    5  A    between atoms: C_5  and  C_6
REMARK    6  A    between atoms: C_6  and  N_7
REMARK    7  A    between atoms: C_8  and  S_10
REMARK    8  A    between atoms: C_11  and  O_12
REMARK                            x       y       z     vdW  Elec       q    Type
REMARK                         _______ _______ _______ _____ _____    ______ ____
ROOT
ATOM      1  C   UNL     1       8.741  -3.214  25.411  0.00  0.00    +0.032 C 
ENDROOT
BRANCH   1   2
ATOM      2  CA  UNL     1       9.044  -4.633  25.909  0.00  0.00    +0.161 C 
BRANCH   2   3
ATOM      3  N   UNL     1       9.791  -5.452  24.906  0.00  0.00    -0.318 NA
ATOM      4  H1  UNL     1       9.183  -6.198  24.559  0.00  0.00    +0.119 HD
ATOM      5  H2  UNL     1       9.943  -4.861  24.083  0.00  0.00    +0.119 HD
ENDBRANCH   2   3
BRANCH   2   6
ATOM      6  C   UNL     1       7.760  -5.376  26.320  0.00  0.00    +0.322 C 
ATOM      7  OXT UNL     1       6.757  -5.480  25.634  0.00  0.00    -0.249 OA
BRANCH   6   8
ATOM      8  O   UNL     1       7.876  -5.901  27.568  0.00  0.00    -0.480 OA
ATOM      9  H   UNL     1       8.698  -6.453  27.546  0.00  0.00    +0.295 HD
ENDBRANCH   6   8
ENDBRANCH   2   6
ENDBRANCH   1   2
BRANCH   1  10
ATOM     10  C   UNL     1       9.362  -2.869  24.052  0.00  0.00    +0.025 C 
BRANCH  10  11
ATOM     11  C   UNL     1       8.290  -2.721  22.975  0.00  0.00    +0.144 C 
BRANCH  11  12
ATOM     12  N   UNL     1       7.745  -4.046  22.698  0.00  0.00    -0.264 NA
ATOM     13  C   UNL     1       6.538  -4.106  22.278  0.00  0.00    +0.144 C 
ATOM     14  N   UNL     1       5.667  -3.105  21.997  0.00  0.00    -0.338 N 
ATOM     15  H   UNL     1       4.902  -3.378  21.391  0.00  0.00    +0.144 HD
ATOM     16  H   UNL     1       6.070  -2.206  21.772  0.00  0.00    +0.144 HD
BRANCH  13  17
ATOM     17  S   UNL     1       5.890  -5.699  21.985  0.00  0.00    -0.109 S 
ATOM     18  H   UNL     1       4.615  -5.324  22.151  0.00  0.00    +0.110 HD
ENDBRANCH  13  17
ENDBRANCH  11  12
ENDBRANCH  10  11
ENDBRANCH   1  10
TORSDOF 8
ENDMDL
MODEL 4
REMARK VINA RESULT:      -4.2      6.264      7.057
REMARK  Name = 
REMARK  8 active torsions:
REMARK  status: ('A' for Active; 'I' for Inactive)
REMARK    1  A    between atoms: N_1  and  CA_2
REMARK    2  A    between atoms: CA_2  and  C_4
REMARK    3  A    between atoms: CA_2  and  C_11
REMARK    4  A    between atoms: C_4  and  C_5
REMARK    5  A    between atoms: C_5  and  C_6
REMARK    6  A    between atoms: C_6  and  N_7
REMARK    7  A    between atoms: C_8  and  S_10
REMARK    8  A    between atoms: C_11  and  O_12
REMARK                            x       y       z     vdW  Elec       q    Type
REMARK                         _______ _______ _______ _____ _____    ______ ____
ROOT
ATOM      1  C   UNL     1       8.038  -5.327  23.606  0.00  0.00    +0.032 C 
ENDROOT
BRANCH   1   2
ATOM      2  CA  UNL     1       8.524  -5.000  25.024  0.00  0.00    +0.161 C 
BRANCH   2   3
ATOM      3  N   UNL     1       9.879  -5.559  25.315  0.00  0.00    -0.318 NA
ATOM      4  H1  UNL     1      10.334  -4.986  26.032  0.00  0.00    +0.119 HD
ATOM      5  H2  UNL     1       9.744  -6.462  25.780  0.00  0.00    +0.119 HD
ENDBRANCH   2   3
BRANCH   2   6
ATOM      6  C   UNL     1       7.529  -5.492  26.091  0.00  0.00    +0.322 C 
ATOM      7  OXT UNL     1       6.336  -5.670  25.914  0.00  0.00    -0.249 OA
BRANCH   6   8
ATOM      8  O   UNL     1       8.150  -5.697  27.283  0.00  0.00    -0.480 OA
ATOM      9  H   UNL     1       7.705  -5.084  27.921  0.00  0.00    +0.295 HD
ENDBRANCH   6   8
ENDBRANCH   2   6
ENDBRANCH   1   2
BRANCH   1  10
ATOM     10  C   UNL     1       7.200  -4.223  22.950  0.00  0.00    +0.025 C 
BRANCH  10  11
ATOM     11  C   UNL     1       6.212  -4.804  21.941  0.00  0.00    +0.144 C 
BRANCH  11  12
ATOM     12  N   UNL     1       4.863  -4.557  22.440  0.00  0.00    -0.264 NA
ATOM     13  C   UNL     1       4.287  -5.513  23.064  0.00  0.00    +0.144 C 
ATOM     14  N   UNL     1       4.755  -6.745  23.387  0.00  0.00    -0.338 N 
ATOM     15  H   UNL     1       4.249  -7.197  24.139  0.00  0.00    +0.144 HD
ATOM     16  H   UNL     1       5.758  -6.845  23.447  0.00  0.00    +0.144 HD
BRANCH  13  17
ATOM     17  S   UNL     1       2.662  -5.215  23.626  0.00  0.00    -0.109 S 
ATOM     18  H   UNL     1       2.103  -6.121  22.814  0.00  0.00    +0.110 HD
ENDBRANCH  13  17
ENDBRANCH  11  12
ENDBRANCH  10  11
ENDBRANCH   1  10
TORSDOF 8
ENDMDL
MODEL 5
REMARK VINA RESULT:      -4.1      3.402      4.346
REMARK  Name = 
REMARK  8 active torsions:
REMARK  status: ('A' for Active; 'I' for Inactive)
REMARK    1  A    between atoms: N_1  and  CA_2
REMARK    2  A    between atoms: CA_2  and  C_4
REMARK    3  A    between atoms: CA_2  and  C_11
REMARK    4  A    between atoms: C_4  and  C_5
REMARK    5  A    between atoms: C_5  and  C_6
REMARK    6  A    between atoms: C_6  and  N_7
REMARK    7  A    between atoms: C_8  and  S_10
REMARK    8  A    between atoms: C_11  and  O_12
REMARK                            x       y       z     vdW  Elec       q    Type
REMARK                         _______ _______ _______ _____ _____    ______ ____
ROOT
ATOM      1  C   UNL     1      10.481   0.236  23.470  0.00  0.00    +0.032 C 
ENDROOT
BRANCH   1   2
ATOM      2  CA  UNL     1       9.415   0.088  22.377  0.00  0.00    +0.161 C 
BRANCH   2   3
ATOM      3  N   UNL     1       9.793  -0.908  21.329  0.00  0.00    -0.318 NA
ATOM      4  H1  UNL     1      10.241  -1.713  21.775  0.00  0.00    +0.119 HD
ATOM      5  H2  UNL     1       8.924  -1.296  20.949  0.00  0.00    +0.119 HD
ENDBRANCH   2   3
BRANCH   2   6
ATOM      6  C   UNL     1       9.099   1.438  21.708  0.00  0.00    +0.322 C 
ATOM      7  OXT UNL     1       7.997   1.793  21.323  0.00  0.00    -0.249 OA
BRANCH   6   8
ATOM      8  O   UNL     1      10.219   2.197  21.582  0.00  0.00    -0.480 OA
ATOM      9  H   UNL     1      10.544   2.038  20.660  0.00  0.00    +0.295 HD
ENDBRANCH   6   8
ENDBRANCH   2   6
ENDBRANCH   1   2
BRANCH   1  10
ATOM     10  C   UNL     1       9.994  -0.101  24.885  0.00  0.00    +0.025 C 
BRANCH  10  11
ATOM     11  C   UNL     1       8.681  -0.880  24.847  0.00  0.00    +0.144 C 
BRANCH  11  12
ATOM     12  N   UNL     1       8.947  -2.231  25.332  0.00  0.00    -0.264 NA
ATOM     13  C   UNL     1       8.768  -3.193  24.509  0.00  0.00    +0.144 C 
ATOM     14  N   UNL     1       8.402  -3.161  23.203  0.00  0.00    -0.338 N 
ATOM     15  H   UNL     1       8.632  -4.002  22.687  0.00  0.00    +0.144 HD
ATOM     16  H   UNL     1       8.594  -2.305  22.701  0.00  0.00    +0.144 HD
BRANCH  13  17
ATOM     17  S   UNL     1       9.057  -4.805  25.113  0.00  0.00    -0.109 S 
ATOM     18  H   UNL     1      10.326  -4.849  24.687  0.00  0.00    +0.110 HD
ENDBRANCH  13  17
ENDBRANCH  11  12
ENDBRANCH  10  11
ENDBRANCH   1  10
TORSDOF 8
ENDMDL
MODEL 6
REMARK VINA RESULT:      -4.0      2.757      4.344
REMARK  Name = 
REMARK  8 active torsions:
REMARK  status: ('A' for Active; 'I' for Inactive)
REMARK    1  A    between atoms: N_1  and  CA_2
REMARK    2  A    between atoms: CA_2  and  C_4
REMARK    3  A    between atoms: CA_2  and  C_11
REMARK    4  A    between atoms: C_4  and  C_5
REMARK    5  A    between atoms: C_5  and  C_6
REMARK    6  A    between atoms: C_6  and  N_7
REMARK    7  A    between atoms: C_8  and  S_10
REMARK    8  A    between atoms: C_11  and  O_12
REMARK                            x       y       z     vdW  Elec       q    Type
REMARK                         _______ _______ _______ _____ _____    ______ ____
ROOT
ATOM      1  C   UNL     1       9.332   2.265  24.485  0.00  0.00    +0.032 C 
ENDROOT
BRANCH   1   2
ATOM      2  CA  UNL     1      10.351   2.159  23.343  0.00  0.00    +0.161 C 
BRANCH   2   3
ATOM      3  N   UNL     1      11.005   3.465  23.027  0.00  0.00    -0.318 NA
ATOM      4  H1  UNL     1      11.966   3.295  22.717  0.00  0.00    +0.119 HD
ATOM      5  H2  UNL     1      10.545   3.842  22.192  0.00  0.00    +0.119 HD
ENDBRANCH   2   3
BRANCH   2   6
ATOM      6  C   UNL     1       9.712   1.585  22.066  0.00  0.00    +0.322 C 
ATOM      7  OXT UNL     1       9.927   0.475  21.608  0.00  0.00    -0.249 OA
BRANCH   6   8
ATOM      8  O   UNL     1       8.874   2.486  21.489  0.00  0.00    -0.480 OA
ATOM      9  H   UNL     1       9.176   3.372  21.814  0.00  0.00    +0.295 HD
ENDBRANCH   6   8
ENDBRANCH   2   6
ENDBRANCH   1   2
BRANCH   1  10
ATOM     10  C   UNL     1       8.691   0.933  24.893  0.00  0.00    +0.025 C 
BRANCH  10  11
ATOM     11  C   UNL     1       9.753  -0.110  25.235  0.00  0.00    +0.144 C 
BRANCH  11  12
ATOM     12  N   UNL     1       9.118  -1.424  25.200  0.00  0.00    -0.264 NA
ATOM     13  C   UNL     1       9.392  -2.178  24.204  0.00  0.00    +0.144 C 
ATOM     14  N   UNL     1      10.237  -1.968  23.163  0.00  0.00    -0.338 N 
ATOM     15  H   UNL     1      10.523  -2.814  22.684  0.00  0.00    +0.144 HD
ATOM     16  H   UNL     1      10.986  -1.308  23.316  0.00  0.00    +0.144 HD
BRANCH  13  17
ATOM     17  S   UNL     1       8.600  -3.733  24.158  0.00  0.00    -0.109 S 
ATOM     18  H   UNL     1       8.703  -3.862  22.829  0.00  0.00    +0.110 HD
ENDBRANCH  13  17
ENDBRANCH  11  12
ENDBRANCH  10  11
ENDBRANCH   1  10
TORSDOF 8
ENDMDL
MODEL 7
REMARK VINA RESULT:      -4.0      3.127      4.364
REMARK  Name = 
REMARK  8 active torsions:
REMARK  status: ('A' for Active; 'I' for Inactive)
REMARK    1  A    between atoms: N_1  and  CA_2
REMARK    2  A    between atoms: CA_2  and  C_4
REMARK    3  A    between atoms: CA_2  and  C_11
REMARK    4  A    between atoms: C_4  and  C_5
REMARK    5  A    between atoms: C_5  and  C_6
REMARK    6  A    between atoms: C_6  and  N_7
REMARK    7  A    between atoms: C_8  and  S_10
REMARK    8  A    between atoms: C_11  and  O_12
REMARK                            x       y       z     vdW  Elec       q    Type
REMARK                         _______ _______ _______ _____ _____    ______ ____
ROOT
ATOM      1  C   UNL     1       9.685   2.489  23.181  0.00  0.00    +0.032 C 
ENDROOT
BRANCH   1   2
ATOM      2  CA  UNL     1       8.453   2.061  22.373  0.00  0.00    +0.161 C 
BRANCH   2   3
ATOM      3  N   UNL     1       8.805   1.493  21.036  0.00  0.00    -0.318 NA
ATOM      4  H1  UNL     1       9.285   2.208  20.482  0.00  0.00    +0.119 HD
ATOM      5  H2  UNL     1       9.526   0.781  21.187  0.00  0.00    +0.119 HD
ENDBRANCH   2   3
BRANCH   2   6
ATOM      6  C   UNL     1       7.463   3.225  22.189  0.00  0.00    +0.322 C 
ATOM      7  OXT UNL     1       6.252   3.113  22.093  0.00  0.00    -0.249 OA
BRANCH   6   8
ATOM      8  O   UNL     1       8.114   4.417  22.133  0.00  0.00    -0.480 OA
ATOM      9  H   UNL     1       7.467   5.086  22.472  0.00  0.00    +0.295 HD
ENDBRANCH   6   8
ENDBRANCH   2   6
ENDBRANCH   1   2
BRANCH   1  10
ATOM     10  C   UNL     1      10.007   1.586  24.378  0.00  0.00    +0.025 C 
BRANCH  10  11
ATOM     11  C   UNL     1      10.764   0.334  23.939  0.00  0.00    +0.144 C 
BRANCH  11  12
ATOM     12  N   UNL     1       9.871  -0.809  24.096  0.00  0.00    -0.264 NA
ATOM     13  C   UNL     1       9.586  -1.476  23.043  0.00  0.00    +0.144 C 
ATOM     14  N   UNL     1      10.026  -1.318  21.770  0.00  0.00    -0.338 N 
ATOM     15  H   UNL     1       9.916  -2.140  21.187  0.00  0.00    +0.144 HD
ATOM     16  H   UNL     1      10.913  -0.847  21.654  0.00  0.00    +0.144 HD
BRANCH  13  17
ATOM     17  S   UNL     1       8.489  -2.820  23.241  0.00  0.00    -0.109 S 
ATOM     18  H   UNL     1       9.227  -3.417  24.186  0.00  0.00    +0.110 HD
ENDBRANCH  13  17
ENDBRANCH  11  12
ENDBRANCH  10  11
ENDBRANCH   1  10
TORSDOF 8
ENDMDL
MODEL 8
REMARK VINA RESULT:      -4.0      3.827      4.708
REMARK  Name = 
REMARK  8 active torsions:
REMARK  status: ('A' for Active; 'I' for Inactive)
REMARK    1  A    between atoms: N_1  and  CA_2
REMARK    2  A    between atoms: CA_2  and  C_4
REMARK    3  A    between atoms: CA_2  and  C_11
REMARK    4  A    between atoms: C_4  and  C_5
REMARK    5  A    between atoms: C_5  and  C_6
REMARK    6  A    between atoms: C_6  and  N_7
REMARK    7  A    between atoms: C_8  and  S_10
REMARK    8  A    between atoms: C_11  and  O_12
REMARK                            x       y       z     vdW  Elec       q    Type
REMARK                         _______ _______ _______ _____ _____    ______ ____
ROOT
ATOM      1  C   UNL     1       6.974  -3.885  26.093  0.00  0.00    +0.032 C 
ENDROOT
BRANCH   1   2
ATOM      2  CA  UNL     1       7.589  -5.289  26.039  0.00  0.00    +0.161 C 
BRANCH   2   3
ATOM      3  N   UNL     1       7.993  -5.797  27.385  0.00  0.00    -0.318 NA
ATOM      4  H1  UNL     1       7.282  -5.532  28.073  0.00  0.00    +0.119 HD
ATOM      5  H2  UNL     1       7.931  -6.820  27.357  0.00  0.00    +0.119 HD
ENDBRANCH   2   3
BRANCH   2   6
ATOM      6  C   UNL     1       8.800  -5.341  25.090  0.00  0.00    +0.322 C 
ATOM      7  OXT UNL     1       8.768  -5.112  23.893  0.00  0.00    -0.249 OA
BRANCH   6   8
ATOM      8  O   UNL     1       9.931  -5.692  25.757  0.00  0.00    -0.480 OA
ATOM      9  H   UNL     1      10.521  -4.898  25.711  0.00  0.00    +0.295 HD
ENDBRANCH   6   8
ENDBRANCH   2   6
ENDBRANCH   1   2
BRANCH   1  10
ATOM     10  C   UNL     1       7.970  -2.765  26.418  0.00  0.00    +0.025 C 
BRANCH  10  11
ATOM     11  C   UNL     1       7.703  -1.523  25.569  0.00  0.00    +0.144 C 
BRANCH  11  12
ATOM     12  N   UNL     1       8.875  -1.295  24.729  0.00  0.00    -0.264 NA
ATOM     13  C   UNL     1       8.818  -1.711  23.521  0.00  0.00    +0.144 C 
ATOM     14  N   UNL     1       7.798  -2.312  22.858  0.00  0.00    -0.338 N 
ATOM     15  H   UNL     1       7.873  -2.261  21.848  0.00  0.00    +0.144 HD
ATOM     16  H   UNL     1       6.867  -2.141  23.211  0.00  0.00    +0.144 HD
BRANCH  13  17
ATOM     17  S   UNL     1      10.238  -1.461  22.539  0.00  0.00    -0.109 S 
ATOM     18  H   UNL     1      10.667  -2.725  22.652  0.00  0.00    +0.110 HD
ENDBRANCH  13  17
ENDBRANCH  11  12
ENDBRANCH  10  11
ENDBRANCH   1  10
TORSDOF 8
ENDMDL
MODEL 9
REMARK VINA RESULT:      -4.0      2.757      3.117
REMARK  Name = 
REMARK  8 active torsions:
REMARK  status: ('A' for Active; 'I' for Inactive)
REMARK    1  A    between atoms: N_1  and  CA_2
REMARK    2  A    between atoms: CA_2  and  C_4
REMARK    3  A    between atoms: CA_2  and  C_11
REMARK    4  A    between atoms: C_4  and  C_5
REMARK    5  A    between atoms: C_5  and  C_6
REMARK    6  A    between atoms: C_6  and  N_7
REMARK    7  A    between atoms: C_8  and  S_10
REMARK    8  A    between atoms: C_11  and  O_12
REMARK                            x       y       z     vdW  Elec       q    Type
REMARK                         _______ _______ _______ _____ _____    ______ ____
ROOT
ATOM      1  C   UNL     1      10.161   0.920  22.417  0.00  0.00    +0.032 C 
ENDROOT
BRANCH   1   2
ATOM      2  CA  UNL     1       9.805  -0.198  23.405  0.00  0.00    +0.161 C 
BRANCH   2   3
ATOM      3  N   UNL     1      10.487  -0.043  24.726  0.00  0.00    -0.318 NA
ATOM      4  H1  UNL     1      10.929   0.879  24.771  0.00  0.00    +0.119 HD
ATOM      5  H2  UNL     1       9.756   0.005  25.443  0.00  0.00    +0.119 HD
ENDBRANCH   2   3
BRANCH   2   6
ATOM      6  C   UNL     1      10.125  -1.588  22.826  0.00  0.00    +0.322 C 
ATOM      7  OXT UNL     1      10.267  -2.608  23.480  0.00  0.00    -0.249 OA
BRANCH   6   8
ATOM      8  O   UNL     1      10.245  -1.540  21.473  0.00  0.00    -0.480 OA
ATOM      9  H   UNL     1       9.400  -1.137  21.148  0.00  0.00    +0.295 HD
ENDBRANCH   6   8
ENDBRANCH   2   6
ENDBRANCH   1   2
BRANCH   1  10
ATOM     10  C   UNL     1       9.129   2.052  22.337  0.00  0.00    +0.025 C 
BRANCH  10  11
ATOM     11  C   UNL     1       9.385   3.111  23.407  0.00  0.00    +0.144 C 
BRANCH  11  12
ATOM     12  N   UNL     1      10.810   3.429  23.391  0.00  0.00    -0.264 NA
ATOM     13  C   UNL     1      11.132   4.663  23.305  0.00  0.00    +0.144 C 
ATOM     14  N   UNL     1      10.342   5.766  23.267  0.00  0.00    -0.338 N 
ATOM     15  H   UNL     1      10.817   6.626  23.515  0.00  0.00    +0.144 HD
ATOM     16  H   UNL     1       9.420   5.674  23.671  0.00  0.00    +0.144 HD
BRANCH  13  17
ATOM     17  S   UNL     1      12.838   5.026  23.252  0.00  0.00    -0.109 S 
ATOM     18  H   UNL     1      12.677   6.192  22.614  0.00  0.00    +0.110 HD
ENDBRANCH  13  17
ENDBRANCH  11  12
ENDBRANCH  10  11
ENDBRANCH   1  10
TORSDOF 8
ENDMDL
